@<TRIPOS>MOLECULE
3R540
247   249    1
SMALL
USER_CHARGES


@<TRIPOS>ATOM
      1 CA         -0.8001  -11.9641  -45.2368 C.3       0 UNK        -0.1800 
      2 C           0.4429  -12.0720  -46.1080 C.2       0 UNK         0.5000 
      3 O           1.3598  -11.2629  -45.9666 O.2       0 UNK        -0.5000 
      4 N           0.4683  -13.0556  -47.0174 N.am      1 UNK        -0.5000 
      5 CA          1.5487  -13.2637  -47.9897 C.3       1 UNK         0.1400 
      6 C6          1.1279  -14.1648  -49.1786 C.3       23 UNK        -0.0398 
      7 S7         -0.3037  -13.4947  -50.0944 S.3       23 UNK        -0.2404 
      8 C8         -1.4973  -14.8683  -50.0179 C.3       23 UNK        -0.0205 
      9 C9         -1.1096  -16.0129  -50.9439 C.ar      23 UNK        -0.0193 
     10 C10        -1.3627  -15.9260  -52.3158 C.ar      23 UNK        -0.1150 
     11 C11        -1.0082  -16.9725  -53.1734 C.ar      23 UNK        -0.0193 
     12 C12        -0.3900  -18.1098  -52.6423 C.ar      23 UNK        -0.1150 
     13 C13        -0.1717  -18.2298  -51.2679 C.ar      23 UNK        -0.0193 
     14 C14        -0.5262  -17.1730  -50.4293 C.ar      23 UNK        -0.1150 
     15 C15         0.4576  -19.4922  -50.6944 C.3       23 UNK        -0.0205 
     16 S16        -0.7909  -20.6071  -49.9646 S.3       23 UNK        -0.2404 
     17 C17         0.0324  -22.2271  -50.1663 C.3       23 UNK        -0.0398 
     18 CA         -0.0249  -23.1890  -48.9541 C.3       11 UNK         0.1400 
     19 N           0.6170  -22.6569  -47.7457 N.am      11 UNK        -0.5000 
     20 C           1.1509  -23.4463  -46.8010 C.2       10 UNK         0.5000 
     21 O           1.1356  -24.6766  -46.8565 O.2       10 UNK        -0.5000 
     22 CA          1.7842  -22.7571  -45.5779 C.3       10 UNK         0.1400 
     23 CB          3.1084  -22.0766  -45.9588 C.3       10 UNK        -0.1800 
     24 N           0.9118  -21.7834  -44.9195 N.am      10 UNK        -0.5000 
     25 C          -0.3115  -22.0331  -44.4304 C.2       9 UNK         0.5000 
     26 O          -0.8733  -23.1217  -44.5275 O.2       9 UNK        -0.5000 
     27 CA         -1.0441  -20.8822  -43.7112 C.3       9 UNK         0.1400 
     28 CB         -0.9813  -21.0777  -42.1889 C.3       9 UNK        -0.1800 
     29 N          -0.5473  -19.5433  -44.0369 N.am      9 UNK        -0.5000 
     30 C          -0.6008  -18.9816  -45.2513 C.2       8 UNK         0.5000 
     31 O          -1.0528  -19.5486  -46.2473 O.2       8 UNK        -0.5000 
     32 CA         -0.0874  -17.5390  -45.3327 C.3       8 UNK         0.1400 
     33 CB         -0.1516  -16.9537  -46.7501 C.3       8 UNK        -0.1800 
     34 N          -0.8398  -16.7210  -44.3886 N.am      8 UNK        -0.5000 
     35 C          -0.4501  -15.5291  -43.9300 C.2       7 UNK         0.5000 
     36 O           0.5401  -14.9282  -44.3531 O.2       7 UNK        -0.5000 
     37 CA         -1.2713  -14.9029  -42.7863 C.3       7 UNK         0.1400 
     38 CB         -2.5851  -15.6415  -42.4415 C.3       7 UNK        -0.1800 
     39 N          -0.4140  -14.7420  -41.6130 N.am      7 UNK        -0.5000 
     40 C           0.1808  -15.7125  -40.9038 C.2       6 UNK         0.5000 
     41 O          -0.0685  -16.9127  -41.0288 O.2       6 UNK        -0.5000 
     42 CA          1.2775  -15.2778  -39.9161 C.3       6 UNK         0.1400 
     43 CB          2.6605  -15.5345  -40.5363 C.3       6 UNK        -0.1800 
     44 N           1.1865  -13.8627  -39.5465 N.am      6 UNK        -0.5000 
     45 C           0.5393  -13.3952  -38.4706 C.2       5 UNK         0.5000 
     46 O          -0.0921  -14.1108  -37.6920 O.2       5 UNK        -0.5000 
     47 CA          0.6288  -11.8806  -38.1936 C.3       5 UNK         0.1400 
     48 CB          1.7056  -11.5989  -37.1340 C.3       5 UNK        -0.1800 
     49 N           0.9332  -11.0936  -39.3902 N.am      5 UNK        -0.5000 
     50 C           0.0195  -10.6821  -40.2794 C.2       4 UNK         0.5000 
     51 O          -1.1886  -10.8919  -40.1674 O.2       4 UNK        -0.5000 
     52 CA          0.5500   -9.9331  -41.5205 C.3       4 UNK         0.1400 
     53 CB          0.6227   -8.4231  -41.2476 C.3       4 UNK        -0.1800 
     54 N           1.8582  -10.4016  -41.9972 N.am      4 UNK        -0.5000 
     55 C           2.1137  -11.6561  -42.3871 C.2       3 UNK         0.5000 
     56 O           1.2914  -12.5699  -42.3045 O.2       3 UNK        -0.5000 
     57 CA          3.5231  -11.9636  -42.9044 C.3       3 UNK         0.1400 
     58 CB          4.4861  -12.1938  -41.7224 C.3       3 UNK        -0.1800 
     59 N           3.4220  -13.1497  -43.7492 N.am      3 UNK        -0.5000 
     60 C           4.3800  -13.6888  -44.5098 C.2       2 UNK         0.5000 
     61 O           5.5403  -13.2792  -44.5594 O.2       2 UNK        -0.5000 
     62 CA          3.9426  -14.8572  -45.4082 C.3       2 UNK         0.1400 
     63 CB          3.6431  -16.1219  -44.5855 C.3       2 UNK        -0.1800 
     64 N           2.7708  -14.4705  -46.1979 N.am      2 UNK        -0.5000 
     65 C           2.8550  -13.7789  -47.3461 C.2       1 UNK         0.5000 
     66 O           3.9237  -13.5259  -47.9048 O.2       1 UNK        -0.5000 
     67 C          -1.4356  -23.7478  -48.6697 C.2       11 UNK         0.5000 
     68 O          -1.8574  -24.6949  -49.3351 O.2       11 UNK        -0.5000 
     69 N          -2.1169  -23.2115  -47.6462 N.am      12 UNK        -0.5000 
     70 CA         -3.3949  -23.7281  -47.1548 C.3       12 UNK         0.1400 
     71 CB         -4.0285  -22.7208  -46.1850 C.3       12 UNK        -0.1800 
     72 C          -3.2504  -25.1196  -46.5109 C.2       12 UNK         0.5000 
     73 O          -4.0470  -26.0087  -46.8095 O.2       12 UNK        -0.5000 
     74 N          -2.2019  -25.3075  -45.6967 N.am      13 UNK        -0.5000 
     75 CA         -1.8245  -26.5865  -45.0873 C.3       13 UNK         0.1400 
     76 CB         -0.7111  -26.3504  -44.0559 C.3       13 UNK        -0.1800 
     77 C          -1.3902  -27.6448  -46.1201 C.2       13 UNK         0.5000 
     78 O          -1.6080  -28.8359  -45.8974 O.2       13 UNK        -0.5000 
     79 N          -0.8272  -27.1903  -47.2482 N.am      14 UNK        -0.5000 
     80 CA         -0.4965  -28.0104  -48.4162 C.3       14 UNK         0.1400 
     81 CB          0.5699  -27.2817  -49.2503 C.3       14 UNK        -0.1800 
     82 C          -1.7241  -28.3659  -49.2857 C.2       14 UNK         0.5000 
     83 O          -1.5680  -29.1041  -50.2591 O.2       14 UNK        -0.5000 
     84 N          -2.9087  -27.8416  -48.9317 N.am      15 UNK        -0.5000 
     85 CA         -4.2032  -28.0119  -49.5982 C.3       15 UNK         0.1400 
     86 CB         -4.6562  -29.4871  -49.5708 C.3       15 UNK        -0.1800 
     87 C          -4.2473  -27.3843  -51.0065 C.2       15 UNK         0.5000 
     88 O          -4.9309  -27.9013  -51.8922 O.2       15 UNK        -0.5000 
     89 N          -3.5337  -26.2667  -51.1832 N.am      16 UNK        -0.5000 
     90 CA         -3.4723  -25.4914  -52.4167 C.3       16 UNK         0.1400 
     91 CB         -2.2414  -25.9253  -53.2345 C.3       16 UNK        -0.1800 
     92 C          -3.4629  -24.0014  -52.0456 C.2       16 UNK         0.5000 
     93 O          -2.5158  -23.2883  -52.3741 O.2       16 UNK        -0.5000 
     94 N          -4.4974  -23.5830  -51.3064 N.am      17 UNK        -0.5000 
     95 CA         -4.6249  -22.2759  -50.6609 C.3       17 UNK         0.1400 
     96 CB         -5.9532  -22.2519  -49.8851 C.3       17 UNK        -0.1800 
     97 C          -4.5316  -21.0573  -51.6015 C.2       17 UNK         0.5000 
     98 O          -4.6900  -21.1787  -52.8215 O.2       17 UNK        -0.5000 
     99 N          -4.3107  -19.8920  -50.9793 N.am      18 UNK        -0.5000 
    100 CA        -4.2679  -18.5648  -51.5900 C.3       18 UNK         0.1400 
    101 CB        -4.1282  -17.5227  -50.4708 C.3       18 UNK        -0.1800 
    102 C         -5.5246  -18.2681  -52.4259 C.2       18 UNK         0.5000 
    103 O         -6.6387  -18.4746  -51.9400 O.2       18 UNK        -0.5000 
    104 N         -5.3164  -17.8345  -53.6746 N.am      19 UNK        -0.5000 
    105 CA        -6.2981  -17.5579  -54.7332 C.3       19 UNK         0.1400 
    106 CB        -7.2939  -16.4620  -54.3076 C.3       19 UNK        -0.1800 
    107 C         -7.0338  -18.8016  -55.2781 C.2       19 UNK         0.5000 
    108 O         -7.3891  -18.8135  -56.4573 O.2       19 UNK        -0.5000 
    109 N         -7.2397  -19.8242  -54.4384 N.am      20 UNK        -0.5000 
    110 CA        -7.8543  -21.1028  -54.7896 C.3       20 UNK         0.1400 
    111 CB        -8.1770  -21.8817  -53.5051 C.3       20 UNK        -0.1800 
    112 C         -6.9702  -21.9443  -55.7262 C.2       20 UNK         0.5000 
    113 O         -7.4933  -22.5580  -56.6578 O.2       20 UNK        -0.5000 
    114 N         -5.6548  -21.9454  -55.4750 N.am      21 UNK        -0.5000 
    115 CA        -4.6637  -22.6447  -56.2924 C.3       21 UNK         0.1400 
    116 CB        -4.6019  -24.1295  -55.8999 C.3       21 UNK        -0.1800 
    117 C         -3.2703  -22.0007  -56.2260 C.2       21 UNK         0.5000 
    118 O         -2.5523  -22.0607  -57.2251 O.2       21 UNK        -0.5000 
    119 N         -2.9098  -21.3952  -55.0841 N.am      22 UNK        -0.5000 
    120 CA        -1.5999  -20.7678  -54.8292 C.3       22 UNK         0.1400 
    121 C         -0.4104  -21.7758  -54.8887 C.2       22 UNK         0.5000 
    122 N         -0.4909  -22.8931  -54.1821 N.am      22 UNK        -0.7600 
    123 O          0.5917  -21.5558  -55.5650 O.2       22 UNK        -0.5000 
    124 C124       -1.3508  -19.4967  -55.6946 C.3       23 UNK        -0.0398 
    125 S125       -2.4590  -18.1088  -55.2756 S.3       23 UNK        -0.2404 
    126 C126       -1.2774  -16.8554  -54.6688 C.3       23 UNK        -0.0205 
    127 H127       -1.4961  -12.7825  -45.4216 H         1 UNK         0.0600 
    128 H128       -1.3165  -11.0253  -45.4359 H         1 UNK         0.0600 
    129 H129       -0.5226  -11.9824  -44.1840 H         1 UNK         0.0600 
    130 H130       -0.3179  -13.6834  -47.0900 H         1 UNK         0.3000 
    131 H131        1.7883  -12.2831  -48.4076 H         1 UNK         0.0600 
    132 H132        1.9490  -14.2570  -49.8920 H         1 UNK         0.0800 
    133 H133        0.9153  -15.1780  -48.8406 H         1 UNK         0.0800 
    134 H134       -1.5977  -15.2150  -48.9886 H         1 UNK         0.0800 
    135 H135       -2.4799  -14.4922  -50.3062 H         1 UNK         0.0800 
    136 H136       -1.8287  -15.0354  -52.7135 H         1 UNK         0.1150 
    137 H137       -0.0801  -18.9095  -53.2950 H         1 UNK         0.1150 
    138 H138       -0.3574  -17.2642  -49.3721 H         1 UNK         0.1150 
    139 H139        1.0026  -20.0125  -51.4835 H         1 UNK         0.0800 
    140 H140        1.1941  -19.2299  -49.9335 H         1 UNK         0.0800 
    141 H141        1.0818  -22.0603  -50.4115 H         1 UNK         0.0800 
    142 H142       -0.3876  -22.7120  -51.0475 H         1 UNK         0.0800 
    143 H143        0.5621  -24.0563  -49.2639 H         1 UNK         0.0600 
    144 H144        0.6237  -21.6531  -47.6299 H         1 UNK         0.3000 
    145 H145        2.0052  -23.5370  -44.8462 H         1 UNK         0.0600 
    146 H146        3.6237  -21.6959  -45.0768 H         1 UNK         0.0600 
    147 H147        3.7831  -22.7807  -46.4479 H         1 UNK         0.0600 
    148 H148        2.9528  -21.2414  -46.6428 H         1 UNK         0.0600 
    149 H149        1.2882  -20.8566  -44.7909 H         1 UNK         0.3000 
    150 H150       -2.0914  -20.9284  -44.0159 H         1 UNK         0.0600 
    151 H151       -1.3781  -22.0527  -41.9022 H         1 UNK         0.0600 
    152 H152       -1.5717  -20.3229  -41.6689 H         1 UNK         0.0600 
    153 H153        0.0427  -21.0178  -41.8180 H         1 UNK         0.0600 
    154 H154       -0.1674  -19.0067  -43.2688 H         1 UNK         0.3000 
    155 H155        0.9576  -17.5570  -45.0178 H         1 UNK         0.0600 
    156 H156       -1.1665  -16.9738  -47.1489 H         1 UNK         0.0600 
    157 H157        0.2001  -15.9255  -46.7754 H         1 UNK         0.0600 
    158 H158        0.4929  -17.5319  -47.4118 H         1 UNK         0.0600 
    159 H159       -1.6579  -17.1560  -43.9846 H         1 UNK         0.3000 
    160 H160       -1.5374  -13.8971  -43.1104 H         1 UNK         0.0600 
    161 H161       -3.1165  -15.1281  -41.6402 H         1 UNK         0.0600 
    162 H162       -2.4211  -16.6695  -42.1183 H         1 UNK         0.0600 
    163 H163       -3.2546  -15.6678  -43.3021 H         1 UNK         0.0600 
    164 H164       -0.0242  -13.8106  -41.5145 H         1 UNK         0.3000 
    165 H165        1.1867  -15.8999  -39.0231 H         1 UNK         0.0600 
    166 H166        3.4609  -15.2469  -39.8545 H         1 UNK         0.0600 
    167 H167        2.7949  -16.5922  -40.7669 H         1 UNK         0.0600 
    168 H168        2.7919  -14.9806  -41.4664 H         1 UNK         0.0600 
    169 H169        1.6192  -13.2033  -40.1777 H         1 UNK         0.3000 
    170 H170       -0.3341  -11.5614  -37.7889 H         1 UNK         0.0600 
    171 H171        1.7411  -10.5393  -36.8800 H         1 UNK         0.0600 
    172 H172        2.6973  -11.8959  -37.4777 H         1 UNK         0.0600 
    173 H173        1.5003  -12.1456  -36.2126 H         1 UNK         0.0600 
    174 H174        1.9027  -10.8662  -39.5551 H         1 UNK         0.3000 
    175 H175       -0.1677  -10.0973  -42.3270 H         1 UNK         0.0600 
    176 H176        0.8945   -7.8718  -42.1480 H         1 UNK         0.0600 
    177 H177        1.3556   -8.1885  -40.4747 H         1 UNK         0.0600 
    178 H178       -0.3421   -8.0394  -40.9128 H         1 UNK         0.0600 
    179 H179        2.5848   -9.7044  -42.0745 H         1 UNK         0.3000 
    180 H180        3.8681  -11.1262  -43.5138 H         1 UNK         0.0600 
    181 H181        4.1841  -13.0457  -41.1139 H         1 UNK         0.0600 
    182 H182        4.5194  -11.3213  -41.0689 H         1 UNK         0.0600 
    183 H183        5.5059  -12.3725  -42.0616 H         1 UNK         0.0600 
    184 H184        2.4861  -13.5425  -43.7776 H         1 UNK         0.3000 
    185 H185        4.7704  -15.0964  -46.0793 H         1 UNK         0.0600 
    186 H186        2.8496  -15.9642  -43.8558 H         1 UNK         0.0600 
    187 H187        3.3477  -16.9482  -45.2316 H         1 UNK         0.0600 
    188 H188        4.5283  -16.4415  -44.0346 H         1 UNK         0.0600 
    189 H189        1.8648  -14.5985  -45.7551 H         1 UNK         0.3000 
    190 H190       -1.6957  -22.4538  -47.1281 H         1 UNK         0.3000 
    191 H191       -4.0624  -23.8351  -48.0113 H         1 UNK         0.0600 
    192 H192       -4.1611  -21.7475  -46.6580 H         1 UNK         0.0600 
    193 H193       -5.0123  -23.0616  -45.8603 H         1 UNK         0.0600 
    194 H194       -3.4208  -22.5804  -45.2917 H         1 UNK         0.0600 
    195 H195       -1.6219  -24.5075  -45.4504 H         1 UNK         0.3000 
    196 H196       -2.6986  -26.9778  -44.5628 H         1 UNK         0.0600 
    197 H197       -0.4168  -27.2842  -43.5752 H         1 UNK         0.0600 
    198 H198       -1.0401  -25.6700  -43.2704 H         1 UNK         0.0600 
    199 H199        0.1793  -25.9219  -44.5176 H         1 UNK         0.0600 
    200 H200       -0.6438  -26.1986  -47.3253 H         1 UNK         0.3000 
    201 H201       -0.0647  -28.9500  -48.0657 H         1 UNK         0.0600 
    202 H202        1.4268  -26.9964  -48.6395 H         1 UNK         0.0600 
    203 H203        0.1716  -26.3808  -49.7152 H         1 UNK         0.0600 
    204 H204        0.9415  -27.9216  -50.0515 H         1 UNK         0.0600 
    205 H205       -2.9317  -27.2331  -48.1222 H         1 UNK         0.3000 
    206 H206       -4.9201  -27.4456  -49.0026 H         1 UNK         0.0600 
    207 H207       -4.6147  -29.8930  -48.5600 H         1 UNK         0.0600 
    208 H208       -5.6859  -29.5855  -49.9162 H         1 UNK         0.0600 
    209 H209       -4.0373  -30.1156  -50.2114 H         1 UNK         0.0600 
    210 H210       -2.9985  -25.8835  -50.4069 H         1 UNK         0.3000 
    211 H211       -4.3690  -25.6667  -53.0136 H         1 UNK         0.0600 
    212 H212       -1.3158  -25.7642  -52.6801 H         1 UNK         0.0600 
    213 H213       -2.1718  -25.3660  -54.1680 H         1 UNK         0.0600 
    214 H214       -2.2948  -26.9828  -53.4932 H         1 UNK         0.0600 
    215 H215       -5.2293  -24.2472  -51.1048 H         1 UNK         0.3000 
    216 H216       -3.8033  -22.1960  -49.9467 H         1 UNK         0.0600 
    217 H217       -6.0640  -21.3301  -49.3129 H         1 UNK         0.0600 
    218 H218       -6.0178  -23.0769  -49.1760 H         1 UNK         0.0600 
    219 H219       -6.8098  -22.3232  -50.5560 H         1 UNK         0.0600 
    220 H220       -4.2048  -19.9034  -49.9763 H         1 UNK         0.3000 
    221 H221       -3.3835  -18.5235  -52.2283 H         1 UNK         0.0600 
    222 H222       -4.9944  -17.5251  -49.8077 H         1 UNK         0.0600 
    223 H223       -3.2451  -17.7114  -49.8610 H         1 UNK         0.0600 
    224 H224       -4.0364  -16.5180  -50.8843 H         1 UNK         0.0600 
    225 H225       -4.3546  -17.7549  -53.9820 H         1 UNK         0.3000 
    226 H226       -5.7160  -17.1611  -55.5664 H         1 UNK         0.0600 
    227 H227       -6.7736  -15.5662  -53.9688 H         1 UNK         0.0600 
    228 H228       -7.9302  -16.1715  -55.1444 H         1 UNK         0.0600 
    229 H229       -7.9504  -16.7948  -53.5035 H         1 UNK         0.0600 
    230 H230       -6.9486  -19.7025  -53.4747 H         1 UNK         0.3000 
    231 H231       -8.7926  -20.8952  -55.3081 H         1 UNK         0.0600 
    232 H232       -7.2734  -22.1329  -52.9497 H         1 UNK         0.0600 
    233 H233       -8.6896  -22.8165  -53.7353 H         1 UNK         0.0600 
    234 H234       -8.8276  -21.3067  -52.8460 H         1 UNK         0.0600 
    235 H235       -5.3153  -21.4361  -54.6650 H         1 UNK         0.3000 
    236 H236       -4.9739  -22.5828  -57.3380 H         1 UNK         0.0600 
    237 H237       -5.5505  -24.6322  -56.0882 H         1 UNK         0.0600 
    238 H238       -3.8349  -24.6574  -56.4681 H         1 UNK         0.0600 
    239 H239       -4.3672  -24.2408  -54.8446 H         1 UNK         0.0600 
    240 H240       -3.5306  -21.4267  -54.2807 H         1 UNK         0.3000 
    241 H241       -1.6401  -20.4533  -53.7864 H         1 UNK         0.0600 
    242 H242       -1.2873  -23.0600  -53.5649 H         1 UNK         0.3800 
    243 H243        0.2662  -23.5553  -54.2155 H         1 UNK         0.3800 
    244 H244       -0.3200  -19.1573  -55.5905 H         1 UNK         0.0800 
    245 H245       -1.4672  -19.7212  -56.7550 H         1 UNK         0.0800 
    246 H246       -1.6917  -15.8723  -54.8975 H         1 UNK         0.0800 
    247 H247       -0.3371  -16.9119  -55.2183 H         1 UNK         0.0800 
@<TRIPOS>BOND
     1    1    2 1    
     2    1  127 1    
     3    1  128 1    
     4    1  129 1    
     5    2    3 2    
     6    2    4 am   BACKBONE|DICT|INTERRES
     7    4    5 1    
     8    4  130 1    
     9    5    6 1    
    10    5   65 1    
    11    5  131 1    
    12    6    7 1    
    13    6  132 1    
    14    6  133 1    
    15    7    8 1    
    16    8    9 1    
    17    8  134 1    
    18    8  135 1    
    19    9   10 ar   
    20    9   14 ar   
    21   10   11 ar   
    22   10  136 1    
    23   11   12 ar   
    24   11  126 1    
    25   12   13 ar   
    26   12  137 1    
    27   13   14 ar   
    28   13   15 1    
    29   14  138 1    
    30   15   16 1    
    31   15  139 1    
    32   15  140 1    
    33   16   17 1    
    34   17   18 1    
    35   17  141 1    
    36   17  142 1    
    37   18   19 1    
    38   18   67 1    
    39   18  143 1    
    40   19   20 am   BACKBONE|DICT|INTERRES
    41   19  144 1    
    42   20   21 2    
    43   20   22 1    
    44   22   23 1    
    45   22   24 1    
    46   22  145 1    
    47   23  146 1    
    48   23  147 1    
    49   23  148 1    
    50   24   25 am   BACKBONE|DICT|INTERRES
    51   24  149 1    
    52   25   26 2    
    53   25   27 1    
    54   27   28 1    
    55   27   29 1    
    56   27  150 1    
    57   28  151 1    
    58   28  152 1    
    59   28  153 1    
    60   29   30 am   BACKBONE|DICT|INTERRES
    61   29  154 1    
    62   30   31 2    
    63   30   32 1    
    64   32   33 1    
    65   32   34 1    
    66   32  155 1    
    67   33  156 1    
    68   33  157 1    
    69   33  158 1    
    70   34   35 am   BACKBONE|DICT|INTERRES
    71   34  159 1    
    72   35   36 2    
    73   35   37 1    
    74   37   38 1    
    75   37   39 1    
    76   37  160 1    
    77   38  161 1    
    78   38  162 1    
    79   38  163 1    
    80   39   40 am   BACKBONE|DICT|INTERRES
    81   39  164 1    
    82   40   41 2    
    83   40   42 1    
    84   42   43 1    
    85   42   44 1    
    86   42  165 1    
    87   43  166 1    
    88   43  167 1    
    89   43  168 1    
    90   44   45 am   BACKBONE|DICT|INTERRES
    91   44  169 1    
    92   45   46 2    
    93   45   47 1    
    94   47   48 1    
    95   47   49 1    
    96   47  170 1    
    97   48  171 1    
    98   48  172 1    
    99   48  173 1    
   100   49   50 am   BACKBONE|DICT|INTERRES
   101   49  174 1    
   102   50   51 2    
   103   50   52 1    
   104   52   53 1    
   105   52   54 1    
   106   52  175 1    
   107   53  176 1    
   108   53  177 1    
   109   53  178 1    
   110   54   55 am   BACKBONE|DICT|INTERRES
   111   54  179 1    
   112   55   56 2    
   113   55   57 1    
   114   57   58 1    
   115   57   59 1    
   116   57  180 1    
   117   58  181 1    
   118   58  182 1    
   119   58  183 1    
   120   59   60 am   BACKBONE|DICT|INTERRES
   121   59  184 1    
   122   60   61 2    
   123   60   62 1    
   124   62   63 1    
   125   62   64 1    
   126   62  185 1    
   127   63  186 1    
   128   63  187 1    
   129   63  188 1    
   130   64   65 am   BACKBONE|DICT|INTERRES
   131   64  189 1    
   132   65   66 2    
   133   67   68 2    
   134   67   69 am   BACKBONE|DICT|INTERRES
   135   69   70 1    
   136   69  190 1    
   137   70   71 1    
   138   70   72 1    
   139   70  191 1    
   140   71  192 1    
   141   71  193 1    
   142   71  194 1    
   143   72   73 2    
   144   72   74 am   BACKBONE|DICT|INTERRES
   145   74   75 1    
   146   74  195 1    
   147   75   76 1    
   148   75   77 1    
   149   75  196 1    
   150   76  197 1    
   151   76  198 1    
   152   76  199 1    
   153   77   78 2    
   154   77   79 am   BACKBONE|DICT|INTERRES
   155   79   80 1    
   156   79  200 1    
   157   80   81 1    
   158   80   82 1    
   159   80  201 1    
   160   81  202 1    
   161   81  203 1    
   162   81  204 1    
   163   82   83 2    
   164   82   84 am   BACKBONE|DICT|INTERRES
   165   84   85 1    
   166   84  205 1    
   167   85   86 1    
   168   85   87 1    
   169   85  206 1    
   170   86  207 1    
   171   86  208 1    
   172   86  209 1    
   173   87   88 2    
   174   87   89 am   BACKBONE|DICT|INTERRES
   175   89   90 1    
   176   89  210 1    
   177   90   91 1    
   178   90   92 1    
   179   90  211 1    
   180   91  212 1    
   181   91  213 1    
   182   91  214 1    
   183   92   93 2    
   184   92   94 am   BACKBONE|DICT|INTERRES
   185   94   95 1    
   186   94  215 1    
   187   95   96 1    
   188   95   97 1    
   189   95  216 1    
   190   96  217 1    
   191   96  218 1    
   192   96  219 1    
   193   97   98 2    
   194   97   99 am   BACKBONE|DICT|INTERRES
   195   99  100 1    
   196   99  220 1    
   197  100  101 1    
   198  100  102 1    
   199  100  221 1    
   200  101  222 1    
   201  101  223 1    
   202  101  224 1    
   203  102  103 2    
   204  102  104 am   BACKBONE|DICT|INTERRES
   205  104  105 1    
   206  104  225 1    
   207  105  106 1    
   208  105  107 1    
   209  105  226 1    
   210  106  227 1    
   211  106  228 1    
   212  106  229 1    
   213  107  108 2    
   214  107  109 am   BACKBONE|DICT|INTERRES
   215  109  110 1    
   216  109  230 1    
   217  110  111 1    
   218  110  112 1    
   219  110  231 1    
   220  111  232 1    
   221  111  233 1    
   222  111  234 1    
   223  112  113 2    
   224  112  114 am   BACKBONE|DICT|INTERRES
   225  114  115 1    
   226  114  235 1    
   227  115  116 1    
   228  115  117 1    
   229  115  236 1    
   230  116  237 1    
   231  116  238 1    
   232  116  239 1    
   233  117  118 2    
   234  117  119 am   BACKBONE|DICT|INTERRES
   235  119  120 1    
   236  119  240 1    
   237  120  121 1    
   238  120  124 1    
   239  120  241 1    
   240  121  122 am   BACKBONE|DICT|INTERRES
   241  121  123 2    
   242  122  242 1    
   243  122  243 1    
   244  124  125 1    
   245  124  244 1    
   246  124  245 1    
   247  125  126 1    
   248  126  246 1    
   249  126  247 1    
@<TRIPOS>SUBSTRUCTURE
     1 UNK         1 GROUP             0       ****    0 ROOT    
