@<TRIPOS>MOLECULE
3R540
247   249    1
SMALL
USER_CHARGES


@<TRIPOS>ATOM
      1 CA          4.5731  -10.1176  -47.8894 C.3       0 UNK        -0.1800 
      2 C           3.4500  -10.7813  -47.1076 C.2       0 UNK         0.5000 
      3 O           3.4079  -10.6658  -45.8832 O.2       0 UNK        -0.5000 
      4 N           2.5302  -11.4570  -47.8097 N.am      1 UNK        -0.5000 
      5 CA          1.4005  -12.2307  -47.2679 C.3       1 UNK         0.1400 
      6 C6          0.5833  -12.9010  -48.3979 C.3       23 UNK        -0.0398 
      7 S7          1.5504  -14.1043  -49.3755 S.3       23 UNK        -0.2404 
      8 C8          0.8960  -15.6733  -48.7256 C.3       23 UNK        -0.0205 
      9 C9          0.9618  -16.7994  -49.7433 C.ar      23 UNK        -0.0193 
     10 C10         0.1242  -16.7674  -50.8618 C.ar      23 UNK        -0.1150 
     11 C11         0.1080  -17.8291  -51.7687 C.ar      23 UNK        -0.0193 
     12 C12         0.9470  -18.9255  -51.5570 C.ar      23 UNK        -0.1150 
     13 C13         1.7865  -18.9722  -50.4401 C.ar      23 UNK        -0.0193 
     14 C14         1.7945  -17.9035  -49.5372 C.ar      23 UNK        -0.1150 
     15 C15         2.6623  -20.1927  -50.2021 C.3       23 UNK        -0.0205 
     16 S16         1.6749  -21.6500  -49.7331 S.3       23 UNK        -0.2404 
     17 C17         1.0465  -21.1458  -48.0964 C.3       23 UNK        -0.0398 
     18 CA          0.5316  -22.3465  -47.2666 C.3       11 UNK         0.1400 
     19 N           0.5198  -22.0651  -45.8301 N.am      11 UNK        -0.5000 
     20 C           0.2993  -22.9799  -44.8753 C.2       10 UNK         0.5000 
     21 O           0.1212  -24.1761  -45.1026 O.2       10 UNK        -0.5000 
     22 CA          0.2174  -22.4686  -43.4263 C.3       10 UNK         0.1400 
     23 CB          1.6215  -22.2562  -42.8423 C.3       10 UNK        -0.1800 
     24 N          -0.5651  -21.2373  -43.3054 N.am      10 UNK        -0.5000 
     25 C          -1.8708  -21.1405  -43.5960 C.2       9 UNK         0.5000 
     26 O          -2.5611  -22.0909  -43.9638 O.2       9 UNK        -0.5000 
     27 CA         -2.5053  -19.7416  -43.5039 C.3       9 UNK         0.1400 
     28 CB         -2.8127  -19.3740  -42.0448 C.3       9 UNK        -0.1800 
     29 N          -1.6739  -18.7012  -44.1082 N.am      9 UNK        -0.5000 
     30 C          -1.3308  -18.6526  -45.4037 C.2       8 UNK         0.5000 
     31 O          -1.7009  -19.4709  -46.2462 O.2       8 UNK        -0.5000 
     32 CA         -0.3587  -17.5307  -45.8110 C.3       8 UNK         0.1400 
     33 CB         -1.0786  -16.1730  -45.8678 C.3       8 UNK        -0.1800 
     34 N           0.7907  -17.4414  -44.9090 N.am      8 UNK        -0.5000 
     35 C           1.6690  -18.4319  -44.6928 C.2       7 UNK         0.5000 
     36 O           1.6467  -19.5091  -45.2844 O.2       7 UNK        -0.5000 
     37 CA          2.7155  -18.2045  -43.5913 C.3       7 UNK         0.1400 
     38 CB          3.9166  -17.4184  -44.1355 C.3       7 UNK        -0.1800 
     39 N           2.1402  -17.5170  -42.4349 N.am      7 UNK        -0.5000 
     40 C           1.2584  -18.0762  -41.5923 C.2       6 UNK         0.5000 
     41 O           0.8743  -19.2420  -41.6805 O.2       6 UNK        -0.5000 
     42 CA          0.6736  -17.1672  -40.4960 C.3       6 UNK         0.1400 
     43 CB          1.6226  -17.0895  -39.2910 C.3       6 UNK        -0.1800 
     44 N           0.3944  -15.8165  -40.9842 N.am      6 UNK        -0.5000 
     45 C          -0.5411  -15.5208  -41.8979 C.2       5 UNK         0.5000 
     46 O          -1.3129  -16.3524  -42.3749 O.2       5 UNK        -0.5000 
     47 CA         -0.5862  -14.0640  -42.3970 C.3       5 UNK         0.1400 
     48 CB         -1.5419  -13.2228  -41.5392 C.3       5 UNK        -0.1800 
     49 N           0.7306  -13.4235  -42.4202 N.am      5 UNK        -0.5000 
     50 C           1.7552  -13.8027  -43.1940 C.2       4 UNK         0.5000 
     51 O           1.6994  -14.7648  -43.9626 O.2       4 UNK        -0.5000 
     52 CA          3.0503  -12.9741  -43.0690 C.3       4 UNK         0.1400 
     53 CB          4.1480  -13.4325  -44.0450 C.3       4 UNK        -0.1800 
     54 N           2.8062  -11.5492  -43.2821 N.am      4 UNK        -0.5000 
     55 C           2.3353  -10.6850  -42.3738 C.2       3 UNK         0.5000 
     56 O           2.0128  -11.0083  -41.2299 O.2       3 UNK        -0.5000 
     57 CA          2.1614   -9.2312  -42.8381 C.3       3 UNK         0.1400 
     58 CB          3.5227   -8.5274  -42.9556 C.3       3 UNK        -0.1800 
     59 N           1.4826   -9.1937  -44.1313 N.am      3 UNK        -0.5000 
     60 C           0.1620   -9.0362  -44.2929 C.2       2 UNK         0.5000 
     61 O          -0.6204   -8.8083  -43.3695 O.2       2 UNK        -0.5000 
     62 CA         -0.3834   -9.1648  -45.7294 C.3       2 UNK         0.1400 
     63 CB         -0.4180   -7.7918  -46.4177 C.3       2 UNK        -0.1800 
     64 N           0.3892  -10.0943  -46.5556 N.am      2 UNK        -0.5000 
     65 C           0.4477  -11.4197  -46.3601 C.2       1 UNK         0.5000 
     66 O          -0.2099  -12.0081  -45.5021 O.2       1 UNK        -0.5000 
     67 C          -0.8432  -22.8424  -47.7583 C.2       11 UNK         0.5000 
     68 O          -0.9010  -23.8453  -48.4678 O.2       11 UNK        -0.5000 
     69 N          -1.9270  -22.1792  -47.3286 N.am      12 UNK        -0.5000 
     70 CA         -3.3035  -22.5787  -47.6247 C.3       12 UNK         0.1400 
     71 CB         -4.2784  -21.4950  -47.1437 C.3       12 UNK        -0.1800 
     72 C          -3.6719  -23.9560  -47.0488 C.2       12 UNK         0.5000 
     73 O          -4.2850  -24.7558  -47.7560 O.2       12 UNK        -0.5000 
     74 N          -3.2559  -24.2268  -45.8045 N.am      13 UNK        -0.5000 
     75 CA         -3.4310  -25.5175  -45.1373 C.3       13 UNK         0.1400 
     76 CB         -3.0273  -25.3923  -43.6605 C.3       13 UNK        -0.1800 
     77 C          -2.6547  -26.6582  -45.8222 C.2       13 UNK         0.5000 
     78 O          -3.1838  -27.7641  -45.9357 O.2       13 UNK        -0.5000 
     79 N          -1.4285  -26.3679  -46.2787 N.am      14 UNK        -0.5000 
     80 CA         -0.5817  -27.2972  -47.0260 C.3       14 UNK         0.1400 
     81 CB          0.8540  -26.7526  -47.0826 C.3       14 UNK        -0.1800 
     82 C          -1.1164  -27.5759  -48.4426 C.2       14 UNK         0.5000 
     83 O          -1.1196  -28.7303  -48.8720 O.2       14 UNK        -0.5000 
     84 N          -1.5562  -26.5187  -49.1395 N.am      15 UNK        -0.5000 
     85 CA         -2.1148  -26.5822  -50.4897 C.3       15 UNK         0.1400 
     86 CB         -2.2233  -25.1597  -51.0613 C.3       15 UNK        -0.1800 
     87 C          -3.4811  -27.2884  -50.5384 C.2       15 UNK         0.5000 
     88 O          -3.7219  -28.0680  -51.4598 O.2       15 UNK        -0.5000 
     89 N          -4.3352  -26.9889  -49.5485 N.am      16 UNK        -0.5000 
     90 CA         -5.6882  -27.5077  -49.3222 C.3       16 UNK         0.1400 
     91 CB         -5.5932  -28.9241  -48.7198 C.3       16 UNK        -0.1800 
     92 C          -6.6024  -27.4517  -50.5728 C.2       16 UNK         0.5000 
     93 O          -7.0166  -28.5008  -51.0665 O.2       16 UNK        -0.5000 
     94 N          -6.9218  -26.2718  -51.1234 N.am      17 UNK        -0.5000 
     95 CA         -6.5798  -24.9199  -50.6782 C.3       17 UNK         0.1400 
     96 CB         -7.7313  -24.3440  -49.8351 C.3       17 UNK        -0.1800 
     97 C          -6.2349  -24.0618  -51.9069 C.2       17 UNK         0.5000 
     98 O          -6.7176  -22.9365  -52.0411 O.2       17 UNK        -0.5000 
     99 N          -5.3916  -24.6150  -52.7930 N.am      18 UNK        -0.5000 
    100 CA        -4.9670  -24.0218  -54.0694 C.3       18 UNK         0.1400 
    101 CB        -4.1026  -25.0329  -54.8375 C.3       18 UNK        -0.1800 
    102 C         -4.2458  -22.6616  -53.9585 C.2       18 UNK         0.5000 
    103 O         -4.1556  -21.9437  -54.9557 O.2       18 UNK        -0.5000 
    104 N         -3.8048  -22.2869  -52.7487 N.am      19 UNK        -0.5000 
    105 CA        -3.2913  -20.9555  -52.4176 C.3       19 UNK         0.1400 
    106 CB        -2.7453  -20.9573  -50.9827 C.3       19 UNK        -0.1800 
    107 C         -4.3321  -19.8264  -52.5980 C.2       19 UNK         0.5000 
    108 O         -3.9425  -18.6669  -52.7218 O.2       19 UNK        -0.5000 
    109 N         -5.6280  -20.1726  -52.6556 N.am      20 UNK        -0.5000 
    110 CA        -6.7070  -19.2629  -53.0466 C.3       20 UNK         0.1400 
    111 CB        -8.0582  -19.9550  -52.8137 C.3       20 UNK        -0.1800 
    112 C         -6.5891  -18.7827  -54.5097 C.2       20 UNK         0.5000 
    113 O         -6.9938  -17.6584  -54.8082 O.2       20 UNK        -0.5000 
    114 N         -6.0249  -19.6285  -55.3844 N.am      21 UNK        -0.5000 
    115 CA        -5.6889  -19.2928  -56.7678 C.3       21 UNK         0.1400 
    116 CB        -5.9113  -20.5245  -57.6599 C.3       21 UNK        -0.1800 
    117 C         -4.2365  -18.7952  -56.8786 C.2       21 UNK         0.5000 
    118 O         -3.9796  -17.8412  -57.6134 O.2       21 UNK        -0.5000 
    119 N         -3.3211  -19.4384  -56.1381 N.am      22 UNK        -0.5000 
    120 CA        -1.8766  -19.1423  -56.0911 C.3       22 UNK         0.1400 
    121 C         -1.0919  -19.5500  -57.3779 C.2       22 UNK         0.5000 
    122 N         -1.6355  -20.4055  -58.2357 N.am      22 UNK        -0.7600 
    123 O          0.0332  -19.1108  -57.5989 O.2       22 UNK        -0.5000 
    124 C124       -1.5768  -17.6890  -55.6104 C.3       23 UNK        -0.0398 
    125 S125       -0.0983  -17.5627  -54.5411 S.3       23 UNK        -0.2404 
    126 C126       -0.8780  -17.8317  -52.9235 C.3       23 UNK        -0.0205 
    127 H127        4.5644   -9.0414  -47.7162 H         1 UNK         0.0600 
    128 H128        4.4797  -10.2919  -48.9616 H         1 UNK         0.0600 
    129 H129        5.5366  -10.5088  -47.5629 H         1 UNK         0.0600 
    130 H130        2.6337  -11.5108  -48.8133 H         1 UNK         0.3000 
    131 H131        1.8244  -13.0184  -46.6414 H         1 UNK         0.0600 
    132 H132       -0.3020  -13.3933  -47.9919 H         1 UNK         0.0800 
    133 H133        0.2031  -12.1434  -49.0856 H         1 UNK         0.0800 
    134 H134       -0.1513  -15.5542  -48.4514 H         1 UNK         0.0800 
    135 H135        1.4346  -15.9318  -47.8124 H         1 UNK         0.0800 
    136 H136       -0.5369  -15.9246  -51.0083 H         1 UNK         0.1150 
    137 H137        0.9253  -19.7579  -52.2465 H         1 UNK         0.1150 
    138 H138        2.4295  -17.9424  -48.6631 H         1 UNK         0.1150 
    139 H139        3.2145  -20.4194  -51.1152 H         1 UNK         0.0800 
    140 H140        3.4108  -19.9947  -49.4333 H         1 UNK         0.0800 
    141 H141        0.2802  -20.3766  -48.2122 H         1 UNK         0.0800 
    142 H142        1.8767  -20.6702  -47.5742 H         1 UNK         0.0800 
    143 H143        1.2360  -23.1702  -47.4026 H         1 UNK         0.0600 
    144 H144        0.7059  -21.1033  -45.5560 H         1 UNK         0.3000 
    145 H145       -0.2819  -23.2370  -42.8326 H         1 UNK         0.0600 
    146 H146        1.5722  -21.9703  -41.7916 H         1 UNK         0.0600 
    147 H147        2.2119  -23.1713  -42.9030 H         1 UNK         0.0600 
    148 H148        2.1666  -21.4778  -43.3761 H         1 UNK         0.0600 
    149 H149       -0.0739  -20.4179  -42.9613 H         1 UNK         0.3000 
    150 H150       -3.4490  -19.7701  -44.0524 H         1 UNK         0.0600 
    151 H151       -3.4473  -20.1278  -41.5771 H         1 UNK         0.0600 
    152 H152       -3.3382  -18.4210  -41.9816 H         1 UNK         0.0600 
    153 H153       -1.9034  -19.2929  -41.4487 H         1 UNK         0.0600 
    154 H154       -1.3540  -17.9609  -43.4903 H         1 UNK         0.3000 
    155 H155        0.0224  -17.7643  -46.8069 H         1 UNK         0.0600 
    156 H156       -1.6050  -15.9503  -44.9408 H         1 UNK         0.0600 
    157 H157       -0.3816  -15.3549  -46.0506 H         1 UNK         0.0600 
    158 H158       -1.8197  -16.1625  -46.6676 H         1 UNK         0.0600 
    159 H159        0.9215  -16.5650  -44.4139 H         1 UNK         0.3000 
    160 H160        3.0757  -19.1802  -43.2588 H         1 UNK         0.0600 
    161 H161        4.4360  -17.9936  -44.9028 H         1 UNK         0.0600 
    162 H162        3.6109  -16.4778  -44.5921 H         1 UNK         0.0600 
    163 H163        4.6388  -17.1973  -43.3495 H         1 UNK         0.0600 
    164 H164        2.3602  -16.5377  -42.3330 H         1 UNK         0.3000 
    165 H165       -0.2673  -17.6101  -40.1624 H         1 UNK         0.0600 
    166 H166        1.1834  -16.5073  -38.4807 H         1 UNK         0.0600 
    167 H167        1.8341  -18.0845  -38.8972 H         1 UNK         0.0600 
    168 H168        2.5764  -16.6313  -39.5557 H         1 UNK         0.0600 
    169 H169        0.9815  -15.0718  -40.6389 H         1 UNK         0.3000 
    170 H170       -0.9667  -14.0759  -43.4203 H         1 UNK         0.0600 
    171 H171       -2.5401  -13.6625  -41.5214 H         1 UNK         0.0600 
    172 H172       -1.1965  -13.1465  -40.5075 H         1 UNK         0.0600 
    173 H173       -1.6394  -12.2121  -41.9368 H         1 UNK         0.0600 
    174 H174        0.8646  -12.6149  -41.8232 H         1 UNK         0.3000 
    175 H175        3.4297  -13.1171  -42.0552 H         1 UNK         0.0600 
    176 H176        3.8070  -13.4050  -45.0806 H         1 UNK         0.0600 
    177 H177        5.0327  -12.8000  -43.9694 H         1 UNK         0.0600 
    178 H178        4.4642  -14.4514  -43.8249 H         1 UNK         0.0600 
    179 H179        3.0240  -11.2023  -44.2143 H         1 UNK         0.3000 
    180 H180        1.5734   -8.7018  -42.0854 H         1 UNK         0.0600 
    181 H181        4.1637   -9.0010  -43.7004 H         1 UNK         0.0600 
    182 H182        4.0549   -8.5464  -42.0037 H         1 UNK         0.0600 
    183 H183        3.3998   -7.4819  -43.2386 H         1 UNK         0.0600 
    184 H184        2.0451   -9.4361  -44.9387 H         1 UNK         0.3000 
    185 H185       -1.4069   -9.5400  -45.6624 H         1 UNK         0.0600 
    186 H186       -0.8706   -7.8575  -47.4073 H         1 UNK         0.0600 
    187 H187       -1.0076   -7.0798  -45.8386 H         1 UNK         0.0600 
    188 H188        0.5827   -7.3731  -46.5320 H         1 UNK         0.0600 
    189 H189        0.9584   -9.6915  -47.2856 H         1 UNK         0.3000 
    190 H190       -1.8054  -21.3407  -46.7669 H         1 UNK         0.3000 
    191 H191       -3.3959  -22.6625  -48.7073 H         1 UNK         0.0600 
    192 H192       -4.2133  -21.3446  -46.0658 H         1 UNK         0.0600 
    193 H193       -5.3091  -21.7639  -47.3782 H         1 UNK         0.0600 
    194 H194       -4.0727  -20.5393  -47.6264 H         1 UNK         0.0600 
    195 H195       -2.8003  -23.4935  -45.2677 H         1 UNK         0.3000 
    196 H196       -4.4925  -25.7704  -45.1776 H         1 UNK         0.0600 
    197 H197       -3.1690  -26.3374  -43.1348 H         1 UNK         0.0600 
    198 H198       -3.6308  -24.6418  -43.1497 H         1 UNK         0.0600 
    199 H199       -1.9802  -25.1089  -43.5519 H         1 UNK         0.0600 
    200 H200       -1.0385  -25.4501  -46.0866 H         1 UNK         0.3000 
    201 H201       -0.5604  -28.2457  -46.4853 H         1 UNK         0.0600 
    202 H202        1.2674  -26.6290  -46.0815 H         1 UNK         0.0600 
    203 H203        0.8995  -25.7852  -47.5837 H         1 UNK         0.0600 
    204 H204        1.5103  -27.4351  -47.6240 H         1 UNK         0.0600 
    205 H205       -1.4518  -25.5893  -48.7376 H         1 UNK         0.3000 
    206 H206       -1.4220  -27.1485  -51.1157 H         1 UNK         0.0600 
    207 H207       -1.2479  -24.6740  -51.0967 H         1 UNK         0.0600 
    208 H208       -2.6098  -25.1767  -52.0785 H         1 UNK         0.0600 
    209 H209       -2.8857  -24.5336  -50.4626 H         1 UNK         0.0600 
    210 H210       -4.0415  -26.2921  -48.8686 H         1 UNK         0.3000 
    211 H211       -6.1476  -26.8663  -48.5690 H         1 UNK         0.0600 
    212 H212       -5.1187  -29.6248  -49.4077 H         1 UNK         0.0600 
    213 H213       -6.5820  -29.3158  -48.4781 H         1 UNK         0.0600 
    214 H214       -5.0124  -28.9192  -47.7972 H         1 UNK         0.0600 
    215 H215       -7.4868  -26.2937  -51.9607 H         1 UNK         0.3000 
    216 H216       -5.6851  -24.9119  -50.0607 H         1 UNK         0.0600 
    217 H217       -7.4921  -23.3415  -49.4778 H         1 UNK         0.0600 
    218 H218       -7.9252  -24.9606  -48.9574 H         1 UNK         0.0600 
    219 H219       -8.6558  -24.2783  -50.4099 H         1 UNK         0.0600 
    220 H220       -5.0691  -25.5553  -52.6139 H         1 UNK         0.3000 
    221 H221       -5.8717  -23.8439  -54.6541 H         1 UNK         0.0600 
    222 H222       -3.1731  -25.2564  -54.3147 H         1 UNK         0.0600 
    223 H223       -4.6352  -25.9714  -54.9928 H         1 UNK         0.0600 
    224 H224       -3.8360  -24.6479  -55.8229 H         1 UNK         0.0600 
    225 H225       -3.9320  -22.9266  -51.9806 H         1 UNK         0.3000 
    226 H226       -2.4641  -20.7595  -53.1007 H         1 UNK         0.0600 
    227 H227       -2.0451  -21.7769  -50.8167 H         1 UNK         0.0600 
    228 H228       -2.2130  -20.0297  -50.7675 H         1 UNK         0.0600 
    229 H229       -3.5534  -21.0403  -50.2569 H         1 UNK         0.0600 
    230 H230       -5.8901  -21.1410  -52.5002 H         1 UNK         0.3000 
    231 H231       -6.6570  -18.3827  -52.4024 H         1 UNK         0.0600 
    232 H232       -8.8865  -19.2904  -53.0625 H         1 UNK         0.0600 
    233 H233       -8.1769  -20.2474  -51.7702 H         1 UNK         0.0600 
    234 H234       -8.1604  -20.8524  -53.4253 H         1 UNK         0.0600 
    235 H235       -5.6857  -20.5207  -55.0477 H         1 UNK         0.3000 
    236 H236       -6.3455  -18.4978  -57.1278 H         1 UNK         0.0600 
    237 H237       -6.9499  -20.8534  -57.6220 H         1 UNK         0.0600 
    238 H238       -5.6805  -20.2975  -58.7015 H         1 UNK         0.0600 
    239 H239       -5.2843  -21.3649  -57.3605 H         1 UNK         0.0600 
    240 H240       -3.6162  -20.2623  -55.6219 H         1 UNK         0.3000 
    241 H241       -1.5025  -19.8234  -55.3264 H         1 UNK         0.0600 
    242 H242       -1.1230  -20.6726  -59.0617 H         1 UNK         0.3800 
    243 H243       -2.5504  -20.7911  -58.0661 H         1 UNK         0.3800 
    244 H244       -1.4593  -17.0139  -56.4597 H         1 UNK         0.0800 
    245 H245       -2.4250  -17.2938  -55.0493 H         1 UNK         0.0800 
    246 H246       -1.6557  -17.0829  -52.7640 H         1 UNK         0.0800 
    247 H247       -1.3758  -18.7971  -52.9413 H         1 UNK         0.0800 
@<TRIPOS>BOND
     1    1    2 1    
     2    1  127 1    
     3    1  128 1    
     4    1  129 1    
     5    2    3 2    
     6    2    4 am   BACKBONE|DICT|INTERRES
     7    4    5 1    
     8    4  130 1    
     9    5    6 1    
    10    5   65 1    
    11    5  131 1    
    12    6    7 1    
    13    6  132 1    
    14    6  133 1    
    15    7    8 1    
    16    8    9 1    
    17    8  134 1    
    18    8  135 1    
    19    9   10 ar   
    20    9   14 ar   
    21   10   11 ar   
    22   10  136 1    
    23   11   12 ar   
    24   11  126 1    
    25   12   13 ar   
    26   12  137 1    
    27   13   14 ar   
    28   13   15 1    
    29   14  138 1    
    30   15   16 1    
    31   15  139 1    
    32   15  140 1    
    33   16   17 1    
    34   17   18 1    
    35   17  141 1    
    36   17  142 1    
    37   18   19 1    
    38   18   67 1    
    39   18  143 1    
    40   19   20 am   BACKBONE|DICT|INTERRES
    41   19  144 1    
    42   20   21 2    
    43   20   22 1    
    44   22   23 1    
    45   22   24 1    
    46   22  145 1    
    47   23  146 1    
    48   23  147 1    
    49   23  148 1    
    50   24   25 am   BACKBONE|DICT|INTERRES
    51   24  149 1    
    52   25   26 2    
    53   25   27 1    
    54   27   28 1    
    55   27   29 1    
    56   27  150 1    
    57   28  151 1    
    58   28  152 1    
    59   28  153 1    
    60   29   30 am   BACKBONE|DICT|INTERRES
    61   29  154 1    
    62   30   31 2    
    63   30   32 1    
    64   32   33 1    
    65   32   34 1    
    66   32  155 1    
    67   33  156 1    
    68   33  157 1    
    69   33  158 1    
    70   34   35 am   BACKBONE|DICT|INTERRES
    71   34  159 1    
    72   35   36 2    
    73   35   37 1    
    74   37   38 1    
    75   37   39 1    
    76   37  160 1    
    77   38  161 1    
    78   38  162 1    
    79   38  163 1    
    80   39   40 am   BACKBONE|DICT|INTERRES
    81   39  164 1    
    82   40   41 2    
    83   40   42 1    
    84   42   43 1    
    85   42   44 1    
    86   42  165 1    
    87   43  166 1    
    88   43  167 1    
    89   43  168 1    
    90   44   45 am   BACKBONE|DICT|INTERRES
    91   44  169 1    
    92   45   46 2    
    93   45   47 1    
    94   47   48 1    
    95   47   49 1    
    96   47  170 1    
    97   48  171 1    
    98   48  172 1    
    99   48  173 1    
   100   49   50 am   BACKBONE|DICT|INTERRES
   101   49  174 1    
   102   50   51 2    
   103   50   52 1    
   104   52   53 1    
   105   52   54 1    
   106   52  175 1    
   107   53  176 1    
   108   53  177 1    
   109   53  178 1    
   110   54   55 am   BACKBONE|DICT|INTERRES
   111   54  179 1    
   112   55   56 2    
   113   55   57 1    
   114   57   58 1    
   115   57   59 1    
   116   57  180 1    
   117   58  181 1    
   118   58  182 1    
   119   58  183 1    
   120   59   60 am   BACKBONE|DICT|INTERRES
   121   59  184 1    
   122   60   61 2    
   123   60   62 1    
   124   62   63 1    
   125   62   64 1    
   126   62  185 1    
   127   63  186 1    
   128   63  187 1    
   129   63  188 1    
   130   64   65 am   BACKBONE|DICT|INTERRES
   131   64  189 1    
   132   65   66 2    
   133   67   68 2    
   134   67   69 am   BACKBONE|DICT|INTERRES
   135   69   70 1    
   136   69  190 1    
   137   70   71 1    
   138   70   72 1    
   139   70  191 1    
   140   71  192 1    
   141   71  193 1    
   142   71  194 1    
   143   72   73 2    
   144   72   74 am   BACKBONE|DICT|INTERRES
   145   74   75 1    
   146   74  195 1    
   147   75   76 1    
   148   75   77 1    
   149   75  196 1    
   150   76  197 1    
   151   76  198 1    
   152   76  199 1    
   153   77   78 2    
   154   77   79 am   BACKBONE|DICT|INTERRES
   155   79   80 1    
   156   79  200 1    
   157   80   81 1    
   158   80   82 1    
   159   80  201 1    
   160   81  202 1    
   161   81  203 1    
   162   81  204 1    
   163   82   83 2    
   164   82   84 am   BACKBONE|DICT|INTERRES
   165   84   85 1    
   166   84  205 1    
   167   85   86 1    
   168   85   87 1    
   169   85  206 1    
   170   86  207 1    
   171   86  208 1    
   172   86  209 1    
   173   87   88 2    
   174   87   89 am   BACKBONE|DICT|INTERRES
   175   89   90 1    
   176   89  210 1    
   177   90   91 1    
   178   90   92 1    
   179   90  211 1    
   180   91  212 1    
   181   91  213 1    
   182   91  214 1    
   183   92   93 2    
   184   92   94 am   BACKBONE|DICT|INTERRES
   185   94   95 1    
   186   94  215 1    
   187   95   96 1    
   188   95   97 1    
   189   95  216 1    
   190   96  217 1    
   191   96  218 1    
   192   96  219 1    
   193   97   98 2    
   194   97   99 am   BACKBONE|DICT|INTERRES
   195   99  100 1    
   196   99  220 1    
   197  100  101 1    
   198  100  102 1    
   199  100  221 1    
   200  101  222 1    
   201  101  223 1    
   202  101  224 1    
   203  102  103 2    
   204  102  104 am   BACKBONE|DICT|INTERRES
   205  104  105 1    
   206  104  225 1    
   207  105  106 1    
   208  105  107 1    
   209  105  226 1    
   210  106  227 1    
   211  106  228 1    
   212  106  229 1    
   213  107  108 2    
   214  107  109 am   BACKBONE|DICT|INTERRES
   215  109  110 1    
   216  109  230 1    
   217  110  111 1    
   218  110  112 1    
   219  110  231 1    
   220  111  232 1    
   221  111  233 1    
   222  111  234 1    
   223  112  113 2    
   224  112  114 am   BACKBONE|DICT|INTERRES
   225  114  115 1    
   226  114  235 1    
   227  115  116 1    
   228  115  117 1    
   229  115  236 1    
   230  116  237 1    
   231  116  238 1    
   232  116  239 1    
   233  117  118 2    
   234  117  119 am   BACKBONE|DICT|INTERRES
   235  119  120 1    
   236  119  240 1    
   237  120  121 1    
   238  120  124 1    
   239  120  241 1    
   240  121  122 am   BACKBONE|DICT|INTERRES
   241  121  123 2    
   242  122  242 1    
   243  122  243 1    
   244  124  125 1    
   245  124  244 1    
   246  124  245 1    
   247  125  126 1    
   248  126  246 1    
   249  126  247 1    
@<TRIPOS>SUBSTRUCTURE
     1 UNK         1 GROUP             0       ****    0 ROOT    
