@<TRIPOS>MOLECULE
3R540
247   249    1
SMALL
USER_CHARGES


@<TRIPOS>ATOM
      1 CA         -3.7977   -9.3388  -47.5374 C.3       0 UNK        -0.1800 
      2 C          -2.5828  -10.2475  -47.4272 C.2       0 UNK         0.5000 
      3 O          -1.5042   -9.7873  -47.0539 O.2       0 UNK        -0.5000 
      4 N          -2.7502  -11.5415  -47.7285 N.am      1 UNK        -0.5000 
      5 CA         -1.6914  -12.5587  -47.6855 C.3       1 UNK         0.1400 
      6 C6         -2.1146  -13.8879  -48.3550 C.3       23 UNK        -0.0398 
      7 S7         -3.6851  -14.5843  -47.7352 S.3       23 UNK        -0.2404 
      8 C8         -3.9937  -15.8791  -48.9774 C.3       23 UNK        -0.0205 
      9 C9         -3.0150  -17.0374  -48.8505 C.ar      23 UNK        -0.0193 
     10 C10        -1.8451  -17.0629  -49.6152 C.ar      23 UNK        -0.1150 
     11 C11        -0.9514  -18.1324  -49.5114 C.ar      23 UNK        -0.0193 
     12 C12        -1.2377  -19.1860  -48.6387 C.ar      23 UNK        -0.1150 
     13 C13        -2.4138  -19.1805  -47.8844 C.ar      23 UNK        -0.0193 
     14 C14        -3.2931  -18.0989  -47.9857 C.ar      23 UNK        -0.1150 
     15 C15        -2.7560  -20.3608  -46.9929 C.3       23 UNK        -0.0205 
     16 S16        -1.8381  -20.3042  -45.4273 S.3       23 UNK        -0.2404 
     17 C17        -2.6565  -21.6616  -44.5265 C.3       23 UNK        -0.0398 
     18 CA         -2.0099  -23.0379  -44.8093 C.3       11 UNK         0.1400 
     19 N          -0.6153  -23.1069  -44.3540 N.am      11 UNK        -0.5000 
     20 C           0.2318  -24.1148  -44.6148 C.2       10 UNK         0.5000 
     21 O          -0.0750  -25.0872  -45.3039 O.2       10 UNK        -0.5000 
     22 CA          1.6280  -24.0783  -43.9601 C.3       10 UNK         0.1400 
     23 CB          2.6732  -23.5829  -44.9700 C.3       10 UNK        -0.1800 
     24 N           1.7052  -23.2513  -42.7546 N.am      10 UNK        -0.5000 
     25 C           0.9754  -23.4058  -41.6396 C.2       9 UNK         0.5000 
     26 O           0.1899  -24.3375  -41.4627 O.2       9 UNK        -0.5000 
     27 CA          1.0935  -22.2924  -40.5754 C.3       9 UNK         0.1400 
     28 CB          2.0617  -22.7167  -39.4613 C.3       9 UNK        -0.1800 
     29 N           1.5185  -20.9904  -41.1113 N.am      9 UNK        -0.5000 
     30 C           0.8795  -20.3051  -42.0707 C.2       8 UNK         0.5000 
     31 O          -0.1665  -20.6968  -42.5926 O.2       8 UNK        -0.5000 
     32 CA          1.5416  -19.0083  -42.5658 C.3       8 UNK         0.1400 
     33 CB          3.0245  -19.2284  -42.9371 C.3       8 UNK        -0.1800 
     34 N           0.8077  -18.5215  -43.7316 N.am      8 UNK        -0.5000 
     35 C           0.8809  -17.2901  -44.2416 C.2       7 UNK         0.5000 
     36 O           1.5359  -16.3756  -43.7332 O.2       7 UNK        -0.5000 
     37 CA          0.0768  -17.0324  -45.5285 C.3       7 UNK         0.1400 
     38 CB         -1.3268  -16.5055  -45.1995 C.3       7 UNK        -0.1800 
     39 N           0.7744  -16.0561  -46.3600 N.am      7 UNK        -0.5000 
     40 C           1.8224  -16.3465  -47.1439 C.2       6 UNK         0.5000 
     41 O           2.2067  -17.4909  -47.3850 O.2       6 UNK        -0.5000 
     42 CA          2.6016  -15.1489  -47.7141 C.3       6 UNK         0.1400 
     43 CB          1.9403  -14.6135  -48.9935 C.3       6 UNK        -0.1800 
     44 N           2.6838  -14.0756  -46.7272 N.am      6 UNK        -0.5000 
     45 C           3.5559  -14.0320  -45.7119 C.2       5 UNK         0.5000 
     46 O           4.4956  -14.8194  -45.5858 O.2       5 UNK        -0.5000 
     47 CA          3.3166  -12.9278  -44.6591 C.3       5 UNK         0.1400 
     48 CB          4.5815  -12.5708  -43.8511 C.3       5 UNK        -0.1800 
     49 N           2.6880  -11.7270  -45.2210 N.am      5 UNK        -0.5000 
     50 C           3.1924  -10.8858  -46.1373 C.2       4 UNK         0.5000 
     51 O           4.3260  -10.9797  -46.6088 O.2       4 UNK        -0.5000 
     52 CA          2.2643   -9.7585  -46.6367 C.3       4 UNK         0.1400 
     53 CB          1.7761  -10.0696  -48.0602 C.3       4 UNK        -0.1800 
     54 N           1.0962   -9.5411  -45.7805 N.am      4 UNK        -0.5000 
     55 C           1.1240   -8.9716  -44.5677 C.2       3 UNK         0.5000 
     56 O           2.1380   -8.4971  -44.0552 O.2       3 UNK        -0.5000 
     57 CA         -0.1990   -8.9757  -43.7818 C.3       3 UNK         0.1400 
     58 CB         -1.0749   -7.7751  -44.1722 C.3       3 UNK        -0.1800 
     59 N          -0.9498  -10.2173  -43.9838 N.am      3 UNK        -0.5000 
     60 C          -0.6212  -11.3988  -43.4415 C.2       2 UNK         0.5000 
     61 O           0.3382  -11.5607  -42.6881 O.2       2 UNK        -0.5000 
     62 CA         -1.4883  -12.6097  -43.8312 C.3       2 UNK         0.1400 
     63 CB         -2.7237  -12.7119  -42.9249 C.3       2 UNK        -0.1800 
     64 N          -1.9170  -12.5610  -45.2292 N.am      2 UNK        -0.5000 
     65 C          -1.1102  -12.7893  -46.2741 C.2       1 UNK         0.5000 
     66 O           0.0644  -13.1415  -46.1610 O.2       1 UNK        -0.5000 
     67 C          -2.8972  -24.1730  -44.2488 C.2       11 UNK         0.5000 
     68 O          -3.9424  -24.4547  -44.8343 O.2       11 UNK        -0.5000 
     69 N          -2.4727  -24.8209  -43.1528 N.am      12 UNK        -0.5000 
     70 CA         -3.1178  -26.0174  -42.6104 C.3       12 UNK         0.1400 
     71 CB         -2.6445  -26.2300  -41.1645 C.3       12 UNK        -0.1800 
     72 C          -2.8486  -27.2806  -43.4552 C.2       12 UNK         0.5000 
     73 O          -3.6486  -28.2158  -43.4034 O.2       12 UNK        -0.5000 
     74 N          -1.7343  -27.2958  -44.2003 N.am      13 UNK        -0.5000 
     75 CA         -1.3123  -28.4081  -45.0512 C.3       13 UNK         0.1400 
     76 CB          0.1989  -28.6267  -44.8729 C.3       13 UNK        -0.1800 
     77 C          -1.6461  -28.1567  -46.5316 C.2       13 UNK         0.5000 
     78 O          -2.0094  -29.1008  -47.2349 O.2       13 UNK        -0.5000 
     79 N          -1.5029  -26.9032  -46.9844 N.am      14 UNK        -0.5000 
     80 CA         -1.7565  -26.4699  -48.3584 C.3       14 UNK         0.1400 
     81 CB         -1.2807  -25.0173  -48.5228 C.3       14 UNK        -0.1800 
     82 C          -3.2377  -26.5914  -48.7629 C.2       14 UNK         0.5000 
     83 O          -4.1282  -26.3637  -47.9404 O.2       14 UNK        -0.5000 
     84 N          -3.4660  -26.9157  -50.0402 N.am      15 UNK        -0.5000 
     85 CA         -4.7838  -26.9244  -50.6726 C.3       15 UNK         0.1400 
     86 CB         -4.6947  -27.7436  -51.9706 C.3       15 UNK        -0.1800 
     87 C          -5.2647  -25.4952  -50.9821 C.2       15 UNK         0.5000 
     88 O          -4.4462  -24.5790  -51.0926 O.2       15 UNK        -0.5000 
     89 N          -6.5783  -25.3386  -51.1911 N.am      16 UNK        -0.5000 
     90 CA         -7.2078  -24.0720  -51.5808 C.3       16 UNK         0.1400 
     91 CB         -8.7338  -24.2441  -51.5988 C.3       16 UNK        -0.1800 
     92 C          -6.7058  -23.5382  -52.9370 C.2       16 UNK         0.5000 
     93 O          -6.5398  -22.3291  -53.0915 O.2       16 UNK        -0.5000 
     94 N          -6.4266  -24.4531  -53.8766 N.am      17 UNK        -0.5000 
     95 CA         -5.8331  -24.1470  -55.1788 C.3       17 UNK         0.1400 
     96 CB         -5.9084  -25.3906  -56.0769 C.3       17 UNK        -0.1800 
     97 C          -4.3809  -23.6486  -55.0631 C.2       17 UNK         0.5000 
     98 O          -3.9951  -22.7311  -55.7868 O.2       17 UNK        -0.5000 
     99 N          -3.6134  -24.2348  -54.1329 N.am      18 UNK        -0.5000 
    100 CA        -2.2426  -23.8279  -53.8241 C.3       18 UNK         0.1400 
    101 CB        -1.5534  -24.9030  -52.9688 C.3       18 UNK        -0.1800 
    102 C         -2.2041  -22.4538  -53.1357 C.2       18 UNK         0.5000 
    103 O         -1.4056  -21.6066  -53.5318 O.2       18 UNK        -0.5000 
    104 N         -3.1085  -22.2456  -52.1667 N.am      19 UNK        -0.5000 
    105 CA        -3.3175  -20.9765  -51.4654 C.3       19 UNK         0.1400 
    106 CB        -4.3500  -21.1785  -50.3465 C.3       19 UNK        -0.1800 
    107 C         -3.7429  -19.8296  -52.4037 C.2       19 UNK         0.5000 
    108 O         -3.3195  -18.6917  -52.2083 O.2       19 UNK        -0.5000 
    109 N         -4.5516  -20.1481  -53.4241 N.am      20 UNK        -0.5000 
    110 CA        -4.9191  -19.2221  -54.4931 C.3       20 UNK         0.1400 
    111 CB        -6.0903  -19.7996  -55.3023 C.3       20 UNK        -0.1800 
    112 C         -3.7262  -18.8871  -55.4079 C.2       20 UNK         0.5000 
    113 O         -3.5221  -17.7150  -55.7264 O.2       20 UNK        -0.5000 
    114 N         -2.9506  -19.9102  -55.7978 N.am      21 UNK        -0.5000 
    115 CA        -1.7990  -19.7956  -56.6972 C.3       21 UNK         0.1400 
    116 CB        -1.2659  -21.1942  -57.0438 C.3       21 UNK        -0.1800 
    117 C         -0.6682  -18.8952  -56.1635 C.2       21 UNK         0.5000 
    118 O         -0.0871  -18.1413  -56.9458 O.2       21 UNK        -0.5000 
    119 N         -0.3924  -18.9618  -54.8542 N.am      22 UNK        -0.5000 
    120 CA         0.5477  -18.0607  -54.1614 C.3       22 UNK         0.1400 
    121 C         -0.0393  -16.6645  -53.7884 C.2       22 UNK         0.5000 
    122 N         -1.2931  -16.3524  -54.0951 N.am      22 UNK        -0.7600 
    123 O          0.6689  -15.8312  -53.2298 O.2       22 UNK        -0.5000 
    124 C124        1.2672  -18.7513  -52.9712 C.3       23 UNK        -0.0398 
    125 S125        0.1414  -19.3959  -51.6919 S.3       23 UNK        -0.2404 
    126 C126        0.3045  -18.1638  -50.3665 C.3       23 UNK        -0.0205 
    127 H127       -4.0064   -8.8744  -46.5736 H         1 UNK         0.0600 
    128 H128       -4.6862   -9.8864  -47.8523 H         1 UNK         0.0600 
    129 H129       -3.6083   -8.5486  -48.2638 H         1 UNK         0.0600 
    130 H130       -3.6608  -11.8756  -48.0124 H         1 UNK         0.3000 
    131 H131       -0.8654  -12.1638  -48.2801 H         1 UNK         0.0600 
    132 H132       -2.2173  -13.7251  -49.4288 H         1 UNK         0.0800 
    133 H133       -1.3328  -14.6405  -48.2432 H         1 UNK         0.0800 
    134 H134       -5.0132  -16.2473  -48.8541 H         1 UNK         0.0800 
    135 H135       -3.9482  -15.4499  -49.9795 H         1 UNK         0.0800 
    136 H136       -1.6365  -16.2556  -50.3028 H         1 UNK         0.1150 
    137 H137       -0.5563  -20.0220  -48.5665 H         1 UNK         0.1150 
    138 H138       -4.2023  -18.0877  -47.4012 H         1 UNK         0.1150 
    139 H139       -3.8280  -20.3758  -46.7907 H         1 UNK         0.0800 
    140 H140       -2.5273  -21.2914  -47.5145 H         1 UNK         0.0800 
    141 H141       -3.7153  -21.6624  -44.7922 H         1 UNK         0.0800 
    142 H142       -2.6189  -21.4371  -43.4593 H         1 UNK         0.0800 
    143 H143       -1.9944  -23.1777  -45.8909 H         1 UNK         0.0600 
    144 H144       -0.3073  -22.3368  -43.7689 H         1 UNK         0.3000 
    145 H145        1.8793  -25.1019  -43.6756 H         1 UNK         0.0600 
    146 H146        3.6800  -23.6358  -44.5553 H         1 UNK         0.0600 
    147 H147        2.6635  -24.1935  -45.8741 H         1 UNK         0.0600 
    148 H148        2.4854  -22.5507  -45.2689 H         1 UNK         0.0600 
    149 H149        2.3207  -22.4535  -42.8011 H         1 UNK         0.3000 
    150 H150        0.1023  -22.1602  -40.1369 H         1 UNK         0.0600 
    151 H151        3.0791  -22.8353  -39.8361 H         1 UNK         0.0600 
    152 H152        1.7602  -23.6692  -39.0230 H         1 UNK         0.0600 
    153 H153        2.0829  -21.9830  -38.6553 H         1 UNK         0.0600 
    154 H154        2.3722  -20.6101  -40.7289 H         1 UNK         0.3000 
    155 H155        1.4681  -18.2711  -41.7640 H         1 UNK         0.0600 
    156 H156        3.1341  -19.9911  -43.7093 H         1 UNK         0.0600 
    157 H157        3.6139  -19.5418  -42.0751 H         1 UNK         0.0600 
    158 H158        3.4829  -18.3128  -43.3110 H         1 UNK         0.0600 
    159 H159        0.1748  -19.2037  -44.1350 H         1 UNK         0.3000 
    160 H160       -0.0231  -17.9662  -46.0854 H         1 UNK         0.0600 
    161 H161       -1.2890  -15.5800  -44.6272 H         1 UNK         0.0600 
    162 H162       -1.8893  -17.2326  -44.6131 H         1 UNK         0.0600 
    163 H163       -1.8945  -16.3158  -46.1088 H         1 UNK         0.0600 
    164 H164        0.5707  -15.0813  -46.1728 H         1 UNK         0.3000 
    165 H165        3.6094  -15.4857  -47.9661 H         1 UNK         0.0600 
    166 H166        1.8640  -15.3949  -49.7502 H         1 UNK         0.0600 
    167 H167        0.9356  -14.2376  -48.8041 H         1 UNK         0.0600 
    168 H168        2.5235  -13.7998  -49.4246 H         1 UNK         0.0600 
    169 H169        1.9006  -13.4311  -46.6955 H         1 UNK         0.3000 
    170 H170        2.5895  -13.3420  -43.9587 H         1 UNK         0.0600 
    171 H171        4.9510  -13.4379  -43.3026 H         1 UNK         0.0600 
    172 H172        5.3906  -12.2233  -44.4938 H         1 UNK         0.0600 
    173 H173        4.3736  -11.7900  -43.1195 H         1 UNK         0.0600 
    174 H174        1.7369  -11.5624  -44.9226 H         1 UNK         0.3000 
    175 H175        2.8479   -8.8361  -46.6655 H         1 UNK         0.0600 
    176 H176        1.1334   -9.2756  -48.4413 H         1 UNK         0.0600 
    177 H177        2.6155  -10.1682  -48.7496 H         1 UNK         0.0600 
    178 H178        1.2134  -11.0026  -48.0944 H         1 UNK         0.0600 
    179 H179        0.1963   -9.8264  -46.1579 H         1 UNK         0.3000 
    180 H180        0.0422   -8.8863  -42.7203 H         1 UNK         0.0600 
    181 H181       -1.3543   -7.8007  -45.2259 H         1 UNK         0.0600 
    182 H182       -0.5479   -6.8364  -43.9967 H         1 UNK         0.0600 
    183 H183       -1.9915   -7.7478  -43.5829 H         1 UNK         0.0600 
    184 H184       -1.7185  -10.1781  -44.6370 H         1 UNK         0.3000 
    185 H185       -0.8821  -13.5051  -43.6811 H         1 UNK         0.0600 
    186 H186       -2.4337  -12.7672  -41.8748 H         1 UNK         0.0600 
    187 H187       -3.3819  -11.8498  -43.0395 H         1 UNK         0.0600 
    188 H188       -3.3019  -13.6086  -43.1492 H         1 UNK         0.0600 
    189 H189       -2.8737  -12.2943  -45.4100 H         1 UNK         0.3000 
    190 H190       -1.6082  -24.5324  -42.7092 H         1 UNK         0.3000 
    191 H191       -4.1974  -25.8532  -42.5923 H         1 UNK         0.0600 
    192 H192       -2.8524  -25.3558  -40.5473 H         1 UNK         0.0600 
    193 H193       -3.1541  -27.0795  -40.7081 H         1 UNK         0.0600 
    194 H194       -1.5728  -26.4271  -41.1172 H         1 UNK         0.0600 
    195 H195       -1.1555  -26.4655  -44.2318 H         1 UNK         0.3000 
    196 H196       -1.8185  -29.3271  -44.7483 H         1 UNK         0.0600 
    197 H197        0.5472  -29.4607  -45.4834 H         1 UNK         0.0600 
    198 H198        0.4425  -28.8590  -43.8361 H         1 UNK         0.0600 
    199 H199        0.7733  -27.7457  -45.1621 H         1 UNK         0.0600 
    200 H200       -1.1487  -26.1947  -46.3487 H         1 UNK         0.3000 
    201 H201       -1.1599  -27.1041  -49.0175 H         1 UNK         0.0600 
    202 H202       -1.3888  -24.6836  -49.5557 H         1 UNK         0.0600 
    203 H203       -1.8597  -24.3355  -47.9005 H         1 UNK         0.0600 
    204 H204       -0.2298  -24.9094  -48.2533 H         1 UNK         0.0600 
    205 H205       -2.6785  -27.0570  -50.6547 H         1 UNK         0.3000 
    206 H206       -5.5004  -27.3998  -49.9994 H         1 UNK         0.0600 
    207 H207       -4.3675  -28.7640  -51.7693 H         1 UNK         0.0600 
    208 H208       -5.6650  -27.8097  -52.4643 H         1 UNK         0.0600 
    209 H209       -3.9940  -27.3023  -52.6807 H         1 UNK         0.0600 
    210 H210       -7.1915  -26.1349  -51.0918 H         1 UNK         0.3000 
    211 H211       -6.9580  -23.3288  -50.8211 H         1 UNK         0.0600 
    212 H212       -9.0466  -25.0000  -52.3201 H         1 UNK         0.0600 
    213 H213       -9.2283  -23.3095  -51.8673 H         1 UNK         0.0600 
    214 H214       -9.1093  -24.5384  -50.6186 H         1 UNK         0.0600 
    215 H215       -6.6017  -25.4250  -53.6698 H         1 UNK         0.3000 
    216 H216       -6.4217  -23.3531  -55.6437 H         1 UNK         0.0600 
    217 H217       -5.4865  -25.1860  -57.0619 H         1 UNK         0.0600 
    218 H218       -6.9409  -25.7068  -56.2265 H         1 UNK         0.0600 
    219 H219       -5.3577  -26.2307  -55.6517 H         1 UNK         0.0600 
    220 H220       -4.0237  -24.9379  -53.5378 H         1 UNK         0.3000 
    221 H221       -1.6937  -23.7465  -54.7648 H         1 UNK         0.0600 
    222 H222       -2.0399  -25.0309  -52.0028 H         1 UNK         0.0600 
    223 H223       -1.5515  -25.8684  -53.4749 H         1 UNK         0.0600 
    224 H224       -0.5140  -24.6350  -52.7757 H         1 UNK         0.0600 
    225 H225       -3.6971  -23.0237  -51.8805 H         1 UNK         0.3000 
    226 H226       -2.3715  -20.6952  -51.0018 H         1 UNK         0.0600 
    227 H227       -4.4985  -20.2561  -49.7841 H         1 UNK         0.0600 
    228 H228       -5.3190  -21.4792  -50.7438 H         1 UNK         0.0600 
    229 H229       -4.0239  -21.9434  -49.6414 H         1 UNK         0.0600 
    230 H230       -4.9333  -21.0858  -53.4740 H         1 UNK         0.3000 
    231 H231       -5.2579  -18.2913  -54.0331 H         1 UNK         0.0600 
    232 H232       -5.8304  -20.7475  -55.7731 H         1 UNK         0.0600 
    233 H233       -6.3939  -19.1126  -56.0930 H         1 UNK         0.0600 
    234 H234       -6.9602  -19.9702  -54.6678 H         1 UNK         0.0600 
    235 H235       -3.2023  -20.8495  -55.5095 H         1 UNK         0.3000 
    236 H236       -2.1616  -19.3418  -57.6218 H         1 UNK         0.0600 
    237 H237       -0.4293  -21.1312  -57.7406 H         1 UNK         0.0600 
    238 H238       -0.9146  -21.7236  -56.1585 H         1 UNK         0.0600 
    239 H239       -2.0356  -21.8043  -57.5166 H         1 UNK         0.0600 
    240 H240       -0.8921  -19.6270  -54.2728 H         1 UNK         0.3000 
    241 H241        1.3425  -17.8252  -54.8716 H         1 UNK         0.0600 
    242 H242       -1.8978  -17.0091  -54.5719 H         1 UNK         0.3800 
    243 H243       -1.6458  -15.4416  -53.8507 H         1 UNK         0.3800 
    244 H244        2.0018  -18.0842  -52.5172 H         1 UNK         0.0800 
    245 H245        1.8425  -19.5975  -53.3488 H         1 UNK         0.0800 
    246 H246        1.1707  -18.4061  -49.7499 H         1 UNK         0.0800 
    247 H247        0.4906  -17.1788  -50.7953 H         1 UNK         0.0800 
@<TRIPOS>BOND
     1    1    2 1    
     2    1  127 1    
     3    1  128 1    
     4    1  129 1    
     5    2    3 2    
     6    2    4 am   BACKBONE|DICT|INTERRES
     7    4    5 1    
     8    4  130 1    
     9    5    6 1    
    10    5   65 1    
    11    5  131 1    
    12    6    7 1    
    13    6  132 1    
    14    6  133 1    
    15    7    8 1    
    16    8    9 1    
    17    8  134 1    
    18    8  135 1    
    19    9   10 ar   
    20    9   14 ar   
    21   10   11 ar   
    22   10  136 1    
    23   11   12 ar   
    24   11  126 1    
    25   12   13 ar   
    26   12  137 1    
    27   13   14 ar   
    28   13   15 1    
    29   14  138 1    
    30   15   16 1    
    31   15  139 1    
    32   15  140 1    
    33   16   17 1    
    34   17   18 1    
    35   17  141 1    
    36   17  142 1    
    37   18   19 1    
    38   18   67 1    
    39   18  143 1    
    40   19   20 am   BACKBONE|DICT|INTERRES
    41   19  144 1    
    42   20   21 2    
    43   20   22 1    
    44   22   23 1    
    45   22   24 1    
    46   22  145 1    
    47   23  146 1    
    48   23  147 1    
    49   23  148 1    
    50   24   25 am   BACKBONE|DICT|INTERRES
    51   24  149 1    
    52   25   26 2    
    53   25   27 1    
    54   27   28 1    
    55   27   29 1    
    56   27  150 1    
    57   28  151 1    
    58   28  152 1    
    59   28  153 1    
    60   29   30 am   BACKBONE|DICT|INTERRES
    61   29  154 1    
    62   30   31 2    
    63   30   32 1    
    64   32   33 1    
    65   32   34 1    
    66   32  155 1    
    67   33  156 1    
    68   33  157 1    
    69   33  158 1    
    70   34   35 am   BACKBONE|DICT|INTERRES
    71   34  159 1    
    72   35   36 2    
    73   35   37 1    
    74   37   38 1    
    75   37   39 1    
    76   37  160 1    
    77   38  161 1    
    78   38  162 1    
    79   38  163 1    
    80   39   40 am   BACKBONE|DICT|INTERRES
    81   39  164 1    
    82   40   41 2    
    83   40   42 1    
    84   42   43 1    
    85   42   44 1    
    86   42  165 1    
    87   43  166 1    
    88   43  167 1    
    89   43  168 1    
    90   44   45 am   BACKBONE|DICT|INTERRES
    91   44  169 1    
    92   45   46 2    
    93   45   47 1    
    94   47   48 1    
    95   47   49 1    
    96   47  170 1    
    97   48  171 1    
    98   48  172 1    
    99   48  173 1    
   100   49   50 am   BACKBONE|DICT|INTERRES
   101   49  174 1    
   102   50   51 2    
   103   50   52 1    
   104   52   53 1    
   105   52   54 1    
   106   52  175 1    
   107   53  176 1    
   108   53  177 1    
   109   53  178 1    
   110   54   55 am   BACKBONE|DICT|INTERRES
   111   54  179 1    
   112   55   56 2    
   113   55   57 1    
   114   57   58 1    
   115   57   59 1    
   116   57  180 1    
   117   58  181 1    
   118   58  182 1    
   119   58  183 1    
   120   59   60 am   BACKBONE|DICT|INTERRES
   121   59  184 1    
   122   60   61 2    
   123   60   62 1    
   124   62   63 1    
   125   62   64 1    
   126   62  185 1    
   127   63  186 1    
   128   63  187 1    
   129   63  188 1    
   130   64   65 am   BACKBONE|DICT|INTERRES
   131   64  189 1    
   132   65   66 2    
   133   67   68 2    
   134   67   69 am   BACKBONE|DICT|INTERRES
   135   69   70 1    
   136   69  190 1    
   137   70   71 1    
   138   70   72 1    
   139   70  191 1    
   140   71  192 1    
   141   71  193 1    
   142   71  194 1    
   143   72   73 2    
   144   72   74 am   BACKBONE|DICT|INTERRES
   145   74   75 1    
   146   74  195 1    
   147   75   76 1    
   148   75   77 1    
   149   75  196 1    
   150   76  197 1    
   151   76  198 1    
   152   76  199 1    
   153   77   78 2    
   154   77   79 am   BACKBONE|DICT|INTERRES
   155   79   80 1    
   156   79  200 1    
   157   80   81 1    
   158   80   82 1    
   159   80  201 1    
   160   81  202 1    
   161   81  203 1    
   162   81  204 1    
   163   82   83 2    
   164   82   84 am   BACKBONE|DICT|INTERRES
   165   84   85 1    
   166   84  205 1    
   167   85   86 1    
   168   85   87 1    
   169   85  206 1    
   170   86  207 1    
   171   86  208 1    
   172   86  209 1    
   173   87   88 2    
   174   87   89 am   BACKBONE|DICT|INTERRES
   175   89   90 1    
   176   89  210 1    
   177   90   91 1    
   178   90   92 1    
   179   90  211 1    
   180   91  212 1    
   181   91  213 1    
   182   91  214 1    
   183   92   93 2    
   184   92   94 am   BACKBONE|DICT|INTERRES
   185   94   95 1    
   186   94  215 1    
   187   95   96 1    
   188   95   97 1    
   189   95  216 1    
   190   96  217 1    
   191   96  218 1    
   192   96  219 1    
   193   97   98 2    
   194   97   99 am   BACKBONE|DICT|INTERRES
   195   99  100 1    
   196   99  220 1    
   197  100  101 1    
   198  100  102 1    
   199  100  221 1    
   200  101  222 1    
   201  101  223 1    
   202  101  224 1    
   203  102  103 2    
   204  102  104 am   BACKBONE|DICT|INTERRES
   205  104  105 1    
   206  104  225 1    
   207  105  106 1    
   208  105  107 1    
   209  105  226 1    
   210  106  227 1    
   211  106  228 1    
   212  106  229 1    
   213  107  108 2    
   214  107  109 am   BACKBONE|DICT|INTERRES
   215  109  110 1    
   216  109  230 1    
   217  110  111 1    
   218  110  112 1    
   219  110  231 1    
   220  111  232 1    
   221  111  233 1    
   222  111  234 1    
   223  112  113 2    
   224  112  114 am   BACKBONE|DICT|INTERRES
   225  114  115 1    
   226  114  235 1    
   227  115  116 1    
   228  115  117 1    
   229  115  236 1    
   230  116  237 1    
   231  116  238 1    
   232  116  239 1    
   233  117  118 2    
   234  117  119 am   BACKBONE|DICT|INTERRES
   235  119  120 1    
   236  119  240 1    
   237  120  121 1    
   238  120  124 1    
   239  120  241 1    
   240  121  122 am   BACKBONE|DICT|INTERRES
   241  121  123 2    
   242  122  242 1    
   243  122  243 1    
   244  124  125 1    
   245  124  244 1    
   246  124  245 1    
   247  125  126 1    
   248  126  246 1    
   249  126  247 1    
@<TRIPOS>SUBSTRUCTURE
     1 UNK         1 GROUP             0       ****    0 ROOT    
