@<TRIPOS>MOLECULE
3R540
247   249    1
SMALL
USER_CHARGES


@<TRIPOS>ATOM
      1 CA          5.6676  -13.7749  -42.5431 C.3       0 UNK        -0.1800 
      2 C           5.0074  -13.2679  -43.8162 C.2       0 UNK         0.5000 
      3 O           4.1601  -12.3783  -43.7539 O.2       0 UNK        -0.5000 
      4 N           5.4083  -13.8117  -44.9753 N.am      1 UNK        -0.5000 
      5 CA          4.8310  -13.5328  -46.2993 C.3       1 UNK         0.1400 
      6 C6          5.3906  -14.4961  -47.3758 C.3       23 UNK        -0.0398 
      7 S7          4.2891  -14.6958  -48.8186 S.3       23 UNK        -0.2404 
      8 C8          3.0756  -15.8808  -48.1656 C.3       23 UNK        -0.0205 
      9 C9          2.1229  -16.3596  -49.2445 C.ar      23 UNK        -0.0193 
     10 C10         1.0349  -15.5718  -49.6258 C.ar      23 UNK        -0.1150 
     11 C11         0.1418  -16.0097  -50.6084 C.ar      23 UNK        -0.0193 
     12 C12         0.3612  -17.2550  -51.2165 C.ar      23 UNK        -0.1150 
     13 C13         1.4399  -18.0574  -50.8334 C.ar      23 UNK        -0.0193 
     14 C14         2.3192  -17.6018  -49.8492 C.ar      23 UNK        -0.1150 
     15 C15         1.6613  -19.4187  -51.4791 C.3       23 UNK        -0.0205 
     16 S16         0.4380  -20.6537  -50.9337 S.3       23 UNK        -0.2404 
     17 C17         0.5930  -20.5633  -49.1138 C.3       23 UNK        -0.0398 
     18 CA          0.3116  -21.8845  -48.3555 C.3       11 UNK         0.1400 
     19 N           0.4602  -21.7015  -46.9077 N.am      11 UNK        -0.5000 
     20 C           0.3963  -22.6766  -45.9891 C.2       10 UNK         0.5000 
     21 O           0.2865  -23.8705  -46.2635 O.2       10 UNK        -0.5000 
     22 CA          0.3932  -22.2409  -44.5120 C.3       10 UNK         0.1400 
     23 CB          1.8195  -21.9671  -44.0132 C.3       10 UNK        -0.1800 
     24 N          -0.4489  -21.0665  -44.2791 N.am      10 UNK        -0.5000 
     25 C          -1.7762  -21.0347  -44.4664 C.2       9 UNK         0.5000 
     26 O          -2.4423  -22.0173  -44.7868 O.2       9 UNK        -0.5000 
     27 CA         -2.4697  -19.6681  -44.3298 C.3       9 UNK         0.1400 
     28 CB         -2.7852  -19.3459  -42.8615 C.3       9 UNK        -0.1800 
     29 N          -1.6764  -18.5903  -44.9211 N.am      9 UNK        -0.5000 
     30 C          -1.4589  -18.4520  -46.2372 C.2       8 UNK         0.5000 
     31 O          -1.9425  -19.1955  -47.0902 O.2       8 UNK        -0.5000 
     32 CA         -0.5031  -17.3232  -46.6653 C.3       8 UNK         0.1400 
     33 CB         -1.2689  -16.0008  -46.8173 C.3       8 UNK        -0.1800 
     34 N           0.6097  -17.1478  -45.7274 N.am      8 UNK        -0.5000 
     35 C           1.5733  -18.0601  -45.5304 C.2       7 UNK         0.5000 
     36 O           1.6544  -19.1068  -46.1738 O.2       7 UNK        -0.5000 
     37 CA          2.5750  -17.7954  -44.3893 C.3       7 UNK         0.1400 
     38 CB          3.7244  -16.8848  -44.8343 C.3       7 UNK        -0.1800 
     39 N           1.9464  -17.2147  -43.2061 N.am      7 UNK        -0.5000 
     40 C           1.0849  -17.8501  -42.4067 C.2       6 UNK         0.5000 
     41 O           0.6995  -18.9998  -42.6133 O.2       6 UNK        -0.5000 
     42 CA          0.5365  -17.0768  -41.1917 C.3       6 UNK         0.1400 
     43 CB          1.5246  -17.1220  -40.0109 C.3       6 UNK        -0.1800 
     44 N           0.1083  -15.7031  -41.4912 N.am      6 UNK        -0.5000 
     45 C           0.8495  -14.6479  -41.8575 C.2       5 UNK         0.5000 
     46 O           2.0779  -14.6636  -41.9627 O.2       5 UNK        -0.5000 
     47 CA          0.0645  -13.3596  -42.1657 C.3       5 UNK         0.1400 
     48 CB          0.1802  -12.3732  -40.9937 C.3       5 UNK        -0.1800 
     49 N           0.4751  -12.6757  -43.3927 N.am      5 UNK        -0.5000 
     50 C           0.6914  -13.2033  -44.6043 C.2       4 UNK         0.5000 
     51 O           0.6421  -14.4095  -44.8487 O.2       4 UNK        -0.5000 
     52 CA          0.9960  -12.2215  -45.7575 C.3       4 UNK         0.1400 
     53 CB         -0.3046  -11.7512  -46.4333 C.3       4 UNK        -0.1800 
     54 N           1.8586  -11.0817  -45.4095 N.am      4 UNK        -0.5000 
     55 C           1.6514  -10.0698  -44.5513 C.2       3 UNK         0.5000 
     56 O           0.5955   -9.9053  -43.9387 O.2       3 UNK        -0.5000 
     57 CA          2.8287   -9.1046  -44.2959 C.3       3 UNK         0.1400 
     58 CB          3.0270   -8.8552  -42.7903 C.3       3 UNK        -0.1800 
     59 N           4.0788   -9.6338  -44.8425 N.am      3 UNK        -0.5000 
     60 C           4.8288   -9.0518  -45.7881 C.2       2 UNK         0.5000 
     61 O           4.5936   -7.9385  -46.2590 O.2       2 UNK        -0.5000 
     62 CA          6.0364   -9.8557  -46.3220 C.3       2 UNK         0.1400 
     63 CB          7.3290   -9.4082  -45.6228 C.3       2 UNK        -0.1800 
     64 N           5.8979  -11.3089  -46.1766 N.am      2 UNK        -0.5000 
     65 C           4.9278  -12.0511  -46.7304 C.2       1 UNK         0.5000 
     66 O           4.0739  -11.5869  -47.4856 O.2       1 UNK        -0.5000 
     67 C          -1.0632  -22.4974  -48.7044 C.2       11 UNK         0.5000 
     68 O          -1.1148  -23.5058  -49.4099 O.2       11 UNK        -0.5000 
     69 N          -2.1425  -21.9159  -48.1601 N.am      12 UNK        -0.5000 
     70 CA         -3.5135  -22.4015  -48.3216 C.3       12 UNK         0.1400 
     71 CB         -4.4908  -21.4230  -47.6558 C.3       12 UNK        -0.1800 
     72 C          -3.7138  -23.8279  -47.7786 C.2       12 UNK         0.5000 
     73 O          -4.3395  -24.6456  -48.4526 O.2       12 UNK        -0.5000 
     74 N          -3.1513  -24.1109  -46.5955 N.am      13 UNK        -0.5000 
     75 CA         -3.1662  -25.4261  -45.9560 C.3       13 UNK         0.1400 
     76 CB         -2.6170  -25.3154  -44.5260 C.3       13 UNK        -0.1800 
     77 C          -2.3953  -26.4889  -46.7583 C.2       13 UNK         0.5000 
     78 O          -2.9054  -27.5954  -46.9322 O.2       13 UNK        -0.5000 
     79 N          -1.2081  -26.1293  -47.2678 N.am      14 UNK        -0.5000 
     80 CA         -0.3760  -26.9798  -48.1240 C.3       14 UNK         0.1400 
     81 CB          0.9941  -26.3174  -48.3333 C.3       14 UNK        -0.1800 
     82 C          -1.0391  -27.2977  -49.4773 C.2       14 UNK         0.5000 
     83 O          -0.9204  -28.4220  -49.9654 O.2       14 UNK        -0.5000 
     84 N          -1.7555  -26.3142  -50.0370 N.am      15 UNK        -0.5000 
     85 CA         -2.5676  -26.4503  -51.2471 C.3       15 UNK         0.1400 
     86 CB         -2.8531  -25.0456  -51.7988 C.3       15 UNK        -0.1800 
     87 C          -3.8870  -27.2197  -51.0219 C.2       15 UNK         0.5000 
     88 O          -4.5240  -27.6066  -52.0012 O.2       15 UNK        -0.5000 
     89 N          -4.2738  -27.4131  -49.7513 N.am      16 UNK        -0.5000 
     90 CA         -5.5235  -28.0103  -49.2676 C.3       16 UNK         0.1400 
     91 CB         -5.6246  -29.4954  -49.6744 C.3       16 UNK        -0.1800 
     92 C          -6.7708  -27.1824  -49.6487 C.2       16 UNK         0.5000 
     93 O          -7.8381  -27.7526  -49.8844 O.2       16 UNK        -0.5000 
     94 N          -6.5990  -25.8510  -49.6734 N.am      17 UNK        -0.5000 
     95 CA         -7.5422  -24.7985  -50.0655 C.3       17 UNK         0.1400 
     96 CB         -8.7888  -24.8092  -49.1582 C.3       17 UNK        -0.1800 
     97 C          -7.9309  -24.8263  -51.5595 C.2       17 UNK         0.5000 
     98 O          -7.7299  -25.8254  -52.2524 O.2       17 UNK        -0.5000 
     99 N          -8.4733  -23.6957  -52.0349 N.am      18 UNK        -0.5000 
    100 CA        -9.0058  -23.4108  -53.3783 C.3       18 UNK         0.1400 
    101 CB       -10.1948  -24.3316  -53.7125 C.3       18 UNK        -0.1800 
    102 C         -7.9700  -23.4109  -54.5224 C.2       18 UNK         0.5000 
    103 O         -8.0347  -22.5386  -55.3893 O.2       18 UNK        -0.5000 
    104 N         -7.0305  -24.3643  -54.5076 N.am      19 UNK        -0.5000 
    105 CA        -5.9296  -24.4946  -55.4652 C.3       19 UNK         0.1400 
    106 CB        -5.2675  -25.8687  -55.2875 C.3       19 UNK        -0.1800 
    107 C         -4.8931  -23.3597  -55.3497 C.2       19 UNK         0.5000 
    108 O         -4.2513  -23.0232  -56.3456 O.2       19 UNK        -0.5000 
    109 N         -4.7832  -22.7688  -54.1539 N.am      20 UNK        -0.5000 
    110 CA        -4.1182  -21.4961  -53.9102 C.3       20 UNK         0.1400 
    111 CB        -3.1554  -21.6268  -52.7185 C.3       20 UNK        -0.1800 
    112 C         -5.2181  -20.4725  -53.6076 C.2       20 UNK         0.5000 
    113 O         -6.0030  -20.6851  -52.6787 O.2       20 UNK        -0.5000 
    114 N         -5.2487  -19.3764  -54.3767 N.am      21 UNK        -0.5000 
    115 CA        -6.2187  -18.2822  -54.2391 C.3       21 UNK         0.1400 
    116 CB        -6.0417  -17.3071  -55.4132 C.3       21 UNK        -0.1800 
    117 C         -6.1197  -17.5327  -52.8947 C.2       21 UNK         0.5000 
    118 O         -7.0997  -16.9278  -52.4583 O.2       21 UNK        -0.5000 
    119 N         -4.9447  -17.6114  -52.2604 N.am      22 UNK        -0.5000 
    120 CA        -4.6620  -17.1124  -50.9078 C.3       22 UNK         0.1400 
    121 C         -5.3055  -17.9582  -49.7679 C.2       22 UNK         0.5000 
    122 N         -5.8814  -19.1263  -50.0364 N.am      22 UNK        -0.7600 
    123 O         -5.2964  -17.5351  -48.6158 O.2       22 UNK        -0.5000 
    124 C124       -3.1379  -16.9411  -50.6803 C.3       23 UNK        -0.0398 
    125 S125       -2.3731  -15.8559  -51.9361 S.3       23 UNK        -0.2404 
    126 C126       -1.0159  -15.0852  -50.9905 C.3       23 UNK        -0.0205 
    127 H127        6.1690  -12.9555  -42.0284 H         1 UNK         0.0600 
    128 H128        6.4036  -14.5522  -42.7488 H         1 UNK         0.0600 
    129 H129        4.9132  -14.1891  -41.8740 H         1 UNK         0.0600 
    130 H130        6.1366  -14.5115  -44.9546 H         1 UNK         0.3000 
    131 H131        3.7656  -13.7405  -46.1901 H         1 UNK         0.0600 
    132 H132        5.5559  -15.4868  -46.9507 H         1 UNK         0.0800 
    133 H133        6.3698  -14.1626  -47.7240 H         1 UNK         0.0800 
    134 H134        3.6006  -16.7353  -47.7404 H         1 UNK         0.0800 
    135 H135        2.5051  -15.4210  -47.3577 H         1 UNK         0.0800 
    136 H136        0.8875  -14.6092  -49.1561 H         1 UNK         0.1150 
    137 H137       -0.3022  -17.6169  -51.9879 H         1 UNK         0.1150 
    138 H138        3.1566  -18.2165  -49.5501 H         1 UNK         0.1150 
    139 H139        1.6026  -19.3174  -52.5637 H         1 UNK         0.0800 
    140 H140        2.6635  -19.7914  -51.2619 H         1 UNK         0.0800 
    141 H141       -0.0741  -19.7739  -48.7707 H         1 UNK         0.0800 
    142 H142        1.6012  -20.2293  -48.8661 H         1 UNK         0.0800 
    143 H143        1.0698  -22.6077  -48.6627 H         1 UNK         0.0600 
    144 H144        0.6138  -20.7506  -46.5868 H         1 UNK         0.3000 
    145 H145       -0.0171  -23.0639  -43.9235 H         1 UNK         0.0600 
    146 H146        1.8232  -21.7028  -42.9555 H         1 UNK         0.0600 
    147 H147        2.4486  -22.8502  -44.1309 H         1 UNK         0.0600 
    148 H148        2.2921  -21.1533  -44.5624 H         1 UNK         0.0600 
    149 H149        0.0164  -20.2306  -43.9382 H         1 UNK         0.3000 
    150 H150       -3.4171  -19.7222  -44.8705 H         1 UNK         0.0600 
    151 H151       -3.4286  -20.1125  -42.4280 H         1 UNK         0.0600 
    152 H152       -3.3082  -18.3939  -42.7697 H         1 UNK         0.0600 
    153 H153       -1.8847  -19.2953  -42.2506 H         1 UNK         0.0600 
    154 H154       -1.2104  -17.9604  -44.2861 H         1 UNK         0.3000 
    155 H155       -0.0892  -17.5894  -47.6397 H         1 UNK         0.0600 
    156 H156       -1.6767  -15.6598  -45.8650 H         1 UNK         0.0600 
    157 H157       -2.1027  -16.1083  -47.5110 H         1 UNK         0.0600 
    158 H158       -0.6229  -15.2137  -47.2046 H         1 UNK         0.0600 
    159 H159        0.6297  -16.2762  -45.2025 H         1 UNK         0.3000 
    160 H160        3.0039  -18.7567  -44.0991 H         1 UNK         0.0600 
    161 H161        3.3564  -15.9115  -45.1569 H         1 UNK         0.0600 
    162 H162        4.2825  -17.3342  -45.6551 H         1 UNK         0.0600 
    163 H163        4.4312  -16.7186  -44.0211 H         1 UNK         0.0600 
    164 H164        2.1892  -16.2567  -42.9659 H         1 UNK         0.3000 
    165 H165       -0.3667  -17.6010  -40.8752 H         1 UNK         0.0600 
    166 H166        1.1133  -16.6231  -39.1335 H         1 UNK         0.0600 
    167 H167        1.7413  -18.1527  -39.7273 H         1 UNK         0.0600 
    168 H168        2.4757  -16.6468  -40.2522 H         1 UNK         0.0600 
    169 H169       -0.8924  -15.5675  -41.4513 H         1 UNK         0.3000 
    170 H170       -0.9885  -13.6173  -42.2929 H         1 UNK         0.0600 
    171 H171       -0.1424  -12.8331  -40.0587 H         1 UNK         0.0600 
    172 H172        1.2087  -12.0357  -40.8576 H         1 UNK         0.0600 
    173 H173       -0.4422  -11.4926  -41.1547 H         1 UNK         0.0600 
    174 H174        0.5291  -11.6631  -43.3370 H         1 UNK         0.3000 
    175 H175        1.5540  -12.7909  -46.5020 H         1 UNK         0.0600 
    176 H176       -0.9330  -11.1756  -45.7532 H         1 UNK         0.0600 
    177 H177       -0.0933  -11.1296  -47.3034 H         1 UNK         0.0600 
    178 H178       -0.8933  -12.6025  -46.7775 H         1 UNK         0.0600 
    179 H179        2.7579  -11.0940  -45.8738 H         1 UNK         0.3000 
    180 H180        2.5677   -8.1577  -44.7719 H         1 UNK         0.0600 
    181 H181        3.2359   -9.7834  -42.2562 H         1 UNK         0.0600 
    182 H182        2.1384   -8.4090  -42.3422 H         1 UNK         0.0600 
    183 H183        3.8567   -8.1713  -42.6108 H         1 UNK         0.0600 
    184 H184        4.3349  -10.5589  -44.5072 H         1 UNK         0.3000 
    185 H185        6.1283   -9.6363  -47.3876 H         1 UNK         0.0600 
    186 H186        8.2012   -9.9047  -46.0485 H         1 UNK         0.0600 
    187 H187        7.4821   -8.3339  -45.7341 H         1 UNK         0.0600 
    188 H188        7.3043   -9.6272  -44.5545 H         1 UNK         0.0600 
    189 H189        6.5429  -11.7626  -45.5460 H         1 UNK         0.3000 
    190 H190       -2.0239  -21.0655  -47.6166 H         1 UNK         0.3000 
    191 H191       -3.7289  -22.4197  -49.3914 H         1 UNK         0.0600 
    192 H192       -4.3506  -20.4102  -48.0323 H         1 UNK         0.0600 
    193 H193       -5.5242  -21.7092  -47.8543 H         1 UNK         0.0600 
    194 H194       -4.3606  -21.3928  -46.5742 H         1 UNK         0.0600 
    195 H195       -2.7032  -23.3595  -46.0768 H         1 UNK         0.3000 
    196 H196       -4.2071  -25.7503  -45.8931 H         1 UNK         0.0600 
    197 H197       -2.6393  -26.2827  -44.0226 H         1 UNK         0.0600 
    198 H198       -3.2112  -24.6239  -43.9286 H         1 UNK         0.0600 
    199 H199       -1.5854  -24.9634  -44.5166 H         1 UNK         0.0600 
    200 H200       -0.8339  -25.2105  -47.0435 H         1 UNK         0.3000 
    201 H201       -0.2193  -27.9262  -47.6025 H         1 UNK         0.0600 
    202 H202        1.5097  -26.1717  -47.3840 H         1 UNK         0.0600 
    203 H203        0.9008  -25.3437  -48.8155 H         1 UNK         0.0600 
    204 H204        1.6367  -26.9360  -48.9610 H         1 UNK         0.0600 
    205 H205       -1.7378  -25.3944  -49.6056 H         1 UNK         0.3000 
    206 H206       -1.9893  -26.9994  -51.9928 H         1 UNK         0.0600 
    207 H207       -1.9256  -24.5059  -51.9897 H         1 UNK         0.0600 
    208 H208       -3.3989  -25.0926  -52.7402 H         1 UNK         0.0600 
    209 H209       -3.4473  -24.4535  -51.1023 H         1 UNK         0.0600 
    210 H210       -3.6715  -27.0453  -49.0261 H         1 UNK         0.3000 
    211 H211       -5.4661  -27.9757  -48.1789 H         1 UNK         0.0600 
    212 H212       -5.7653  -29.6139  -50.7489 H         1 UNK         0.0600 
    213 H213       -6.4683  -29.9784  -49.1804 H         1 UNK         0.0600 
    214 H214       -4.7263  -30.0433  -49.3898 H         1 UNK         0.0600 
    215 H215       -5.6792  -25.5076  -49.4044 H         1 UNK         0.3000 
    216 H216       -7.0113  -23.8607  -49.8936 H         1 UNK         0.0600 
    217 H217       -9.4142  -23.9343  -49.3383 H         1 UNK         0.0600 
    218 H218       -8.5094  -24.7941  -48.1047 H         1 UNK         0.0600 
    219 H219       -9.4094  -25.6893  -49.3285 H         1 UNK         0.0600 
    220 H220       -8.5493  -22.9180  -51.3940 H         1 UNK         0.3000 
    221 H221       -9.3940  -22.3924  -53.3218 H         1 UNK         0.0600 
    222 H222       -9.8913  -25.3753  -53.7992 H         1 UNK         0.0600 
    223 H223      -10.9685  -24.2697  -52.9473 H         1 UNK         0.0600 
    224 H224      -10.6522  -24.0470  -54.6609 H         1 UNK         0.0600 
    225 H225       -7.0876  -25.0582  -53.7643 H         1 UNK         0.3000 
    226 H226       -6.3509  -24.4485  -56.4715 H         1 UNK         0.0600 
    227 H227       -5.9717  -26.6733  -55.4994 H         1 UNK         0.0600 
    228 H228       -4.4217  -25.9897  -55.9656 H         1 UNK         0.0600 
    229 H229       -4.9003  -26.0105  -54.2716 H         1 UNK         0.0600 
    230 H230       -5.4019  -23.0796  -53.4187 H         1 UNK         0.3000 
    231 H231       -3.5474  -21.1724  -54.7831 H         1 UNK         0.0600 
    232 H232       -3.6632  -21.9822  -51.8215 H         1 UNK         0.0600 
    233 H233       -2.6964  -20.6673  -52.4767 H         1 UNK         0.0600 
    234 H234       -2.3467  -22.3210  -52.9444 H         1 UNK         0.0600 
    235 H235       -4.5730  -19.2809  -55.1213 H         1 UNK         0.3000 
    236 H236       -7.2200  -18.7141  -54.2985 H         1 UNK         0.0600 
    237 H237       -6.1891  -17.8090  -56.3696 H         1 UNK         0.0600 
    238 H238       -6.7677  -16.4946  -55.3593 H         1 UNK         0.0600 
    239 H239       -5.0474  -16.8586  -55.4169 H         1 UNK         0.0600 
    240 H240       -4.1939  -18.1094  -52.7129 H         1 UNK         0.3000 
    241 H241       -5.1153  -16.1223  -50.8294 H         1 UNK         0.0600 
    242 H242       -5.9119  -19.4991  -50.9779 H         1 UNK         0.3800 
    243 H243       -6.3097  -19.6401  -49.2848 H         1 UNK         0.3800 
    244 H244       -2.9512  -16.5186  -49.6925 H         1 UNK         0.0800 
    245 H245       -2.6331  -17.9088  -50.6997 H         1 UNK         0.0800 
    246 H246       -1.4337  -14.6280  -50.0920 H         1 UNK         0.0800 
    247 H247       -0.6104  -14.2684  -51.5887 H         1 UNK         0.0800 
@<TRIPOS>BOND
     1    1    2 1    
     2    1  127 1    
     3    1  128 1    
     4    1  129 1    
     5    2    3 2    
     6    2    4 am   BACKBONE|DICT|INTERRES
     7    4    5 1    
     8    4  130 1    
     9    5    6 1    
    10    5   65 1    
    11    5  131 1    
    12    6    7 1    
    13    6  132 1    
    14    6  133 1    
    15    7    8 1    
    16    8    9 1    
    17    8  134 1    
    18    8  135 1    
    19    9   10 ar   
    20    9   14 ar   
    21   10   11 ar   
    22   10  136 1    
    23   11   12 ar   
    24   11  126 1    
    25   12   13 ar   
    26   12  137 1    
    27   13   14 ar   
    28   13   15 1    
    29   14  138 1    
    30   15   16 1    
    31   15  139 1    
    32   15  140 1    
    33   16   17 1    
    34   17   18 1    
    35   17  141 1    
    36   17  142 1    
    37   18   19 1    
    38   18   67 1    
    39   18  143 1    
    40   19   20 am   BACKBONE|DICT|INTERRES
    41   19  144 1    
    42   20   21 2    
    43   20   22 1    
    44   22   23 1    
    45   22   24 1    
    46   22  145 1    
    47   23  146 1    
    48   23  147 1    
    49   23  148 1    
    50   24   25 am   BACKBONE|DICT|INTERRES
    51   24  149 1    
    52   25   26 2    
    53   25   27 1    
    54   27   28 1    
    55   27   29 1    
    56   27  150 1    
    57   28  151 1    
    58   28  152 1    
    59   28  153 1    
    60   29   30 am   BACKBONE|DICT|INTERRES
    61   29  154 1    
    62   30   31 2    
    63   30   32 1    
    64   32   33 1    
    65   32   34 1    
    66   32  155 1    
    67   33  156 1    
    68   33  157 1    
    69   33  158 1    
    70   34   35 am   BACKBONE|DICT|INTERRES
    71   34  159 1    
    72   35   36 2    
    73   35   37 1    
    74   37   38 1    
    75   37   39 1    
    76   37  160 1    
    77   38  161 1    
    78   38  162 1    
    79   38  163 1    
    80   39   40 am   BACKBONE|DICT|INTERRES
    81   39  164 1    
    82   40   41 2    
    83   40   42 1    
    84   42   43 1    
    85   42   44 1    
    86   42  165 1    
    87   43  166 1    
    88   43  167 1    
    89   43  168 1    
    90   44   45 am   BACKBONE|DICT|INTERRES
    91   44  169 1    
    92   45   46 2    
    93   45   47 1    
    94   47   48 1    
    95   47   49 1    
    96   47  170 1    
    97   48  171 1    
    98   48  172 1    
    99   48  173 1    
   100   49   50 am   BACKBONE|DICT|INTERRES
   101   49  174 1    
   102   50   51 2    
   103   50   52 1    
   104   52   53 1    
   105   52   54 1    
   106   52  175 1    
   107   53  176 1    
   108   53  177 1    
   109   53  178 1    
   110   54   55 am   BACKBONE|DICT|INTERRES
   111   54  179 1    
   112   55   56 2    
   113   55   57 1    
   114   57   58 1    
   115   57   59 1    
   116   57  180 1    
   117   58  181 1    
   118   58  182 1    
   119   58  183 1    
   120   59   60 am   BACKBONE|DICT|INTERRES
   121   59  184 1    
   122   60   61 2    
   123   60   62 1    
   124   62   63 1    
   125   62   64 1    
   126   62  185 1    
   127   63  186 1    
   128   63  187 1    
   129   63  188 1    
   130   64   65 am   BACKBONE|DICT|INTERRES
   131   64  189 1    
   132   65   66 2    
   133   67   68 2    
   134   67   69 am   BACKBONE|DICT|INTERRES
   135   69   70 1    
   136   69  190 1    
   137   70   71 1    
   138   70   72 1    
   139   70  191 1    
   140   71  192 1    
   141   71  193 1    
   142   71  194 1    
   143   72   73 2    
   144   72   74 am   BACKBONE|DICT|INTERRES
   145   74   75 1    
   146   74  195 1    
   147   75   76 1    
   148   75   77 1    
   149   75  196 1    
   150   76  197 1    
   151   76  198 1    
   152   76  199 1    
   153   77   78 2    
   154   77   79 am   BACKBONE|DICT|INTERRES
   155   79   80 1    
   156   79  200 1    
   157   80   81 1    
   158   80   82 1    
   159   80  201 1    
   160   81  202 1    
   161   81  203 1    
   162   81  204 1    
   163   82   83 2    
   164   82   84 am   BACKBONE|DICT|INTERRES
   165   84   85 1    
   166   84  205 1    
   167   85   86 1    
   168   85   87 1    
   169   85  206 1    
   170   86  207 1    
   171   86  208 1    
   172   86  209 1    
   173   87   88 2    
   174   87   89 am   BACKBONE|DICT|INTERRES
   175   89   90 1    
   176   89  210 1    
   177   90   91 1    
   178   90   92 1    
   179   90  211 1    
   180   91  212 1    
   181   91  213 1    
   182   91  214 1    
   183   92   93 2    
   184   92   94 am   BACKBONE|DICT|INTERRES
   185   94   95 1    
   186   94  215 1    
   187   95   96 1    
   188   95   97 1    
   189   95  216 1    
   190   96  217 1    
   191   96  218 1    
   192   96  219 1    
   193   97   98 2    
   194   97   99 am   BACKBONE|DICT|INTERRES
   195   99  100 1    
   196   99  220 1    
   197  100  101 1    
   198  100  102 1    
   199  100  221 1    
   200  101  222 1    
   201  101  223 1    
   202  101  224 1    
   203  102  103 2    
   204  102  104 am   BACKBONE|DICT|INTERRES
   205  104  105 1    
   206  104  225 1    
   207  105  106 1    
   208  105  107 1    
   209  105  226 1    
   210  106  227 1    
   211  106  228 1    
   212  106  229 1    
   213  107  108 2    
   214  107  109 am   BACKBONE|DICT|INTERRES
   215  109  110 1    
   216  109  230 1    
   217  110  111 1    
   218  110  112 1    
   219  110  231 1    
   220  111  232 1    
   221  111  233 1    
   222  111  234 1    
   223  112  113 2    
   224  112  114 am   BACKBONE|DICT|INTERRES
   225  114  115 1    
   226  114  235 1    
   227  115  116 1    
   228  115  117 1    
   229  115  236 1    
   230  116  237 1    
   231  116  238 1    
   232  116  239 1    
   233  117  118 2    
   234  117  119 am   BACKBONE|DICT|INTERRES
   235  119  120 1    
   236  119  240 1    
   237  120  121 1    
   238  120  124 1    
   239  120  241 1    
   240  121  122 am   BACKBONE|DICT|INTERRES
   241  121  123 2    
   242  122  242 1    
   243  122  243 1    
   244  124  125 1    
   245  124  244 1    
   246  124  245 1    
   247  125  126 1    
   248  126  246 1    
   249  126  247 1    
@<TRIPOS>SUBSTRUCTURE
     1 UNK         1 GROUP             0       ****    0 ROOT    
