@<TRIPOS>MOLECULE
3R540
247   249    1
SMALL
USER_CHARGES


@<TRIPOS>ATOM
      1 CA         -1.7416  -14.0165  -41.7516 C.3       0 UNK        -0.1800 
      2 C          -1.8176  -13.8608  -43.2636 C.2       0 UNK         0.5000 
      3 O          -2.9075  -13.6726  -43.8038 O.2       0 UNK        -0.5000 
      4 N          -0.6687  -13.9327  -43.9436 N.am      1 UNK        -0.5000 
      5 CA         -0.5282  -13.6569  -45.3734 C.3       1 UNK         0.1400 
      6 C6          0.5227  -14.6042  -46.0045 C.3       23 UNK        -0.0398 
      7 S7          0.3914  -14.7603  -47.8199 S.3       23 UNK        -0.2404 
      8 C8          0.1974  -16.5615  -48.0333 C.3       23 UNK        -0.0205 
      9 C9         -1.2584  -17.0134  -48.0925 C.ar      23 UNK        -0.0193 
     10 C10        -1.6849  -17.8420  -49.1350 C.ar      23 UNK        -0.1150 
     11 C11        -3.0157  -18.2626  -49.2144 C.ar      23 UNK        -0.0193 
     12 C12        -3.9297  -17.8375  -48.2479 C.ar      23 UNK        -0.1150 
     13 C13        -3.5106  -17.0428  -47.1783 C.ar      23 UNK        -0.0193 
     14 C14        -2.1744  -16.6411  -47.1035 C.ar      23 UNK        -0.1150 
     15 C15        -4.4911  -16.6446  -46.0831 C.3       23 UNK        -0.0205 
     16 S16        -5.1209  -18.0839  -45.1549 S.3       23 UNK        -0.2404 
     17 C17        -3.5769  -18.9395  -44.6941 C.3       23 UNK        -0.0398 
     18 CA         -3.3230  -20.1932  -45.5765 C.3       11 UNK         0.1400 
     19 N          -1.9039  -20.3901  -45.8751 N.am      11 UNK        -0.5000 
     20 C          -1.4262  -21.1797  -46.8476 C.2       10 UNK         0.5000 
     21 O          -2.1366  -21.7609  -47.6679 O.2       10 UNK        -0.5000 
     22 CA          0.0994  -21.3923  -46.8893 C.3       10 UNK         0.1400 
     23 CB          0.7502  -20.4274  -47.8884 C.3       10 UNK        -0.1800 
     24 N           0.7289  -21.2396  -45.5745 N.am      10 UNK        -0.5000 
     25 C           0.5780  -22.1160  -44.5681 C.2       9 UNK         0.5000 
     26 O          -0.0531  -23.1657  -44.6776 O.2       9 UNK        -0.5000 
     27 CA          1.1630  -21.7328  -43.1923 C.3       9 UNK         0.1400 
     28 CB          2.6077  -22.2358  -43.0634 C.3       9 UNK        -0.1800 
     29 N           1.1317  -20.2932  -42.9311 N.am      9 UNK        -0.5000 
     30 C           0.0310  -19.5284  -42.9457 C.2       8 UNK         0.5000 
     31 O          -1.1065  -19.9892  -43.0429 O.2       8 UNK        -0.5000 
     32 CA          0.2234  -17.9971  -42.9171 C.3       8 UNK         0.1400 
     33 CB         -0.2002  -17.4400  -41.5528 C.3       8 UNK        -0.1800 
     34 N           1.5856  -17.5409  -43.2233 N.am      8 UNK        -0.5000 
     35 C           2.2629  -17.7840  -44.3578 C.2       7 UNK         0.5000 
     36 O           1.7885  -18.4234  -45.2968 O.2       7 UNK        -0.5000 
     37 CA          3.7199  -17.2858  -44.4506 C.3       7 UNK         0.1400 
     38 CB          3.9181  -16.3087  -45.6207 C.3       7 UNK        -0.1800 
     39 N           4.2032  -16.6645  -43.2158 N.am      7 UNK        -0.5000 
     40 C           4.6283  -17.3359  -42.1358 C.2       6 UNK         0.5000 
     41 O           4.6623  -18.5650  -42.0708 O.2       6 UNK        -0.5000 
     42 CA          5.0702  -16.4985  -40.9186 C.3       6 UNK         0.1400 
     43 CB          6.5986  -16.3448  -40.9040 C.3       6 UNK        -0.1800 
     44 N           4.4611  -15.1666  -40.8755 N.am      6 UNK        -0.5000 
     45 C           3.1658  -14.9206  -40.6296 C.2       5 UNK         0.5000 
     46 O           2.3410  -15.7999  -40.3878 O.2       5 UNK        -0.5000 
     47 CA          2.7118  -13.4495  -40.7188 C.3       5 UNK         0.1400 
     48 CB          2.8448  -12.7573  -39.3545 C.3       5 UNK        -0.1800 
     49 N           3.4620  -12.6923  -41.7257 N.am      5 UNK        -0.5000 
     50 C           3.3801  -12.9212  -43.0420 C.2       4 UNK         0.5000 
     51 O           2.6049  -13.7404  -43.5425 O.2       4 UNK        -0.5000 
     52 CA          4.3915  -12.1835  -43.9291 C.3       4 UNK         0.1400 
     53 CB          5.7505  -12.9139  -43.8625 C.3       4 UNK        -0.1800 
     54 N           3.8849  -12.1543  -45.2987 N.am      4 UNK        -0.5000 
     55 C           4.4465  -11.5316  -46.3429 C.2       3 UNK         0.5000 
     56 O           5.4708  -10.8516  -46.2715 O.2       3 UNK        -0.5000 
     57 CA          3.7372  -11.6883  -47.7010 C.3       3 UNK         0.1400 
     58 CB          4.0194  -13.0746  -48.3026 C.3       3 UNK        -0.1800 
     59 N           2.2917  -11.4912  -47.6097 N.am      3 UNK        -0.5000 
     60 C           1.6872  -10.3220  -47.3480 C.2       2 UNK         0.5000 
     61 O           2.2871   -9.2558  -47.2080 O.2       2 UNK        -0.5000 
     62 CA          0.1500  -10.3517  -47.2120 C.3       2 UNK         0.1400 
     63 CB         -0.5169   -9.9774  -48.5443 C.3       2 UNK        -0.1800 
     64 N          -0.3517  -11.6575  -46.7763 N.am      2 UNK        -0.5000 
     65 C          -0.1302  -12.1797  -45.5636 C.2       1 UNK         0.5000 
     66 O           0.4165  -11.5591  -44.6479 O.2       1 UNK        -0.5000 
     67 C          -3.9127  -21.4645  -44.9402 C.2       11 UNK         0.5000 
     68 O          -4.9539  -21.9454  -45.3869 O.2       11 UNK        -0.5000 
     69 N          -3.1984  -22.0169  -43.9474 N.am      12 UNK        -0.5000 
     70 CA         -3.5394  -23.2666  -43.2624 C.3       12 UNK         0.1400 
     71 CB         -2.5786  -23.4788  -42.0829 C.3       12 UNK        -0.1800 
     72 C          -3.5357  -24.4886  -44.2020 C.2       12 UNK         0.5000 
     73 O          -4.4133  -25.3451  -44.0915 O.2       12 UNK        -0.5000 
     74 N          -2.5750  -24.5230  -45.1353 N.am      13 UNK        -0.5000 
     75 CA         -2.4671  -25.5267  -46.1956 C.3       13 UNK         0.1400 
     76 CB         -1.0303  -25.5167  -46.7428 C.3       13 UNK        -0.1800 
     77 C          -3.4701  -25.3236  -47.3498 C.2       13 UNK         0.5000 
     78 O          -3.5517  -26.1931  -48.2173 O.2       13 UNK        -0.5000 
     79 N          -4.1774  -24.1825  -47.3743 N.am      14 UNK        -0.5000 
     80 CA         -5.1236  -23.7422  -48.4064 C.3       14 UNK         0.1400 
     81 CB         -6.4106  -24.5906  -48.3577 C.3       14 UNK        -0.1800 
     82 C          -4.4791  -23.6968  -49.8075 C.2       14 UNK         0.5000 
     83 O          -5.0184  -24.2589  -50.7599 O.2       14 UNK        -0.5000 
     84 N          -3.2984  -23.0650  -49.8780 N.am      15 UNK        -0.5000 
     85 CA         -2.4068  -22.9381  -51.0375 C.3       15 UNK         0.1400 
     86 CB         -3.1256  -22.2703  -52.2279 C.3       15 UNK        -0.1800 
     87 C          -1.7241  -24.2562  -51.4650 C.2       15 UNK         0.5000 
     88 O          -1.0625  -24.2707  -52.5037 O.2       15 UNK        -0.5000 
     89 N          -1.8890  -25.3344  -50.6823 N.am      16 UNK        -0.5000 
     90 CA         -1.3815  -26.7038  -50.8585 C.3       16 UNK         0.1400 
     91 CB          0.1580  -26.7365  -50.8988 C.3       16 UNK        -0.1800 
     92 C          -1.9952  -27.4724  -52.0484 C.2       16 UNK         0.5000 
     93 O          -2.3067  -28.6555  -51.9031 O.2       16 UNK        -0.5000 
     94 N          -2.1696  -26.7960  -53.1883 N.am      17 UNK        -0.5000 
     95 CA         -2.8955  -27.2610  -54.3667 C.3       17 UNK         0.1400 
     96 CB         -2.1960  -26.6965  -55.6204 C.3       17 UNK        -0.1800 
     97 C          -4.3816  -26.8569  -54.2437 C.2       17 UNK         0.5000 
     98 O          -4.9871  -27.0693  -53.1912 O.2       17 UNK        -0.5000 
     99 N          -4.9529  -26.2756  -55.3060 N.am      18 UNK        -0.5000 
    100 CA        -6.2478  -25.5979  -55.2689 C.3       18 UNK         0.1400 
    101 CB        -6.7824  -25.4570  -56.7023 C.3       18 UNK        -0.1800 
    102 C         -6.0813  -24.2134  -54.6211 C.2       18 UNK         0.5000 
    103 O         -5.0749  -23.5503  -54.8759 O.2       18 UNK        -0.5000 
    104 N         -7.0779  -23.7787  -53.8393 N.am      19 UNK        -0.5000 
    105 CA        -7.0512  -22.5440  -53.0416 C.3       19 UNK         0.1400 
    106 CB        -8.3269  -22.4738  -52.1886 C.3       19 UNK        -0.1800 
    107 C         -6.8581  -21.2393  -53.8419 C.2       19 UNK         0.5000 
    108 O         -6.4498  -20.2323  -53.2656 O.2       19 UNK        -0.5000 
    109 N         -7.1321  -21.2789  -55.1515 N.am      20 UNK        -0.5000 
    110 CA        -6.8949  -20.1834  -56.0892 C.3       20 UNK         0.1400 
    111 CB        -7.6928  -20.4586  -57.3733 C.3       20 UNK        -0.1800 
    112 C         -5.4046  -19.9586  -56.4233 C.2       20 UNK         0.5000 
    113 O         -5.0709  -18.8910  -56.9398 O.2       20 UNK        -0.5000 
    114 N         -4.5334  -20.9439  -56.1479 N.am      21 UNK        -0.5000 
    115 CA        -3.1168  -20.9409  -56.5342 C.3       21 UNK         0.1400 
    116 CB        -2.4950  -22.3139  -56.2335 C.3       21 UNK        -0.1800 
    117 C         -2.2726  -19.8100  -55.9124 C.2       21 UNK         0.5000 
    118 O         -1.2698  -19.4187  -56.5116 O.2       21 UNK        -0.5000 
    119 N         -2.6928  -19.2884  -54.7523 N.am      22 UNK        -0.5000 
    120 CA        -2.1111  -18.0893  -54.1247 C.3       22 UNK         0.1400 
    121 C         -2.6531  -16.7376  -54.6825 C.2       22 UNK         0.5000 
    122 N         -3.5971  -16.7193  -55.6171 N.am      22 UNK        -0.7600 
    123 O         -2.1882  -15.6760  -54.2761 O.2       22 UNK        -0.5000 
    124 C124       -2.1532  -18.1561  -52.5758 C.3       23 UNK        -0.0398 
    125 S125       -3.8271  -18.3531  -51.8728 S.3       23 UNK        -0.2404 
    126 C126       -3.4593  -19.2151  -50.3121 C.3       23 UNK        -0.0205 
    127 H127       -0.7111  -14.0378  -41.3978 H         1 UNK         0.0600 
    128 H128       -2.2315  -14.9402  -41.4439 H         1 UNK         0.0600 
    129 H129       -2.2468  -13.1832  -41.2634 H         1 UNK         0.0600 
    130 H130        0.2077  -14.0099  -43.4431 H         1 UNK         0.3000 
    131 H131       -1.4873  -13.8132  -45.8709 H         1 UNK         0.0600 
    132 H132        1.5328  -14.2746  -45.7727 H         1 UNK         0.0800 
    133 H133        0.4319  -15.5953  -45.5592 H         1 UNK         0.0800 
    134 H134        0.7142  -17.0932  -47.2367 H         1 UNK         0.0800 
    135 H135        0.7107  -16.8377  -48.9555 H         1 UNK         0.0800 
    136 H136       -0.9774  -18.1701  -49.8825 H         1 UNK         0.1150 
    137 H137       -4.9599  -18.1606  -48.3008 H         1 UNK         0.1150 
    138 H138       -1.8501  -16.0407  -46.2688 H         1 UNK         0.1150 
    139 H139       -4.0277  -15.9482  -45.3820 H         1 UNK         0.0800 
    140 H140       -5.3323  -16.1140  -46.5309 H         1 UNK         0.0800 
    141 H141       -3.6207  -19.1853  -43.6314 H         1 UNK         0.0800 
    142 H142       -2.7507  -18.2338  -44.7811 H         1 UNK         0.0800 
    143 H143       -3.8230  -20.0550  -46.5372 H         1 UNK         0.0600 
    144 H144       -1.2526  -20.0053  -45.2059 H         1 UNK         0.3000 
    145 H145        0.2816  -22.4097  -47.2400 H         1 UNK         0.0600 
    146 H146        1.8212  -20.6105  -47.9753 H         1 UNK         0.0600 
    147 H147        0.3162  -20.5404  -48.8828 H         1 UNK         0.0600 
    148 H148        0.6112  -19.3914  -47.5856 H         1 UNK         0.0600 
    149 H149        1.2327  -20.3732  -45.4114 H         1 UNK         0.3000 
    150 H150        0.5575  -22.2218  -42.4268 H         1 UNK         0.0600 
    151 H151        2.6631  -23.3122  -43.2316 H         1 UNK         0.0600 
    152 H152        3.0056  -22.0423  -42.0670 H         1 UNK         0.0600 
    153 H153        3.2672  -21.7550  -43.7872 H         1 UNK         0.0600 
    154 H154        2.0253  -19.8328  -42.8371 H         1 UNK         0.3000 
    155 H155       -0.4368  -17.5759  -43.6778 H         1 UNK         0.0600 
    156 H156        0.4098  -17.8486  -40.7461 H         1 UNK         0.0600 
    157 H157       -1.2414  -17.6814  -41.3348 H         1 UNK         0.0600 
    158 H158       -0.1042  -16.3562  -41.5249 H         1 UNK         0.0600 
    159 H159        2.0524  -17.0207  -42.4927 H         1 UNK         0.3000 
    160 H160        4.3293  -18.1678  -44.6583 H         1 UNK         0.0600 
    161 H161        3.4583  -15.3437  -45.4248 H         1 UNK         0.0600 
    162 H162        3.4902  -16.6981  -46.5456 H         1 UNK         0.0600 
    163 H163        4.9780  -16.1333  -45.8050 H         1 UNK         0.0600 
    164 H164        4.1565  -15.6569  -43.1723 H         1 UNK         0.3000 
    165 H165        4.7706  -17.0410  -40.0194 H         1 UNK         0.0600 
    166 H166        6.9339  -15.8185  -40.0101 H         1 UNK         0.0600 
    167 H167        7.0897  -17.3189  -40.9087 H         1 UNK         0.0600 
    168 H168        6.9563  -15.7925  -41.7740 H         1 UNK         0.0600 
    169 H169        5.0720  -14.3839  -41.0540 H         1 UNK         0.3000 
    170 H170        1.6577  -13.4440  -41.0028 H         1 UNK         0.0600 
    171 H171        2.2769  -13.2898  -38.5903 H         1 UNK         0.0600 
    172 H172        3.8828  -12.7146  -39.0222 H         1 UNK         0.0600 
    173 H173        2.4610  -11.7376  -39.3910 H         1 UNK         0.0600 
    174 H174        4.1180  -12.0058  -41.3813 H         1 UNK         0.3000 
    175 H175        4.4969  -11.1582  -43.5695 H         1 UNK         0.0600 
    176 H176        5.6849  -13.9212  -44.2759 H         1 UNK         0.0600 
    177 H177        6.5253  -12.3801  -44.4117 H         1 UNK         0.0600 
    178 H178        6.1037  -13.0033  -42.8347 H         1 UNK         0.0600 
    179 H179        3.0179  -12.6590  -45.4208 H         1 UNK         0.3000 
    180 H180        4.1411  -10.9340  -48.3797 H         1 UNK         0.0600 
    181 H181        3.6089  -13.8761  -47.6872 H         1 UNK         0.0600 
    182 H182        5.0922  -13.2490  -48.3947 H         1 UNK         0.0600 
    183 H183        3.5892  -13.1664  -49.3000 H         1 UNK         0.0600 
    184 H184        1.7141  -12.3087  -47.7385 H         1 UNK         0.3000 
    185 H185       -0.1323   -9.6069  -46.4648 H         1 UNK         0.0600 
    186 H186       -1.6015   -9.9322  -48.4437 H         1 UNK         0.0600 
    187 H187       -0.1823   -8.9970  -48.8863 H         1 UNK         0.0600 
    188 H188       -0.2812  -10.6970  -49.3293 H         1 UNK         0.0600 
    189 H189       -0.8010  -12.2250  -47.4815 H         1 UNK         0.3000 
    190 H190       -2.3628  -21.5359  -43.6325 H         1 UNK         0.3000 
    191 H191       -4.5499  -23.1588  -42.8632 H         1 UNK         0.0600 
    192 H192       -1.5489  -23.6028  -42.4181 H         1 UNK         0.0600 
    193 H193       -2.8481  -24.3717  -41.5175 H         1 UNK         0.0600 
    194 H194       -2.6072  -22.6353  -41.3928 H         1 UNK         0.0600 
    195 H195       -1.8352  -23.8278  -45.0962 H         1 UNK         0.3000 
    196 H196       -2.6607  -26.5105  -45.7636 H         1 UNK         0.0600 
    197 H197       -0.8870  -26.2982  -47.4901 H         1 UNK         0.0600 
    198 H198       -0.3035  -25.6914  -45.9494 H         1 UNK         0.0600 
    199 H199       -0.7896  -24.5644  -47.2156 H         1 UNK         0.0600 
    200 H200       -4.0379  -23.5253  -46.6174 H         1 UNK         0.3000 
    201 H201       -5.3945  -22.7147  -48.1592 H         1 UNK         0.0600 
    202 H202       -6.8558  -24.5716  -47.3629 H         1 UNK         0.0600 
    203 H203       -6.2205  -25.6317  -48.6206 H         1 UNK         0.0600 
    204 H204       -7.1566  -24.2078  -49.0552 H         1 UNK         0.0600 
    205 H205       -2.9359  -22.6484  -49.0199 H         1 UNK         0.3000 
    206 H206       -1.6070  -22.2701  -50.7151 H         1 UNK         0.0600 
    207 H207       -3.8004  -21.4764  -51.9138 H         1 UNK         0.0600 
    208 H208       -2.4049  -21.8341  -52.9194 H         1 UNK         0.0600 
    209 H209       -3.7170  -22.9950  -52.7849 H         1 UNK         0.0600 
    210 H210       -2.5158  -25.2330  -49.8934 H         1 UNK         0.3000 
    211 H211       -1.6889  -27.2398  -49.9594 H         1 UNK         0.0600 
    212 H212        0.5852  -26.2479  -50.0231 H         1 UNK         0.0600 
    213 H213        0.5555  -26.2445  -51.7867 H         1 UNK         0.0600 
    214 H214        0.5226  -27.7643  -50.9081 H         1 UNK         0.0600 
    215 H215       -1.8691  -25.8253  -53.1932 H         1 UNK         0.3000 
    216 H216       -2.8574  -28.3508  -54.4187 H         1 UNK         0.0600 
    217 H217       -2.6480  -27.0787  -56.5364 H         1 UNK         0.0600 
    218 H218       -1.1454  -26.9872  -55.6424 H         1 UNK         0.0600 
    219 H219       -2.2352  -25.6063  -55.6511 H         1 UNK         0.0600 
    220 H220       -4.3820  -26.0971  -56.1189 H         1 UNK         0.3000 
    221 H221       -6.9546  -26.1918  -54.6854 H         1 UNK         0.0600 
    222 H222       -6.1163  -24.8579  -57.3250 H         1 UNK         0.0600 
    223 H223       -6.8988  -26.4315  -57.1769 H         1 UNK         0.0600 
    224 H224       -7.7603  -24.9740  -56.7088 H         1 UNK         0.0600 
    225 H225       -7.8810  -24.3751  -53.7022 H         1 UNK         0.3000 
    226 H226       -6.1988  -22.6130  -52.3657 H         1 UNK         0.0600 
    227 H227       -8.4036  -23.3345  -51.5237 H         1 UNK         0.0600 
    228 H228       -8.3305  -21.5815  -51.5610 H         1 UNK         0.0600 
    229 H229       -9.2235  -22.4436  -52.8088 H         1 UNK         0.0600 
    230 H230       -7.4575  -22.1504  -55.5423 H         1 UNK         0.3000 
    231 H231       -7.2720  -19.2602  -55.6440 H         1 UNK         0.0600 
    232 H232       -8.7590  -20.5483  -57.1641 H         1 UNK         0.0600 
    233 H233       -7.3664  -21.3785  -57.8601 H         1 UNK         0.0600 
    234 H234       -7.5720  -19.6464  -58.0914 H         1 UNK         0.0600 
    235 H235       -4.8688  -21.7916  -55.6984 H         1 UNK         0.3000 
    236 H236       -3.0838  -20.7955  -57.6159 H         1 UNK         0.0600 
    237 H237       -1.4491  -22.3481  -56.5407 H         1 UNK         0.0600 
    238 H238       -2.5315  -22.5502  -55.1705 H         1 UNK         0.0600 
    239 H239       -3.0155  -23.1080  -56.7690 H         1 UNK         0.0600 
    240 H240       -3.5390  -19.6451  -54.3312 H         1 UNK         0.3000 
    241 H241       -1.0501  -18.0719  -54.3811 H         1 UNK         0.0600 
    242 H242       -3.9939  -17.5746  -55.9931 H         1 UNK         0.3800 
    243 H243       -3.9221  -15.8320  -55.9663 H         1 UNK         0.3800 
    244 H244       -1.6947  -17.2679  -52.1377 H         1 UNK         0.0800 
    245 H245       -1.5367  -18.9950  -52.2512 H         1 UNK         0.0800 
    246 H246       -4.3523  -19.7572  -49.9970 H         1 UNK         0.0800 
    247 H247       -2.6908  -19.9724  -50.4653 H         1 UNK         0.0800 
@<TRIPOS>BOND
     1    1    2 1    
     2    1  127 1    
     3    1  128 1    
     4    1  129 1    
     5    2    3 2    
     6    2    4 am   BACKBONE|DICT|INTERRES
     7    4    5 1    
     8    4  130 1    
     9    5    6 1    
    10    5   65 1    
    11    5  131 1    
    12    6    7 1    
    13    6  132 1    
    14    6  133 1    
    15    7    8 1    
    16    8    9 1    
    17    8  134 1    
    18    8  135 1    
    19    9   10 ar   
    20    9   14 ar   
    21   10   11 ar   
    22   10  136 1    
    23   11   12 ar   
    24   11  126 1    
    25   12   13 ar   
    26   12  137 1    
    27   13   14 ar   
    28   13   15 1    
    29   14  138 1    
    30   15   16 1    
    31   15  139 1    
    32   15  140 1    
    33   16   17 1    
    34   17   18 1    
    35   17  141 1    
    36   17  142 1    
    37   18   19 1    
    38   18   67 1    
    39   18  143 1    
    40   19   20 am   BACKBONE|DICT|INTERRES
    41   19  144 1    
    42   20   21 2    
    43   20   22 1    
    44   22   23 1    
    45   22   24 1    
    46   22  145 1    
    47   23  146 1    
    48   23  147 1    
    49   23  148 1    
    50   24   25 am   BACKBONE|DICT|INTERRES
    51   24  149 1    
    52   25   26 2    
    53   25   27 1    
    54   27   28 1    
    55   27   29 1    
    56   27  150 1    
    57   28  151 1    
    58   28  152 1    
    59   28  153 1    
    60   29   30 am   BACKBONE|DICT|INTERRES
    61   29  154 1    
    62   30   31 2    
    63   30   32 1    
    64   32   33 1    
    65   32   34 1    
    66   32  155 1    
    67   33  156 1    
    68   33  157 1    
    69   33  158 1    
    70   34   35 am   BACKBONE|DICT|INTERRES
    71   34  159 1    
    72   35   36 2    
    73   35   37 1    
    74   37   38 1    
    75   37   39 1    
    76   37  160 1    
    77   38  161 1    
    78   38  162 1    
    79   38  163 1    
    80   39   40 am   BACKBONE|DICT|INTERRES
    81   39  164 1    
    82   40   41 2    
    83   40   42 1    
    84   42   43 1    
    85   42   44 1    
    86   42  165 1    
    87   43  166 1    
    88   43  167 1    
    89   43  168 1    
    90   44   45 am   BACKBONE|DICT|INTERRES
    91   44  169 1    
    92   45   46 2    
    93   45   47 1    
    94   47   48 1    
    95   47   49 1    
    96   47  170 1    
    97   48  171 1    
    98   48  172 1    
    99   48  173 1    
   100   49   50 am   BACKBONE|DICT|INTERRES
   101   49  174 1    
   102   50   51 2    
   103   50   52 1    
   104   52   53 1    
   105   52   54 1    
   106   52  175 1    
   107   53  176 1    
   108   53  177 1    
   109   53  178 1    
   110   54   55 am   BACKBONE|DICT|INTERRES
   111   54  179 1    
   112   55   56 2    
   113   55   57 1    
   114   57   58 1    
   115   57   59 1    
   116   57  180 1    
   117   58  181 1    
   118   58  182 1    
   119   58  183 1    
   120   59   60 am   BACKBONE|DICT|INTERRES
   121   59  184 1    
   122   60   61 2    
   123   60   62 1    
   124   62   63 1    
   125   62   64 1    
   126   62  185 1    
   127   63  186 1    
   128   63  187 1    
   129   63  188 1    
   130   64   65 am   BACKBONE|DICT|INTERRES
   131   64  189 1    
   132   65   66 2    
   133   67   68 2    
   134   67   69 am   BACKBONE|DICT|INTERRES
   135   69   70 1    
   136   69  190 1    
   137   70   71 1    
   138   70   72 1    
   139   70  191 1    
   140   71  192 1    
   141   71  193 1    
   142   71  194 1    
   143   72   73 2    
   144   72   74 am   BACKBONE|DICT|INTERRES
   145   74   75 1    
   146   74  195 1    
   147   75   76 1    
   148   75   77 1    
   149   75  196 1    
   150   76  197 1    
   151   76  198 1    
   152   76  199 1    
   153   77   78 2    
   154   77   79 am   BACKBONE|DICT|INTERRES
   155   79   80 1    
   156   79  200 1    
   157   80   81 1    
   158   80   82 1    
   159   80  201 1    
   160   81  202 1    
   161   81  203 1    
   162   81  204 1    
   163   82   83 2    
   164   82   84 am   BACKBONE|DICT|INTERRES
   165   84   85 1    
   166   84  205 1    
   167   85   86 1    
   168   85   87 1    
   169   85  206 1    
   170   86  207 1    
   171   86  208 1    
   172   86  209 1    
   173   87   88 2    
   174   87   89 am   BACKBONE|DICT|INTERRES
   175   89   90 1    
   176   89  210 1    
   177   90   91 1    
   178   90   92 1    
   179   90  211 1    
   180   91  212 1    
   181   91  213 1    
   182   91  214 1    
   183   92   93 2    
   184   92   94 am   BACKBONE|DICT|INTERRES
   185   94   95 1    
   186   94  215 1    
   187   95   96 1    
   188   95   97 1    
   189   95  216 1    
   190   96  217 1    
   191   96  218 1    
   192   96  219 1    
   193   97   98 2    
   194   97   99 am   BACKBONE|DICT|INTERRES
   195   99  100 1    
   196   99  220 1    
   197  100  101 1    
   198  100  102 1    
   199  100  221 1    
   200  101  222 1    
   201  101  223 1    
   202  101  224 1    
   203  102  103 2    
   204  102  104 am   BACKBONE|DICT|INTERRES
   205  104  105 1    
   206  104  225 1    
   207  105  106 1    
   208  105  107 1    
   209  105  226 1    
   210  106  227 1    
   211  106  228 1    
   212  106  229 1    
   213  107  108 2    
   214  107  109 am   BACKBONE|DICT|INTERRES
   215  109  110 1    
   216  109  230 1    
   217  110  111 1    
   218  110  112 1    
   219  110  231 1    
   220  111  232 1    
   221  111  233 1    
   222  111  234 1    
   223  112  113 2    
   224  112  114 am   BACKBONE|DICT|INTERRES
   225  114  115 1    
   226  114  235 1    
   227  115  116 1    
   228  115  117 1    
   229  115  236 1    
   230  116  237 1    
   231  116  238 1    
   232  116  239 1    
   233  117  118 2    
   234  117  119 am   BACKBONE|DICT|INTERRES
   235  119  120 1    
   236  119  240 1    
   237  120  121 1    
   238  120  124 1    
   239  120  241 1    
   240  121  122 am   BACKBONE|DICT|INTERRES
   241  121  123 2    
   242  122  242 1    
   243  122  243 1    
   244  124  125 1    
   245  124  244 1    
   246  124  245 1    
   247  125  126 1    
   248  126  246 1    
   249  126  247 1    
@<TRIPOS>SUBSTRUCTURE
     1 UNK         1 GROUP             0       ****    0 ROOT    
