@<TRIPOS>MOLECULE
3R540
247   249    1
SMALL
USER_CHARGES


@<TRIPOS>ATOM
      1 CA          4.1489  -15.3560  -46.8411 C.3       0 UNK        -0.1800 
      2 C           3.0062  -14.4453  -47.2648 C.2       0 UNK         0.5000 
      3 O           2.2379  -13.9973  -46.4157 O.2       0 UNK        -0.5000 
      4 N           2.8854  -14.1697  -48.5708 N.am      1 UNK        -0.5000 
      5 CA          1.8175  -13.3724  -49.1922 C.3       1 UNK         0.1400 
      6 C6          1.6840  -13.6702  -50.7117 C.3       23 UNK        -0.0398 
      7 S7          1.4280  -15.4143  -51.2049 S.3       23 UNK        -0.2404 
      8 C8          0.4470  -16.1401  -49.8521 C.3       23 UNK        -0.0205 
      9 C9          0.0511  -17.5726  -50.1723 C.ar      23 UNK        -0.0193 
     10 C10        -1.2859  -17.9033  -50.4134 C.ar      23 UNK        -0.1150 
     11 C11        -1.6472  -19.2216  -50.7050 C.ar      23 UNK        -0.0193 
     12 C12        -0.6649  -20.2141  -50.7329 C.ar      23 UNK        -0.1150 
     13 C13         0.6749  -19.8988  -50.4970 C.ar      23 UNK        -0.0193 
     14 C14         1.0270  -18.5727  -50.2247 C.ar      23 UNK        -0.1150 
     15 C15         1.7255  -21.0020  -50.5617 C.3       23 UNK        -0.0205 
     16 S16         2.9066  -21.0190  -49.1680 S.3       23 UNK        -0.2404 
     17 C17         1.8589  -20.7446  -47.6987 C.3       23 UNK        -0.0398 
     18 CA          1.2675  -22.0324  -47.0816 C.3       11 UNK         0.1400 
     19 N           0.9869  -21.8493  -45.6570 N.am      11 UNK        -0.5000 
     20 C           0.6171  -22.8151  -44.8070 C.2       10 UNK         0.5000 
     21 O           0.5192  -24.0019  -45.1184 O.2       10 UNK        -0.5000 
     22 CA          0.2456  -22.3664  -43.3815 C.3       10 UNK         0.1400 
     23 CB          1.5038  -22.1517  -42.5274 C.3       10 UNK        -0.1800 
     24 N          -0.5702  -21.1497  -43.3744 N.am      10 UNK        -0.5000 
     25 C          -1.8033  -21.0703  -43.8957 C.2       9 UNK         0.5000 
     26 O          -2.3973  -22.0298  -44.3872 O.2       9 UNK        -0.5000 
     27 CA         -2.4720  -19.6840  -43.9087 C.3       9 UNK         0.1400 
     28 CB         -3.0733  -19.3574  -42.5338 C.3       9 UNK        -0.1800 
     29 N          -1.5629  -18.6129  -44.3199 N.am      9 UNK        -0.5000 
     30 C          -0.9838  -18.5250  -45.5265 C.2       8 UNK         0.5000 
     31 O          -1.1757  -19.3289  -46.4355 O.2       8 UNK        -0.5000 
     32 CA          0.0235  -17.3806  -45.7389 C.3       8 UNK         0.1400 
     33 CB         -0.7091  -16.0580  -46.0073 C.3       8 UNK        -0.1800 
     34 N           0.9440  -17.2304  -44.6102 N.am      8 UNK        -0.5000 
     35 C           1.7784  -18.1899  -44.1817 C.2       7 UNK         0.5000 
     36 O           1.9043  -19.2843  -44.7282 O.2       7 UNK        -0.5000 
     37 CA          2.5547  -17.9091  -42.8875 C.3       7 UNK         0.1400 
     38 CB          3.7928  -17.0418  -43.1625 C.3       7 UNK        -0.1800 
     39 N           1.6986  -17.2761  -41.8850 N.am      7 UNK        -0.5000 
     40 C           0.7165  -17.9124  -41.2292 C.2       6 UNK         0.5000 
     41 O           0.4661  -19.1097  -41.3708 O.2       6 UNK        -0.5000 
     42 CA         -0.1552  -17.0627  -40.2850 C.3       6 UNK         0.1400 
     43 CB          0.5019  -16.9454  -38.9018 C.3       6 UNK        -0.1800 
     44 N          -0.4202  -15.7226  -40.8108 N.am      6 UNK        -0.5000 
     45 C          -1.1641  -15.4705  -41.8969 C.2       5 UNK         0.5000 
     46 O          -1.7477  -16.3420  -42.5394 O.2       5 UNK        -0.5000 
     47 CA         -1.2278  -14.0074  -42.3760 C.3       5 UNK         0.1400 
     48 CB         -2.3897  -13.2673  -41.6979 C.3       5 UNK        -0.1800 
     49 N           0.0116  -13.2533  -42.1669 N.am      5 UNK        -0.5000 
     50 C           1.2173  -13.5869  -42.6442 C.2       4 UNK         0.5000 
     51 O           1.4268  -14.6210  -43.2792 O.2       4 UNK        -0.5000 
     52 CA          2.3687  -12.6017  -42.3510 C.3       4 UNK         0.1400 
     53 CB          3.7389  -13.1522  -42.7856 C.3       4 UNK        -0.1800 
     54 N           2.1603  -11.3100  -43.0039 N.am      4 UNK        -0.5000 
     55 C           1.2909  -10.3611  -42.6297 C.2       3 UNK         0.5000 
     56 O           0.5714  -10.4562  -41.6338 O.2       3 UNK        -0.5000 
     57 CA          1.2038   -9.0968  -43.5108 C.3       3 UNK         0.1400 
     58 CB          1.8894   -7.9104  -42.8154 C.3       3 UNK        -0.1800 
     59 N           1.7903   -9.2646  -44.8449 N.am      3 UNK        -0.5000 
     60 C           1.2681  -10.0137  -45.8254 C.2       2 UNK         0.5000 
     61 O           0.2026  -10.6242  -45.7143 O.2       2 UNK        -0.5000 
     62 CA          2.0667  -10.1145  -47.1380 C.3       2 UNK         0.1400 
     63 CB          3.5579   -9.7355  -47.0044 C.3       2 UNK        -0.1800 
     64 N           1.9480  -11.4766  -47.6437 N.am      2 UNK        -0.5000 
     65 C           2.0009  -11.8582  -48.9212 C.2       1 UNK         0.5000 
     66 O           2.1978  -11.0748  -49.8526 O.2       1 UNK        -0.5000 
     67 C           0.0185  -22.5186  -47.8475 C.2       11 UNK         0.5000 
     68 O           0.1144  -23.4709  -48.6200 O.2       11 UNK        -0.5000 
     69 N          -1.1395  -21.8955  -47.5853 N.am      12 UNK        -0.5000 
     70 CA         -2.4377  -22.2711  -48.1443 C.3       12 UNK         0.1400 
     71 CB         -3.5013  -21.2467  -47.7267 C.3       12 UNK        -0.1800 
     72 C          -2.8676  -23.6917  -47.7485 C.2       12 UNK         0.5000 
     73 O          -3.3411  -24.4359  -48.6068 O.2       12 UNK        -0.5000 
     74 N          -2.6607  -24.0560  -46.4750 N.am      13 UNK        -0.5000 
     75 CA         -2.8970  -25.3983  -45.9440 C.3       13 UNK         0.1400 
     76 CB         -2.7444  -25.3893  -44.4160 C.3       13 UNK        -0.1800 
     77 C          -1.9804  -26.4550  -46.5867 C.2       13 UNK         0.5000 
     78 O          -2.4687  -27.5137  -46.9830 O.2       13 UNK        -0.5000 
     79 N          -0.6870  -26.1312  -46.7361 N.am      14 UNK        -0.5000 
     80 CA          0.3068  -26.9570  -47.4314 C.3       14 UNK         0.1400 
     81 CB          1.7052  -26.3518  -47.2386 C.3       14 UNK        -0.1800 
     82 C          -0.0070  -27.1487  -48.9295 C.2       14 UNK         0.5000 
     83 O           0.2671  -28.2160  -49.4781 O.2       14 UNK        -0.5000 
     84 N          -0.6314  -26.1361  -49.5442 N.am      15 UNK        -0.5000 
     85 CA         -1.1703  -26.1484  -50.9053 C.3       15 UNK         0.1400 
     86 CB         -1.2116  -24.7020  -51.4292 C.3       15 UNK        -0.1800 
     87 C          -2.5492  -26.8430  -51.0220 C.2       15 UNK         0.5000 
     88 O          -3.1946  -26.7173  -52.0630 O.2       15 UNK        -0.5000 
     89 N          -2.9716  -27.5688  -49.9748 N.am      16 UNK        -0.5000 
     90 CA         -4.2043  -28.3543  -49.8593 C.3       16 UNK         0.1400 
     91 CB         -4.2683  -29.4680  -50.9268 C.3       16 UNK        -0.1800 
     92 C          -5.4700  -27.4770  -49.8038 C.2       16 UNK         0.5000 
     93 O          -6.4660  -27.7796  -50.4635 O.2       16 UNK        -0.5000 
     94 N          -5.3990  -26.4136  -48.9909 N.am      17 UNK        -0.5000 
     95 CA         -6.4371  -25.4111  -48.7313 C.3       17 UNK         0.1400 
     96 CB         -7.6808  -26.0459  -48.0739 C.3       17 UNK        -0.1800 
     97 C          -6.7580  -24.5738  -49.9841 C.2       17 UNK         0.5000 
     98 O          -7.9268  -24.3834  -50.3280 O.2       17 UNK        -0.5000 
     99 N          -5.6990  -24.0971  -50.6509 N.am      18 UNK        -0.5000 
    100 CA        -5.7826  -23.2181  -51.8167 C.3       18 UNK         0.1400 
    101 CB        -4.4043  -23.1442  -52.4884 C.3       18 UNK        -0.1800 
    102 C         -6.2834  -21.8116  -51.4350 C.2       18 UNK         0.5000 
    103 O         -5.9715  -21.3244  -50.3464 O.2       18 UNK        -0.5000 
    104 N         -7.0342  -21.1814  -52.3438 N.am      19 UNK        -0.5000 
    105 CA        -7.6288  -19.8589  -52.1665 C.3       19 UNK         0.1400 
    106 CB        -8.8784  -19.9509  -51.2663 C.3       19 UNK        -0.1800 
    107 C         -7.9279  -19.2701  -53.5531 C.2       19 UNK         0.5000 
    108 O         -9.0898  -19.1606  -53.9492 O.2       19 UNK        -0.5000 
    109 N         -6.8601  -18.9477  -54.2871 N.am      20 UNK        -0.5000 
    110 CA        -6.8949  -18.3634  -55.6263 C.3       20 UNK         0.1400 
    111 CB        -7.0469  -19.4806  -56.6814 C.3       20 UNK        -0.1800 
    112 C         -5.6363  -17.4958  -55.8027 C.2       20 UNK         0.5000 
    113 O         -5.2206  -16.8350  -54.8486 O.2       20 UNK        -0.5000 
    114 N         -5.0032  -17.5432  -56.9822 N.am      21 UNK        -0.5000 
    115 CA        -3.7023  -16.9285  -57.2756 C.3       21 UNK         0.1400 
    116 CB        -3.6090  -16.6673  -58.7898 C.3       21 UNK        -0.1800 
    117 C         -2.5345  -17.7940  -56.7446 C.2       21 UNK         0.5000 
    118 O         -1.5857  -18.0853  -57.4751 O.2       21 UNK        -0.5000 
    119 N         -2.6589  -18.2293  -55.4879 N.am      22 UNK        -0.5000 
    120 CA        -1.7555  -19.1491  -54.7851 C.3       22 UNK         0.1400 
    121 C         -0.5047  -18.4751  -54.1537 C.2       22 UNK         0.5000 
    122 N         -0.4811  -17.1606  -53.9692 N.am      22 UNK        -0.7600 
    123 O          0.4751  -19.1555  -53.8652 O.2       22 UNK        -0.5000 
    124 C124       -2.5411  -20.0245  -53.7696 C.3       23 UNK        -0.0398 
    125 S125       -3.6364  -19.0711  -52.6500 S.3       23 UNK        -0.2404 
    126 C126       -3.0975  -19.5794  -50.9871 C.3       23 UNK        -0.0205 
    127 H127        4.7809  -14.8498  -46.1114 H         1 UNK         0.0600 
    128 H128        4.7699  -15.6495  -47.6876 H         1 UNK         0.0600 
    129 H129        3.7513  -16.2600  -46.3791 H         1 UNK         0.0600 
    130 H130        3.5632  -14.5501  -49.2157 H         1 UNK         0.3000 
    131 H131        0.8729  -13.6460  -48.7185 H         1 UNK         0.0600 
    132 H132        2.5725  -13.3207  -51.2406 H         1 UNK         0.0800 
    133 H133        0.8500  -13.1004  -51.1256 H         1 UNK         0.0800 
    134 H134        1.0209  -16.1393  -48.9256 H         1 UNK         0.0800 
    135 H135       -0.4384  -15.5270  -49.6774 H         1 UNK         0.0800 
    136 H136       -2.0464  -17.1358  -50.3879 H         1 UNK         0.1150 
    137 H137       -0.9416  -21.2352  -50.9536 H         1 UNK         0.1150 
    138 H138        2.0625  -18.3174  -50.0496 H         1 UNK         0.1150 
    139 H139        1.2481  -21.9814  -50.6150 H         1 UNK         0.0800 
    140 H140        2.2848  -20.8895  -51.4912 H         1 UNK         0.0800 
    141 H141        1.0874  -19.9971  -47.8813 H         1 UNK         0.0800 
    142 H142        2.5311  -20.2800  -46.9780 H         1 UNK         0.0800 
    143 H143        2.0204  -22.8205  -47.1486 H         1 UNK         0.0600 
    144 H144        1.0836  -20.9022  -45.2996 H         1 UNK         0.3000 
    145 H145       -0.3415  -23.1658  -42.9247 H         1 UNK         0.0600 
    146 H146        1.2430  -21.9062  -41.4978 H         1 UNK         0.0600 
    147 H147        2.1170  -23.0533  -42.5023 H         1 UNK         0.0600 
    148 H148        2.1233  -21.3432  -42.9160 H         1 UNK         0.0600 
    149 H149       -0.1602  -20.3255  -42.9486 H         1 UNK         0.3000 
    150 H150       -3.2881  -19.7187  -44.6331 H         1 UNK         0.0600 
    151 H151       -3.7611  -20.1403  -42.2117 H         1 UNK         0.0600 
    152 H152       -3.6348  -18.4235  -42.5617 H         1 UNK         0.0600 
    153 H153       -2.3023  -19.2613  -41.7690 H         1 UNK         0.0600 
    154 H154       -1.3975  -17.8743  -43.6417 H         1 UNK         0.3000 
    155 H155        0.6217  -17.6212  -46.6204 H         1 UNK         0.0600 
    156 H156       -0.0094  -15.2428  -46.1819 H         1 UNK         0.0600 
    157 H157       -1.3409  -16.1385  -46.8928 H         1 UNK         0.0600 
    158 H158       -1.3494  -15.7736  -45.1730 H         1 UNK         0.0600 
    159 H159        0.9405  -16.3387  -44.1229 H         1 UNK         0.3000 
    160 H160        2.8987  -18.8648  -42.4859 H         1 UNK         0.0600 
    161 H161        3.5339  -16.1014  -43.6483 H         1 UNK         0.0600 
    162 H162        4.4880  -17.5626  -43.8220 H         1 UNK         0.0600 
    163 H163        4.3285  -16.8109  -42.2418 H         1 UNK         0.0600 
    164 H164        1.7801  -16.2733  -41.7918 H         1 UNK         0.3000 
    165 H165       -1.1119  -17.5755  -40.1652 H         1 UNK         0.0600 
    166 H166       -0.1426  -16.4116  -38.2032 H         1 UNK         0.0600 
    167 H167        0.6938  -17.9315  -38.4768 H         1 UNK         0.0600 
    168 H168        1.4552  -16.4176  -38.9508 H         1 UNK         0.0600 
    169 H169        0.0247  -14.9475  -40.3419 H         1 UNK         0.3000 
    170 H170       -1.4170  -14.0245  -43.4509 H         1 UNK         0.0600 
    171 H171       -3.3332  -13.7910  -41.8574 H         1 UNK         0.0600 
    172 H172       -2.2382  -13.1817  -40.6211 H         1 UNK         0.0600 
    173 H173       -2.5051  -12.2611  -42.1016 H         1 UNK         0.0600 
    174 H174       -0.0700  -12.3576  -41.6966 H         1 UNK         0.3000 
    175 H175        2.3995  -12.4458  -41.2707 H         1 UNK         0.0600 
    176 H176        3.9651  -14.0852  -42.2687 H         1 UNK         0.0600 
    177 H177        3.7724  -13.3516  -43.8579 H         1 UNK         0.0600 
    178 H178        4.5398  -12.4515  -42.5492 H         1 UNK         0.0600 
    179 H179        2.6865  -11.1532  -43.8499 H         1 UNK         0.3000 
    180 H180        0.1451   -8.8573  -43.6301 H         1 UNK         0.0600 
    181 H181        2.9569   -8.0866  -42.6778 H         1 UNK         0.0600 
    182 H182        1.4568   -7.7307  -41.8302 H         1 UNK         0.0600 
    183 H183        1.7710   -6.9926  -43.3918 H         1 UNK         0.0600 
    184 H184        2.6673   -8.7925  -45.0123 H         1 UNK         0.3000 
    185 H185        1.5923   -9.4297  -47.8437 H         1 UNK         0.0600 
    186 H186        3.6816   -8.6930  -46.7095 H         1 UNK         0.0600 
    187 H187        4.0679  -10.3591  -46.2689 H         1 UNK         0.0600 
    188 H188        4.0795   -9.8552  -47.9541 H         1 UNK         0.0600 
    189 H189        1.7924  -12.1978  -46.9426 H         1 UNK         0.3000 
    190 H190       -1.1313  -21.0735  -46.9846 H         1 UNK         0.3000 
    191 H191       -2.3501  -22.2464  -49.2310 H         1 UNK         0.0600 
    192 H192       -3.6216  -21.2067  -46.6446 H         1 UNK         0.0600 
    193 H193       -4.4725  -21.4965  -48.1538 H         1 UNK         0.0600 
    194 H194       -3.2410  -20.2456  -48.0692 H         1 UNK         0.0600 
    195 H195       -2.3194  -23.3598  -45.8181 H         1 UNK         0.3000 
    196 H196       -3.9289  -25.6693  -46.1766 H         1 UNK         0.0600 
    197 H197       -2.9402  -26.3775  -43.9981 H         1 UNK         0.0600 
    198 H198       -3.4479  -24.6956  -43.9551 H         1 UNK         0.0600 
    199 H199       -1.7400  -25.0964  -44.1107 H         1 UNK         0.0600 
    200 H200       -0.3538  -25.2539  -46.3456 H         1 UNK         0.3000 
    201 H201        0.2983  -27.9447  -46.9660 H         1 UNK         0.0600 
    202 H202        1.9600  -26.2772  -46.1812 H         1 UNK         0.0600 
    203 H203        1.7762  -25.3536  -47.6702 H         1 UNK         0.0600 
    204 H204        2.4673  -26.9700  -47.7145 H         1 UNK         0.0600 
    205 H205       -0.7468  -25.2688  -49.0300 H         1 UNK         0.3000 
    206 H206       -0.4839  -26.7102  -51.5415 H         1 UNK         0.0600 
    207 H207       -0.2255  -24.2393  -51.3859 H         1 UNK         0.0600 
    208 H208       -1.5395  -24.6641  -52.4684 H         1 UNK         0.0600 
    209 H209       -1.8927  -24.0852  -50.8447 H         1 UNK         0.0600 
    210 H210       -2.3931  -27.5697  -49.1436 H         1 UNK         0.3000 
    211 H211       -4.1471  -28.8491  -48.8888 H         1 UNK         0.0600 
    212 H212       -4.3998  -29.0654  -51.9313 H         1 UNK         0.0600 
    213 H213       -5.1049  -30.1409  -50.7357 H         1 UNK         0.0600 
    214 H214       -3.3605  -30.0712  -50.9222 H         1 UNK         0.0600 
    215 H215       -4.4944  -26.1942  -48.5905 H         1 UNK         0.3000 
    216 H216       -6.0131  -24.7153  -48.0060 H         1 UNK         0.0600 
    217 H217       -8.2068  -26.7161  -48.7541 H         1 UNK         0.0600 
    218 H218       -8.3896  -25.2777  -47.7631 H         1 UNK         0.0600 
    219 H219       -7.4092  -26.6148  -47.1847 H         1 UNK         0.0600 
    220 H220       -4.7777  -24.2734  -50.2699 H         1 UNK         0.3000 
    221 H221       -6.4867  -23.6607  -52.5245 H         1 UNK         0.0600 
    222 H222       -4.0679  -24.1319  -52.8037 H         1 UNK         0.0600 
    223 H223       -3.6504  -22.7314  -51.8191 H         1 UNK         0.0600 
    224 H224       -4.4387  -22.5155  -53.3781 H         1 UNK         0.0600 
    225 H225       -7.2279  -21.6285  -53.2297 H         1 UNK         0.3000 
    226 H226       -6.9039  -19.1990  -51.6844 H         1 UNK         0.0600 
    227 H227       -9.3566  -18.9764  -51.1611 H         1 UNK         0.0600 
    228 H228       -9.6180  -20.6405  -51.6746 H         1 UNK         0.0600 
    229 H229       -8.6213  -20.2934  -50.2639 H         1 UNK         0.0600 
    230 H230       -5.9403  -19.0148  -53.8694 H         1 UNK         0.3000 
    231 H231       -7.7496  -17.6883  -55.7031 H         1 UNK         0.0600 
    232 H232       -6.1897  -20.1553  -56.6803 H         1 UNK         0.0600 
    233 H233       -7.1535  -19.0697  -57.6859 H         1 UNK         0.0600 
    234 H234       -7.9375  -20.0801  -56.4925 H         1 UNK         0.0600 
    235 H235       -5.3838  -18.1377  -57.7044 H         1 UNK         0.3000 
    236 H236       -3.6416  -15.9629  -56.7693 H         1 UNK         0.0600 
    237 H237       -4.4254  -16.0305  -59.1306 H         1 UNK         0.0600 
    238 H238       -2.6773  -16.1600  -59.0437 H         1 UNK         0.0600 
    239 H239       -3.6459  -17.5953  -59.3617 H         1 UNK         0.0600 
    240 H240       -3.4543  -17.9031  -54.9506 H         1 UNK         0.3000 
    241 H241       -1.3540  -19.8363  -55.5326 H         1 UNK         0.0600 
    242 H242        0.3288  -16.7388  -53.5429 H         1 UNK         0.3800 
    243 H243       -1.2798  -16.5954  -54.2055 H         1 UNK         0.3800 
    244 H244       -1.8668  -20.6643  -53.2004 H         1 UNK         0.0800 
    245 H245       -3.1794  -20.7100  -54.3272 H         1 UNK         0.0800 
    246 H246       -3.7388  -19.0939  -50.2504 H         1 UNK         0.0800 
    247 H247       -3.2618  -20.6493  -50.8670 H         1 UNK         0.0800 
@<TRIPOS>BOND
     1    1    2 1    
     2    1  127 1    
     3    1  128 1    
     4    1  129 1    
     5    2    3 2    
     6    2    4 am   BACKBONE|DICT|INTERRES
     7    4    5 1    
     8    4  130 1    
     9    5    6 1    
    10    5   65 1    
    11    5  131 1    
    12    6    7 1    
    13    6  132 1    
    14    6  133 1    
    15    7    8 1    
    16    8    9 1    
    17    8  134 1    
    18    8  135 1    
    19    9   10 ar   
    20    9   14 ar   
    21   10   11 ar   
    22   10  136 1    
    23   11   12 ar   
    24   11  126 1    
    25   12   13 ar   
    26   12  137 1    
    27   13   14 ar   
    28   13   15 1    
    29   14  138 1    
    30   15   16 1    
    31   15  139 1    
    32   15  140 1    
    33   16   17 1    
    34   17   18 1    
    35   17  141 1    
    36   17  142 1    
    37   18   19 1    
    38   18   67 1    
    39   18  143 1    
    40   19   20 am   BACKBONE|DICT|INTERRES
    41   19  144 1    
    42   20   21 2    
    43   20   22 1    
    44   22   23 1    
    45   22   24 1    
    46   22  145 1    
    47   23  146 1    
    48   23  147 1    
    49   23  148 1    
    50   24   25 am   BACKBONE|DICT|INTERRES
    51   24  149 1    
    52   25   26 2    
    53   25   27 1    
    54   27   28 1    
    55   27   29 1    
    56   27  150 1    
    57   28  151 1    
    58   28  152 1    
    59   28  153 1    
    60   29   30 am   BACKBONE|DICT|INTERRES
    61   29  154 1    
    62   30   31 2    
    63   30   32 1    
    64   32   33 1    
    65   32   34 1    
    66   32  155 1    
    67   33  156 1    
    68   33  157 1    
    69   33  158 1    
    70   34   35 am   BACKBONE|DICT|INTERRES
    71   34  159 1    
    72   35   36 2    
    73   35   37 1    
    74   37   38 1    
    75   37   39 1    
    76   37  160 1    
    77   38  161 1    
    78   38  162 1    
    79   38  163 1    
    80   39   40 am   BACKBONE|DICT|INTERRES
    81   39  164 1    
    82   40   41 2    
    83   40   42 1    
    84   42   43 1    
    85   42   44 1    
    86   42  165 1    
    87   43  166 1    
    88   43  167 1    
    89   43  168 1    
    90   44   45 am   BACKBONE|DICT|INTERRES
    91   44  169 1    
    92   45   46 2    
    93   45   47 1    
    94   47   48 1    
    95   47   49 1    
    96   47  170 1    
    97   48  171 1    
    98   48  172 1    
    99   48  173 1    
   100   49   50 am   BACKBONE|DICT|INTERRES
   101   49  174 1    
   102   50   51 2    
   103   50   52 1    
   104   52   53 1    
   105   52   54 1    
   106   52  175 1    
   107   53  176 1    
   108   53  177 1    
   109   53  178 1    
   110   54   55 am   BACKBONE|DICT|INTERRES
   111   54  179 1    
   112   55   56 2    
   113   55   57 1    
   114   57   58 1    
   115   57   59 1    
   116   57  180 1    
   117   58  181 1    
   118   58  182 1    
   119   58  183 1    
   120   59   60 am   BACKBONE|DICT|INTERRES
   121   59  184 1    
   122   60   61 2    
   123   60   62 1    
   124   62   63 1    
   125   62   64 1    
   126   62  185 1    
   127   63  186 1    
   128   63  187 1    
   129   63  188 1    
   130   64   65 am   BACKBONE|DICT|INTERRES
   131   64  189 1    
   132   65   66 2    
   133   67   68 2    
   134   67   69 am   BACKBONE|DICT|INTERRES
   135   69   70 1    
   136   69  190 1    
   137   70   71 1    
   138   70   72 1    
   139   70  191 1    
   140   71  192 1    
   141   71  193 1    
   142   71  194 1    
   143   72   73 2    
   144   72   74 am   BACKBONE|DICT|INTERRES
   145   74   75 1    
   146   74  195 1    
   147   75   76 1    
   148   75   77 1    
   149   75  196 1    
   150   76  197 1    
   151   76  198 1    
   152   76  199 1    
   153   77   78 2    
   154   77   79 am   BACKBONE|DICT|INTERRES
   155   79   80 1    
   156   79  200 1    
   157   80   81 1    
   158   80   82 1    
   159   80  201 1    
   160   81  202 1    
   161   81  203 1    
   162   81  204 1    
   163   82   83 2    
   164   82   84 am   BACKBONE|DICT|INTERRES
   165   84   85 1    
   166   84  205 1    
   167   85   86 1    
   168   85   87 1    
   169   85  206 1    
   170   86  207 1    
   171   86  208 1    
   172   86  209 1    
   173   87   88 2    
   174   87   89 am   BACKBONE|DICT|INTERRES
   175   89   90 1    
   176   89  210 1    
   177   90   91 1    
   178   90   92 1    
   179   90  211 1    
   180   91  212 1    
   181   91  213 1    
   182   91  214 1    
   183   92   93 2    
   184   92   94 am   BACKBONE|DICT|INTERRES
   185   94   95 1    
   186   94  215 1    
   187   95   96 1    
   188   95   97 1    
   189   95  216 1    
   190   96  217 1    
   191   96  218 1    
   192   96  219 1    
   193   97   98 2    
   194   97   99 am   BACKBONE|DICT|INTERRES
   195   99  100 1    
   196   99  220 1    
   197  100  101 1    
   198  100  102 1    
   199  100  221 1    
   200  101  222 1    
   201  101  223 1    
   202  101  224 1    
   203  102  103 2    
   204  102  104 am   BACKBONE|DICT|INTERRES
   205  104  105 1    
   206  104  225 1    
   207  105  106 1    
   208  105  107 1    
   209  105  226 1    
   210  106  227 1    
   211  106  228 1    
   212  106  229 1    
   213  107  108 2    
   214  107  109 am   BACKBONE|DICT|INTERRES
   215  109  110 1    
   216  109  230 1    
   217  110  111 1    
   218  110  112 1    
   219  110  231 1    
   220  111  232 1    
   221  111  233 1    
   222  111  234 1    
   223  112  113 2    
   224  112  114 am   BACKBONE|DICT|INTERRES
   225  114  115 1    
   226  114  235 1    
   227  115  116 1    
   228  115  117 1    
   229  115  236 1    
   230  116  237 1    
   231  116  238 1    
   232  116  239 1    
   233  117  118 2    
   234  117  119 am   BACKBONE|DICT|INTERRES
   235  119  120 1    
   236  119  240 1    
   237  120  121 1    
   238  120  124 1    
   239  120  241 1    
   240  121  122 am   BACKBONE|DICT|INTERRES
   241  121  123 2    
   242  122  242 1    
   243  122  243 1    
   244  124  125 1    
   245  124  244 1    
   246  124  245 1    
   247  125  126 1    
   248  126  246 1    
   249  126  247 1    
@<TRIPOS>SUBSTRUCTURE
     1 UNK         1 GROUP             0       ****    0 ROOT    
