@<TRIPOS>MOLECULE
3R540
247   249    1
SMALL
USER_CHARGES


@<TRIPOS>ATOM
      1 CA          3.7777  -13.0595  -49.8117 C.3       0 UNK        -0.1800 
      2 C           3.0190  -12.7969  -48.5206 C.2       0 UNK         0.5000 
      3 O           3.5459  -13.0678  -47.4375 O.2       0 UNK        -0.5000 
      4 N           1.7954  -12.2590  -48.6250 N.am      1 UNK        -0.5000 
      5 CA          0.8466  -11.9779  -47.5330 C.3       1 UNK         0.1400 
      6 C6         -0.6129  -11.8438  -48.0441 C.3       23 UNK        -0.0398 
      7 S7         -1.1860  -13.3067  -48.9671 S.3       23 UNK        -0.2404 
      8 C8         -1.9138  -14.2895  -47.6180 C.3       23 UNK        -0.0205 
      9 C9         -2.3175  -15.6785  -48.0871 C.ar      23 UNK        -0.0193 
     10 C10        -3.6399  -16.1157  -47.9715 C.ar      23 UNK        -0.1150 
     11 C11        -4.0020  -17.4002  -48.3902 C.ar      23 UNK        -0.0193 
     12 C12        -3.0306  -18.2438  -48.9375 C.ar      23 UNK        -0.1150 
     13 C13        -1.7008  -17.8237  -49.0418 C.ar      23 UNK        -0.0193 
     14 C14        -1.3547  -16.5412  -48.6151 C.ar      23 UNK        -0.1150 
     15 C15        -0.6317  -18.7451  -49.6109 C.3       23 UNK        -0.0205 
     16 S16         0.1017  -19.7973  -48.3203 S.3       23 UNK        -0.2404 
     17 C17        -1.2789  -20.9460  -48.0349 C.3       23 UNK        -0.0398 
     18 CA         -0.8392  -22.2630  -47.3652 C.3       11 UNK         0.1400 
     19 N          -0.3014  -22.0612  -46.0197 N.am      11 UNK        -0.5000 
     20 C           0.3857  -22.9808  -45.3297 C.2       10 UNK         0.5000 
     21 O           0.6654  -24.0963  -45.7675 O.2       10 UNK        -0.5000 
     22 CA          0.7710  -22.6054  -43.8873 C.3       10 UNK         0.1400 
     23 CB          2.0248  -21.7179  -43.8727 C.3       10 UNK        -0.1800 
     24 N          -0.3164  -21.9205  -43.1864 N.am      10 UNK        -0.5000 
     25 C          -1.4999  -22.4786  -42.8949 C.2       9 UNK         0.5000 
     26 O          -1.7737  -23.6559  -43.1260 O.2       9 UNK        -0.5000 
     27 CA         -2.5749  -21.5547  -42.2937 C.3       9 UNK         0.1400 
     28 CB         -2.4786  -21.5442  -40.7614 C.3       9 UNK        -0.1800 
     29 N          -2.5089  -20.1772  -42.7867 N.am      9 UNK        -0.5000 
     30 C          -2.6359  -19.7821  -44.0595 C.2       8 UNK         0.5000 
     31 O          -2.8100  -20.5712  -44.9879 O.2       8 UNK        -0.5000 
     32 CA         -2.5169  -18.2718  -44.3667 C.3       8 UNK         0.1400 
     33 CB         -3.9081  -17.6234  -44.4775 C.3       8 UNK        -0.1800 
     34 N          -1.6451  -17.4990  -43.4648 N.am      8 UNK        -0.5000 
     35 C          -1.7702  -17.2664  -42.1469 C.2       7 UNK         0.5000 
     36 O          -2.6847  -17.7158  -41.4561 O.2       7 UNK        -0.5000 
     37 CA         -0.6704  -16.4298  -41.4627 C.3       7 UNK         0.1400 
     38 CB          0.3594  -17.3560  -40.7968 C.3       7 UNK        -0.1800 
     39 N           0.0298  -15.5227  -42.3704 N.am      7 UNK        -0.5000 
     40 C          -0.5166  -14.4434  -42.9455 C.2       6 UNK         0.5000 
     41 O          -1.6614  -14.0523  -42.7169 O.2       6 UNK        -0.5000 
     42 CA          0.3583  -13.6697  -43.9520 C.3       6 UNK         0.1400 
     43 CB          1.0277  -12.4806  -43.2457 C.3       6 UNK        -0.1800 
     44 N           1.4002  -14.4579  -44.6231 N.am      6 UNK        -0.5000 
     45 C           1.2453  -15.6082  -45.2970 C.2       5 UNK         0.5000 
     46 O           0.1744  -16.2077  -45.3843 O.2       5 UNK        -0.5000 
     47 CA          2.4927  -16.2005  -45.9808 C.3       5 UNK         0.1400 
     48 CB          2.2686  -16.3552  -47.4923 C.3       5 UNK        -0.1800 
     49 N           3.7148  -15.4198  -45.7586 N.am      5 UNK        -0.5000 
     50 C           4.4883  -15.5378  -44.6709 C.2       4 UNK         0.5000 
     51 O           4.1767  -16.2194  -43.6939 O.2       4 UNK        -0.5000 
     52 CA          5.8350  -14.7997  -44.6658 C.3       4 UNK         0.1400 
     53 CB          6.9302  -15.7230  -45.2381 C.3       4 UNK        -0.1800 
     54 N           5.8092  -13.5238  -45.3899 N.am      4 UNK        -0.5000 
     55 C           6.7555  -12.5822  -45.2535 C.2       3 UNK         0.5000 
     56 O           7.7047  -12.6717  -44.4730 O.2       3 UNK        -0.5000 
     57 CA          6.6346  -11.3281  -46.1359 C.3       3 UNK         0.1400 
     58 CB          7.1191  -11.6261  -47.5636 C.3       3 UNK        -0.1800 
     59 N           5.2763  -10.7957  -46.1925 N.am      3 UNK        -0.5000 
     60 C           4.6410  -10.1880  -45.1789 C.2       2 UNK         0.5000 
     61 O           5.1341  -10.0054  -44.0660 O.2       2 UNK        -0.5000 
     62 CA          3.2061   -9.7210  -45.4621 C.3       2 UNK         0.1400 
     63 CB          3.2145   -8.3282  -46.1218 C.3       2 UNK        -0.1800 
     64 N           2.5453  -10.7092  -46.3102 N.am      2 UNK        -0.5000 
     65 C           1.2600  -10.7659  -46.6600 C.2       1 UNK         0.5000 
     66 O           0.4251   -9.9283  -46.3155 O.2       1 UNK        -0.5000 
     67 C          -2.0113  -23.2591  -47.3644 C.2       11 UNK         0.5000 
     68 O          -2.1495  -24.0150  -48.3245 O.2       11 UNK        -0.5000 
     69 N          -2.8311  -23.2522  -46.3049 N.am      12 UNK        -0.5000 
     70 CA         -3.9160  -24.2133  -46.1058 C.3       12 UNK         0.1400 
     71 CB         -4.8149  -23.7569  -44.9477 C.3       12 UNK        -0.1800 
     72 C          -3.3851  -25.6401  -45.8793 C.2       12 UNK         0.5000 
     73 O          -3.8941  -26.5781  -46.4926 O.2       12 UNK        -0.5000 
     74 N          -2.3399  -25.7695  -45.0494 N.am      13 UNK        -0.5000 
     75 CA         -1.6378  -27.0254  -44.7766 C.3       13 UNK         0.1400 
     76 CB         -0.6504  -26.8163  -43.6185 C.3       13 UNK        -0.1800 
     77 C          -0.9157  -27.5925  -46.0141 C.2       13 UNK         0.5000 
     78 O          -0.9560  -28.8024  -46.2401 O.2       13 UNK        -0.5000 
     79 N          -0.2934  -26.7084  -46.8061 N.am      14 UNK        -0.5000 
     80 CA          0.3847  -27.0437  -48.0615 C.3       14 UNK         0.1400 
     81 CB          1.3380  -25.8940  -48.4255 C.3       14 UNK        -0.1800 
     82 C          -0.5772  -27.3206  -49.2359 C.2       14 UNK         0.5000 
     83 O          -0.1314  -27.8284  -50.2649 O.2       14 UNK        -0.5000 
     84 N          -1.8551  -26.9424  -49.0803 N.am      15 UNK        -0.5000 
     85 CA         -2.9322  -26.9391  -50.0796 C.3       15 UNK         0.1400 
     86 CB         -3.2076  -28.3511  -50.6337 C.3       15 UNK        -0.1800 
     87 C          -2.7392  -25.8922  -51.1987 C.2       15 UNK         0.5000 
     88 O          -3.4854  -25.8960  -52.1787 O.2       15 UNK        -0.5000 
     89 N          -1.7947  -24.9617  -51.0100 N.am      16 UNK        -0.5000 
     90 CA         -1.5442  -23.8138  -51.8797 C.3       16 UNK         0.1400 
     91 CB         -0.2636  -23.0999  -51.4225 C.3       16 UNK        -0.1800 
     92 C          -2.7312  -22.8354  -51.9101 C.2       16 UNK         0.5000 
     93 O          -3.0111  -22.2641  -52.9615 O.2       16 UNK        -0.5000 
     94 N          -3.4353  -22.7121  -50.7740 N.am      17 UNK        -0.5000 
     95 CA         -4.6632  -21.9244  -50.6270 C.3       17 UNK         0.1400 
     96 CB         -4.9920  -21.7863  -49.1318 C.3       17 UNK        -0.1800 
     97 C          -5.8716  -22.5226  -51.3768 C.2       17 UNK         0.5000 
     98 O          -6.8272  -21.7986  -51.6542 O.2       17 UNK        -0.5000 
     99 N          -5.8256  -23.8296  -51.6710 N.am      18 UNK        -0.5000 
    100 CA        -6.8239  -24.5207  -52.4846 C.3       18 UNK         0.1400 
    101 CB        -6.9680  -25.9726  -52.0005 C.3       18 UNK        -0.1800 
    102 C         -6.4442  -24.4712  -53.9740 C.2       18 UNK         0.5000 
    103 O         -7.3233  -24.2898  -54.8171 O.2       18 UNK        -0.5000 
    104 N         -5.1469  -24.6370  -54.2699 N.am      19 UNK        -0.5000 
    105 CA        -4.5928  -24.6407  -55.6225 C.3       19 UNK         0.1400 
    106 CB        -3.1462  -25.1563  -55.5750 C.3       19 UNK        -0.1800 
    107 C         -4.6556  -23.2680  -56.3174 C.2       19 UNK         0.5000 
    108 O         -5.0219  -23.2056  -57.4922 O.2       19 UNK        -0.5000 
    109 N         -4.2945  -22.2015  -55.5941 N.am      20 UNK        -0.5000 
    110 CA        -4.2429  -20.8272  -56.0875 C.3       20 UNK         0.1400 
    111 CB        -3.0185  -20.6376  -57.0148 C.3       20 UNK        -0.1800 
    112 C         -4.2804  -19.8609  -54.8881 C.2       20 UNK         0.5000 
    113 O         -5.0695  -20.0788  -53.9687 O.2       20 UNK        -0.5000 
    114 N         -3.4297  -18.8239  -54.9152 N.am      21 UNK        -0.5000 
    115 CA        -3.2487  -17.7917  -53.8918 C.3       21 UNK         0.1400 
    116 CB        -2.6290  -18.3991  -52.6132 C.3       21 UNK        -0.1800 
    117 C         -4.5340  -16.9692  -53.6545 C.2       21 UNK         0.5000 
    118 O         -5.0062  -16.3180  -54.5887 O.2       21 UNK        -0.5000 
    119 N         -5.0456  -16.9803  -52.4192 N.am      22 UNK        -0.5000 
    120 CA        -6.2672  -16.2982  -51.9697 C.3       22 UNK         0.1400 
    121 C         -7.5669  -16.7184  -52.7194 C.2       22 UNK         0.5000 
    122 N         -8.5558  -15.8360  -52.7859 N.am      22 UNK        -0.7600 
    123 O         -7.7082  -17.8340  -53.2134 O.2       22 UNK        -0.5000 
    124 C124       -6.4320  -16.4115  -50.4298 C.3       23 UNK        -0.0398 
    125 S125       -6.3061  -18.1245  -49.7939 S.3       23 UNK        -0.2404 
    126 C126       -5.4331  -17.8891  -48.2135 C.3       23 UNK        -0.0205 
    127 H127        4.6739  -12.4411  -49.8527 H         1 UNK         0.0600 
    128 H128        3.1702  -12.8408  -50.6901 H         1 UNK         0.0600 
    129 H129        4.0804  -14.1055  -49.8592 H         1 UNK         0.0600 
    130 H130        1.4420  -12.0498  -49.5479 H         1 UNK         0.3000 
    131 H131        0.8715  -12.8412  -46.8673 H         1 UNK         0.0600 
    132 H132       -1.3024  -11.6700  -47.2156 H         1 UNK         0.0800 
    133 H133       -0.7049  -10.9760  -48.6993 H         1 UNK         0.0800 
    134 H134       -1.1902  -14.3912  -46.8098 H         1 UNK         0.0800 
    135 H135       -2.7707  -13.7543  -47.2062 H         1 UNK         0.0800 
    136 H136       -4.3860  -15.4599  -47.5456 H         1 UNK         0.1150 
    137 H137       -3.3107  -19.2318  -49.2704 H         1 UNK         0.1150 
    138 H138       -0.3325  -16.2047  -48.6984 H         1 UNK         0.1150 
    139 H139       -1.0452  -19.3680  -50.4047 H         1 UNK         0.0800 
    140 H140        0.1602  -18.1537  -50.0728 H         1 UNK         0.0800 
    141 H141       -1.7403  -21.1552  -49.0011 H         1 UNK         0.0800 
    142 H142       -2.0345  -20.4377  -47.4356 H         1 UNK         0.0800 
    143 H143       -0.0470  -22.7028  -47.9743 H         1 UNK         0.0600 
    144 H144       -0.5343  -21.1863  -45.5737 H         1 UNK         0.3000 
    145 H145        0.9953  -23.5289  -43.3491 H         1 UNK         0.0600 
    146 H146        2.8567  -22.2112  -44.3774 H         1 UNK         0.0600 
    147 H147        2.3452  -21.5051  -42.8527 H         1 UNK         0.0600 
    148 H148        1.8534  -20.7657  -44.3765 H         1 UNK         0.0600 
    149 H149       -0.1771  -20.9472  -42.9597 H         1 UNK         0.3000 
    150 H150       -3.5503  -21.9565  -42.5730 H         1 UNK         0.0600 
    151 H151       -1.5349  -21.1163  -40.4204 H         1 UNK         0.0600 
    152 H152       -2.5473  -22.5554  -40.3579 H         1 UNK         0.0600 
    153 H153       -3.2885  -20.9630  -40.3199 H         1 UNK         0.0600 
    154 H154       -2.4460  -19.4422  -42.0879 H         1 UNK         0.3000 
    155 H155       -2.0492  -18.2006  -45.3507 H         1 UNK         0.0600 
    156 H156       -4.4468  -17.6491  -43.5301 H         1 UNK         0.0600 
    157 H157       -4.5205  -18.1420  -45.2160 H         1 UNK         0.0600 
    158 H158       -3.8309  -16.5831  -44.7939 H         1 UNK         0.0600 
    159 H159       -0.8616  -17.0596  -43.9402 H         1 UNK         0.3000 
    160 H160       -1.1485  -15.8316  -40.6842 H         1 UNK         0.0600 
    161 H161        0.8859  -17.9672  -41.5312 H         1 UNK         0.0600 
    162 H162       -0.1220  -18.0337  -40.0902 H         1 UNK         0.0600 
    163 H163        1.1026  -16.7844  -40.2406 H         1 UNK         0.0600 
    164 H164        0.9795  -15.7637  -42.6140 H         1 UNK         0.3000 
    165 H165       -0.3068  -13.2827  -44.7256 H         1 UNK         0.0600 
    166 H166        1.6195  -11.8846  -43.9369 H         1 UNK         0.0600 
    167 H167        0.2827  -11.8178  -42.8033 H         1 UNK         0.0600 
    168 H168        1.6896  -12.8119  -42.4445 H         1 UNK         0.0600 
    169 H169        2.3325  -14.0735  -44.5969 H         1 UNK         0.3000 
    170 H170        2.6381  -17.2013  -45.5683 H         1 UNK         0.0600 
    171 H171        3.1774  -16.6764  -48.0015 H         1 UNK         0.0600 
    172 H172        1.9325  -15.4259  -47.9512 H         1 UNK         0.0600 
    173 H173        1.5096  -17.1124  -47.6875 H         1 UNK         0.0600 
    174 H174        3.9830  -14.7989  -46.5129 H         1 UNK         0.3000 
    175 H175        6.0691  -14.5933  -43.6190 H         1 UNK         0.0600 
    176 H176        6.9260  -16.6937  -44.7402 H         1 UNK         0.0600 
    177 H177        6.7851  -15.9002  -46.3044 H         1 UNK         0.0600 
    178 H178        7.9259  -15.3016  -45.1022 H         1 UNK         0.0600 
    179 H179        5.0443  -13.3620  -46.0346 H         1 UNK         0.3000 
    180 H180        7.2827  -10.5575  -45.7125 H         1 UNK         0.0600 
    181 H181        6.4994  -12.3793  -48.0516 H         1 UNK         0.0600 
    182 H182        8.1440  -11.9997  -47.5572 H         1 UNK         0.0600 
    183 H183        7.1057  -10.7279  -48.1812 H         1 UNK         0.0600 
    184 H184        4.8074  -10.8743  -47.0819 H         1 UNK         0.3000 
    185 H185        2.6732   -9.6644  -44.5110 H         1 UNK         0.0600 
    186 H186        3.7764   -7.6145  -45.5181 H         1 UNK         0.0600 
    187 H187        3.6727   -8.3551  -47.1111 H         1 UNK         0.0600 
    188 H188        2.2065   -7.9289  -46.2310 H         1 UNK         0.0600 
    189 H189        3.1203  -11.4950  -46.6029 H         1 UNK         0.3000 
    190 H190       -2.7005  -22.5425  -45.5925 H         1 UNK         0.3000 
    191 H191       -4.5224  -24.2296  -47.0126 H         1 UNK         0.0600 
    192 H192       -5.1798  -22.7419  -45.1073 H         1 UNK         0.0600 
    193 H193       -5.6860  -24.4066  -44.8554 H         1 UNK         0.0600 
    194 H194       -4.2910  -23.7795  -43.9931 H         1 UNK         0.0600 
    195 H195       -2.0157  -24.9503  -44.5426 H         1 UNK         0.3000 
    196 H196       -2.3806  -27.7607  -44.4606 H         1 UNK         0.0600 
    197 H197       -0.1256  -27.7420  -43.3793 H         1 UNK         0.0600 
    198 H198       -1.1669  -26.4918  -42.7150 H         1 UNK         0.0600 
    199 H199        0.1014  -26.0644  -43.8606 H         1 UNK         0.0600 
    200 H200       -0.2375  -25.7401  -46.5059 H         1 UNK         0.3000 
    201 H201        0.9803  -27.9455  -47.9054 H         1 UNK         0.0600 
    202 H202        1.8939  -26.1160  -49.3373 H         1 UNK         0.0600 
    203 H203        2.0690  -25.7227  -47.6351 H         1 UNK         0.0600 
    204 H204        0.7976  -24.9612  -48.5893 H         1 UNK         0.0600 
    205 H205       -2.1008  -26.5169  -48.1959 H         1 UNK         0.3000 
    206 H206       -3.8256  -26.6251  -49.5381 H         1 UNK         0.0600 
    207 H207       -3.3390  -29.0725  -49.8271 H         1 UNK         0.0600 
    208 H208       -4.1201  -28.3633  -51.2308 H         1 UNK         0.0600 
    209 H209       -2.3988  -28.7037  -51.2738 H         1 UNK         0.0600 
    210 H210       -1.3091  -24.9738  -50.1236 H         1 UNK         0.3000 
    211 H211       -1.3871  -24.1861  -52.8934 H         1 UNK         0.0600 
    212 H212       -0.3521  -22.7232  -50.4041 H         1 UNK         0.0600 
    213 H213       -0.0392  -22.2497  -52.0680 H         1 UNK         0.0600 
    214 H214        0.5951  -23.7706  -51.4575 H         1 UNK         0.0600 
    215 H215       -3.1290  -23.2417  -49.9653 H         1 UNK         0.3000 
    216 H216       -4.4833  -20.9282  -51.0359 H         1 UNK         0.0600 
    217 H217       -5.8726  -21.1601  -48.9839 H         1 UNK         0.0600 
    218 H218       -4.1760  -21.3279  -48.5765 H         1 UNK         0.0600 
    219 H219       -5.2039  -22.7550  -48.6805 H         1 UNK         0.0600 
    220 H220       -4.9970  -24.3538  -51.4301 H         1 UNK         0.3000 
    221 H221       -7.7959  -24.0363  -52.3685 H         1 UNK         0.0600 
    222 H222       -6.0439  -26.5384  -52.1176 H         1 UNK         0.0600 
    223 H223       -7.2527  -26.0105  -50.9490 H         1 UNK         0.0600 
    224 H224       -7.7419  -26.4936  -52.5655 H         1 UNK         0.0600 
    225 H225       -4.5006  -24.8539  -53.5188 H         1 UNK         0.3000 
    226 H226       -5.1793  -25.3421  -56.2196 H         1 UNK         0.0600 
    227 H227       -2.7226  -25.2227  -56.5779 H         1 UNK         0.0600 
    228 H228       -2.5043  -24.4966  -54.9912 H         1 UNK         0.0600 
    229 H229       -3.0950  -26.1515  -55.1326 H         1 UNK         0.0600 
    230 H230       -4.0262  -22.3165  -54.6187 H         1 UNK         0.3000 
    231 H231       -5.1486  -20.6331  -56.6654 H         1 UNK         0.0600 
    232 H232       -2.0815  -20.7960  -56.4790 H         1 UNK         0.0600 
    233 H233       -2.9965  -19.6377  -57.4492 H         1 UNK         0.0600 
    234 H234       -3.0394  -21.3361  -57.8511 H         1 UNK         0.0600 
    235 H235       -2.8463  -18.7227  -55.7333 H         1 UNK         0.3000 
    236 H236       -2.5192  -17.0892  -54.2975 H         1 UNK         0.0600 
    237 H237       -1.6955  -18.9135  -52.8416 H         1 UNK         0.0600 
    238 H238       -2.3961  -17.6204  -51.8863 H         1 UNK         0.0600 
    239 H239       -3.2902  -19.1208  -52.1334 H         1 UNK         0.0600 
    240 H240       -4.6201  -17.5842  -51.7317 H         1 UNK         0.3000 
    241 H241       -6.1143  -15.2420  -52.1999 H         1 UNK         0.0600 
    242 H242       -9.4089  -16.0948  -53.2572 H         1 UNK         0.3800 
    243 H243       -8.4737  -14.9129  -52.3881 H         1 UNK         0.3800 
    244 H244       -7.3816  -15.9853  -50.1019 H         1 UNK         0.0800 
    245 H245       -5.6650  -15.7997  -49.9554 H         1 UNK         0.0800 
    246 H246       -5.4156  -18.8401  -47.6793 H         1 UNK         0.0800 
    247 H247       -6.0053  -17.2015  -47.5888 H         1 UNK         0.0800 
@<TRIPOS>BOND
     1    1    2 1    
     2    1  127 1    
     3    1  128 1    
     4    1  129 1    
     5    2    3 2    
     6    2    4 am   BACKBONE|DICT|INTERRES
     7    4    5 1    
     8    4  130 1    
     9    5    6 1    
    10    5   65 1    
    11    5  131 1    
    12    6    7 1    
    13    6  132 1    
    14    6  133 1    
    15    7    8 1    
    16    8    9 1    
    17    8  134 1    
    18    8  135 1    
    19    9   10 ar   
    20    9   14 ar   
    21   10   11 ar   
    22   10  136 1    
    23   11   12 ar   
    24   11  126 1    
    25   12   13 ar   
    26   12  137 1    
    27   13   14 ar   
    28   13   15 1    
    29   14  138 1    
    30   15   16 1    
    31   15  139 1    
    32   15  140 1    
    33   16   17 1    
    34   17   18 1    
    35   17  141 1    
    36   17  142 1    
    37   18   19 1    
    38   18   67 1    
    39   18  143 1    
    40   19   20 am   BACKBONE|DICT|INTERRES
    41   19  144 1    
    42   20   21 2    
    43   20   22 1    
    44   22   23 1    
    45   22   24 1    
    46   22  145 1    
    47   23  146 1    
    48   23  147 1    
    49   23  148 1    
    50   24   25 am   BACKBONE|DICT|INTERRES
    51   24  149 1    
    52   25   26 2    
    53   25   27 1    
    54   27   28 1    
    55   27   29 1    
    56   27  150 1    
    57   28  151 1    
    58   28  152 1    
    59   28  153 1    
    60   29   30 am   BACKBONE|DICT|INTERRES
    61   29  154 1    
    62   30   31 2    
    63   30   32 1    
    64   32   33 1    
    65   32   34 1    
    66   32  155 1    
    67   33  156 1    
    68   33  157 1    
    69   33  158 1    
    70   34   35 am   BACKBONE|DICT|INTERRES
    71   34  159 1    
    72   35   36 2    
    73   35   37 1    
    74   37   38 1    
    75   37   39 1    
    76   37  160 1    
    77   38  161 1    
    78   38  162 1    
    79   38  163 1    
    80   39   40 am   BACKBONE|DICT|INTERRES
    81   39  164 1    
    82   40   41 2    
    83   40   42 1    
    84   42   43 1    
    85   42   44 1    
    86   42  165 1    
    87   43  166 1    
    88   43  167 1    
    89   43  168 1    
    90   44   45 am   BACKBONE|DICT|INTERRES
    91   44  169 1    
    92   45   46 2    
    93   45   47 1    
    94   47   48 1    
    95   47   49 1    
    96   47  170 1    
    97   48  171 1    
    98   48  172 1    
    99   48  173 1    
   100   49   50 am   BACKBONE|DICT|INTERRES
   101   49  174 1    
   102   50   51 2    
   103   50   52 1    
   104   52   53 1    
   105   52   54 1    
   106   52  175 1    
   107   53  176 1    
   108   53  177 1    
   109   53  178 1    
   110   54   55 am   BACKBONE|DICT|INTERRES
   111   54  179 1    
   112   55   56 2    
   113   55   57 1    
   114   57   58 1    
   115   57   59 1    
   116   57  180 1    
   117   58  181 1    
   118   58  182 1    
   119   58  183 1    
   120   59   60 am   BACKBONE|DICT|INTERRES
   121   59  184 1    
   122   60   61 2    
   123   60   62 1    
   124   62   63 1    
   125   62   64 1    
   126   62  185 1    
   127   63  186 1    
   128   63  187 1    
   129   63  188 1    
   130   64   65 am   BACKBONE|DICT|INTERRES
   131   64  189 1    
   132   65   66 2    
   133   67   68 2    
   134   67   69 am   BACKBONE|DICT|INTERRES
   135   69   70 1    
   136   69  190 1    
   137   70   71 1    
   138   70   72 1    
   139   70  191 1    
   140   71  192 1    
   141   71  193 1    
   142   71  194 1    
   143   72   73 2    
   144   72   74 am   BACKBONE|DICT|INTERRES
   145   74   75 1    
   146   74  195 1    
   147   75   76 1    
   148   75   77 1    
   149   75  196 1    
   150   76  197 1    
   151   76  198 1    
   152   76  199 1    
   153   77   78 2    
   154   77   79 am   BACKBONE|DICT|INTERRES
   155   79   80 1    
   156   79  200 1    
   157   80   81 1    
   158   80   82 1    
   159   80  201 1    
   160   81  202 1    
   161   81  203 1    
   162   81  204 1    
   163   82   83 2    
   164   82   84 am   BACKBONE|DICT|INTERRES
   165   84   85 1    
   166   84  205 1    
   167   85   86 1    
   168   85   87 1    
   169   85  206 1    
   170   86  207 1    
   171   86  208 1    
   172   86  209 1    
   173   87   88 2    
   174   87   89 am   BACKBONE|DICT|INTERRES
   175   89   90 1    
   176   89  210 1    
   177   90   91 1    
   178   90   92 1    
   179   90  211 1    
   180   91  212 1    
   181   91  213 1    
   182   91  214 1    
   183   92   93 2    
   184   92   94 am   BACKBONE|DICT|INTERRES
   185   94   95 1    
   186   94  215 1    
   187   95   96 1    
   188   95   97 1    
   189   95  216 1    
   190   96  217 1    
   191   96  218 1    
   192   96  219 1    
   193   97   98 2    
   194   97   99 am   BACKBONE|DICT|INTERRES
   195   99  100 1    
   196   99  220 1    
   197  100  101 1    
   198  100  102 1    
   199  100  221 1    
   200  101  222 1    
   201  101  223 1    
   202  101  224 1    
   203  102  103 2    
   204  102  104 am   BACKBONE|DICT|INTERRES
   205  104  105 1    
   206  104  225 1    
   207  105  106 1    
   208  105  107 1    
   209  105  226 1    
   210  106  227 1    
   211  106  228 1    
   212  106  229 1    
   213  107  108 2    
   214  107  109 am   BACKBONE|DICT|INTERRES
   215  109  110 1    
   216  109  230 1    
   217  110  111 1    
   218  110  112 1    
   219  110  231 1    
   220  111  232 1    
   221  111  233 1    
   222  111  234 1    
   223  112  113 2    
   224  112  114 am   BACKBONE|DICT|INTERRES
   225  114  115 1    
   226  114  235 1    
   227  115  116 1    
   228  115  117 1    
   229  115  236 1    
   230  116  237 1    
   231  116  238 1    
   232  116  239 1    
   233  117  118 2    
   234  117  119 am   BACKBONE|DICT|INTERRES
   235  119  120 1    
   236  119  240 1    
   237  120  121 1    
   238  120  124 1    
   239  120  241 1    
   240  121  122 am   BACKBONE|DICT|INTERRES
   241  121  123 2    
   242  122  242 1    
   243  122  243 1    
   244  124  125 1    
   245  124  244 1    
   246  124  245 1    
   247  125  126 1    
   248  126  246 1    
   249  126  247 1    
@<TRIPOS>SUBSTRUCTURE
     1 UNK         1 GROUP             0       ****    0 ROOT    
