@<TRIPOS>MOLECULE
3R540
247   249    1
SMALL
USER_CHARGES


@<TRIPOS>ATOM
      1 CA          5.2616  -13.4963  -48.2189 C.3       0 UNK        -0.1800 
      2 C           4.1039  -14.4137  -47.8556 C.2       0 UNK         0.5000 
      3 O           3.1097  -14.4588  -48.5802 O.2       0 UNK        -0.5000 
      4 N           4.2197  -15.1291  -46.7264 N.am      1 UNK        -0.5000 
      5 CA          3.2723  -16.1440  -46.2271 C.3       1 UNK         0.1400 
      6 C6          3.1529  -17.3723  -47.1714 C.3       23 UNK        -0.0398 
      7 S7          4.7668  -18.1659  -47.5168 S.3       23 UNK        -0.2404 
      8 C8          4.9785  -17.9049  -49.3078 C.3       23 UNK        -0.0205 
      9 C9          3.8788  -18.5830  -50.1098 C.ar      23 UNK        -0.0193 
     10 C10         2.9274  -17.8143  -50.7789 C.ar      23 UNK        -0.1150 
     11 C11         1.8800  -18.4175  -51.4769 C.ar      23 UNK        -0.0193 
     12 C12         1.7843  -19.8165  -51.4783 C.ar      23 UNK        -0.1150 
     13 C13         2.7330  -20.6082  -50.8170 C.ar      23 UNK        -0.0193 
     14 C14         3.7972  -19.9757  -50.1607 C.ar      23 UNK        -0.1150 
     15 C15         2.5331  -22.1284  -50.8264 C.3       23 UNK        -0.0205 
     16 S16         3.8866  -23.1710  -50.1576 S.3       23 UNK        -0.2404 
     17 C17         3.8537  -22.8480  -48.3576 C.3       23 UNK        -0.0398 
     18 CA          2.9926  -23.8392  -47.5327 C.3       11 UNK         0.1400 
     19 N           3.3904  -23.8183  -46.1194 N.am      11 UNK        -0.5000 
     20 C           2.8480  -24.5479  -45.1328 C.2       10 UNK         0.5000 
     21 O           1.9694  -25.3907  -45.3027 O.2       10 UNK        -0.5000 
     22 CA          3.3360  -24.2486  -43.7027 C.3       10 UNK         0.1400 
     23 CB          4.5453  -25.1286  -43.3539 C.3       10 UNK        -0.1800 
     24 N           3.6809  -22.8413  -43.4807 N.am      10 UNK        -0.5000 
     25 C           2.8371  -21.8071  -43.5977 C.2       9 UNK         0.5000 
     26 O           1.6547  -21.9095  -43.9378 O.2       9 UNK        -0.5000 
     27 CA          3.4458  -20.4214  -43.3606 C.3       9 UNK         0.1400 
     28 CB          4.1915  -19.9596  -44.6222 C.3       9 UNK        -0.1800 
     29 N           2.3890  -19.4731  -43.0221 N.am      9 UNK        -0.5000 
     30 C           2.5762  -18.2910  -42.4226 C.2       8 UNK         0.5000 
     31 O           3.6925  -17.8584  -42.1308 O.2       8 UNK        -0.5000 
     32 CA          1.3242  -17.4478  -42.0931 C.3       8 UNK         0.1400 
     33 CB          1.6433  -15.9479  -41.9645 C.3       8 UNK        -0.1800 
     34 N           0.2465  -17.6161  -43.0705 N.am      8 UNK        -0.5000 
     35 C          -0.7081  -18.5505  -42.9995 C.2       7 UNK         0.5000 
     36 O          -0.7531  -19.4150  -42.1235 O.2       7 UNK        -0.5000 
     37 CA         -1.7780  -18.4917  -44.1037 C.3       7 UNK         0.1400 
     38 CB         -2.7014  -19.7271  -44.1253 C.3       7 UNK        -0.1800 
     39 N          -2.5623  -17.2566  -44.0690 N.am      7 UNK        -0.5000 
     40 C          -3.3391  -16.7950  -43.0758 C.2       6 UNK         0.5000 
     41 O          -3.4804  -17.3522  -41.9874 O.2       6 UNK        -0.5000 
     42 CA         -4.1043  -15.4847  -43.3548 C.3       6 UNK         0.1400 
     43 CB         -3.4932  -14.3175  -42.5658 C.3       6 UNK        -0.1800 
     44 N          -4.1259  -15.1541  -44.7847 N.am      6 UNK        -0.5000 
     45 C          -5.0244  -15.6509  -45.6485 C.2       5 UNK         0.5000 
     46 O          -5.9850  -16.3459  -45.3187 O.2       5 UNK        -0.5000 
     47 CA         -4.7670  -15.3695  -47.1344 C.3       5 UNK         0.1400 
     48 CB         -4.9636  -13.8838  -47.4739 C.3       5 UNK        -0.1800 
     49 N          -3.4116  -15.7784  -47.4932 N.am      5 UNK        -0.5000 
     50 C          -3.0739  -17.0021  -47.9263 C.2       4 UNK         0.5000 
     51 O          -3.8854  -17.9141  -48.0830 O.2       4 UNK        -0.5000 
     52 CA         -1.5832  -17.2598  -48.2378 C.3       4 UNK         0.1400 
     53 CB         -1.3873  -18.2796  -49.3728 C.3       4 UNK        -0.1800 
     54 N          -0.8157  -16.0398  -48.4861 N.am      4 UNK        -0.5000 
     55 C          -1.0307  -15.1151  -49.4354 C.2       3 UNK         0.5000 
     56 O          -1.8247  -15.2594  -50.3640 O.2       3 UNK        -0.5000 
     57 CA         -0.2631  -13.7833  -49.2890 C.3       3 UNK         0.1400 
     58 CB         -1.1338  -12.5709  -49.6778 C.3       3 UNK        -0.1800 
     59 N           0.3292  -13.5813  -47.9591 N.am      3 UNK        -0.5000 
     60 C          -0.2984  -13.5173  -46.7717 C.2       2 UNK         0.5000 
     61 O          -1.5193  -13.6298  -46.6308 O.2       2 UNK        -0.5000 
     62 CA          0.6217  -13.3990  -45.5372 C.3       2 UNK         0.1400 
     63 CB         -0.1085  -13.6769  -44.2112 C.3       2 UNK        -0.1800 
     64 N           1.8250  -14.2316  -45.6598 N.am      2 UNK        -0.5000 
     65 C           1.8824  -15.5574  -45.8692 C.2       1 UNK         0.5000 
     66 O           0.8937  -16.2948  -45.8168 O.2       1 UNK        -0.5000 
     67 C           1.4955  -23.5112  -47.6935 C.2       11 UNK         0.5000 
     68 O           0.7464  -24.2746  -48.3039 O.2       11 UNK        -0.5000 
     69 N           1.0955  -22.3747  -47.1106 N.am      12 UNK        -0.5000 
     70 CA         -0.2659  -21.8621  -47.1563 C.3       12 UNK         0.1400 
     71 CB         -0.2544  -20.3916  -46.7367 C.3       12 UNK        -0.1800 
     72 C          -1.2271  -22.6782  -46.2803 C.2       12 UNK         0.5000 
     73 O          -2.3840  -22.8470  -46.6616 O.2       12 UNK        -0.5000 
     74 N          -0.7337  -23.1899  -45.1440 N.am      13 UNK        -0.5000 
     75 CA         -1.4755  -24.0821  -44.2535 C.3       13 UNK         0.1400 
     76 CB         -0.6908  -24.2887  -42.9508 C.3       13 UNK        -0.1800 
     77 C          -1.8039  -25.4299  -44.9220 C.2       13 UNK         0.5000 
     78 O          -2.9440  -25.8841  -44.8318 O.2       13 UNK        -0.5000 
     79 N          -0.8257  -26.0152  -45.6299 N.am      14 UNK        -0.5000 
     80 CA         -0.9870  -27.2361  -46.4254 C.3       14 UNK         0.1400 
     81 CB          0.3882  -27.7262  -46.9027 C.3       14 UNK        -0.1800 
     82 C          -1.9400  -27.0499  -47.6211 C.2       14 UNK         0.5000 
     83 O          -2.6864  -27.9710  -47.9533 O.2       14 UNK        -0.5000 
     84 N          -1.9285  -25.8494  -48.2164 N.am      15 UNK        -0.5000 
     85 CA         -2.8561  -25.4257  -49.2677 C.3       15 UNK         0.1400 
     86 CB         -2.2411  -24.2361  -50.0207 C.3       15 UNK        -0.1800 
     87 C          -4.2646  -25.0668  -48.7430 C.2       15 UNK         0.5000 
     88 O          -5.1572  -24.8259  -49.5563 O.2       15 UNK        -0.5000 
     89 N          -4.4370  -25.0280  -47.4120 N.am      16 UNK        -0.5000 
     90 CA         -5.6495  -24.6699  -46.6706 C.3       16 UNK         0.1400 
     91 CB         -6.7616  -25.7148  -46.9007 C.3       16 UNK        -0.1800 
     92 C          -6.1019  -23.2194  -46.9393 C.2       16 UNK         0.5000 
     93 O          -7.2935  -22.9737  -47.1336 O.2       16 UNK        -0.5000 
     94 N          -5.1256  -22.2982  -46.9378 N.am      17 UNK        -0.5000 
     95 CA         -5.2206  -20.8737  -47.2643 C.3       17 UNK         0.1400 
     96 CB         -6.1538  -20.1217  -46.2932 C.3       17 UNK        -0.1800 
     97 C          -5.5987  -20.6748  -48.7427 C.2       17 UNK         0.5000 
     98 O          -6.7770  -20.5269  -49.0727 O.2       17 UNK        -0.5000 
     99 N          -4.5743  -20.7101  -49.6080 N.am      18 UNK        -0.5000 
    100 CA        -4.6841  -20.5769  -51.0635 C.3       18 UNK         0.1400 
    101 CB        -3.2886  -20.7191  -51.6906 C.3       18 UNK        -0.1800 
    102 C         -5.3521  -19.2680  -51.5287 C.2       18 UNK         0.5000 
    103 O         -6.0802  -19.2949  -52.5214 O.2       18 UNK        -0.5000 
    104 N         -5.1157  -18.1719  -50.7891 N.am      19 UNK        -0.5000 
    105 CA        -5.7427  -16.8512  -50.9029 C.3       19 UNK         0.1400 
    106 CB        -7.1113  -16.8802  -50.1896 C.3       19 UNK        -0.1800 
    107 C         -5.8177  -16.3226  -52.3518 C.2       19 UNK         0.5000 
    108 O         -4.8071  -15.8657  -52.8855 O.2       19 UNK        -0.5000 
    109 N         -6.9998  -16.4206  -52.9750 N.am      20 UNK        -0.5000 
    110 CA        -7.2830  -16.0035  -54.3496 C.3       20 UNK         0.1400 
    111 CB        -8.7932  -16.1297  -54.6025 C.3       20 UNK        -0.1800 
    112 C         -6.4904  -16.7661  -55.4317 C.2       20 UNK         0.5000 
    113 O         -6.3123  -16.2279  -56.5251 O.2       20 UNK        -0.5000 
    114 N         -6.0190  -17.9847  -55.1248 N.am      21 UNK        -0.5000 
    115 CA        -5.1437  -18.7629  -56.0061 C.3       21 UNK         0.1400 
    116 CB        -5.1636  -20.2399  -55.5862 C.3       21 UNK        -0.1800 
    117 C         -3.7023  -18.2162  -56.0324 C.2       21 UNK         0.5000 
    118 O         -3.0265  -18.3473  -57.0539 O.2       21 UNK        -0.5000 
    119 N         -3.2704  -17.5956  -54.9274 N.am      22 UNK        -0.5000 
    120 CA        -2.0376  -16.8013  -54.8466 C.3       22 UNK         0.1400 
    121 C         -2.2620  -15.3671  -55.3981 C.2       22 UNK         0.5000 
    122 N         -3.3105  -14.6724  -54.9744 N.am      22 UNK        -0.7600 
    123 O         -1.4825  -14.8833  -56.2141 O.2       22 UNK        -0.5000 
    124 C124       -1.4877  -16.7504  -53.3998 C.3       23 UNK        -0.0398 
    125 S125       -0.5841  -18.2647  -52.9316 S.3       23 UNK        -0.2404 
    126 C126        0.8955  -17.4928  -52.1917 C.3       23 UNK        -0.0205 
    127 H127        6.0648  -13.5455  -47.4833 H         1 UNK         0.0600 
    128 H128        4.9175  -12.4639  -48.2801 H         1 UNK         0.0600 
    129 H129        5.6708  -13.7788  -49.1888 H         1 UNK         0.0600 
    130 H130        5.0629  -15.0315  -46.1777 H         1 UNK         0.3000 
    131 H131        3.6844  -16.4995  -45.2814 H         1 UNK         0.0600 
    132 H132        2.5095  -18.1334  -46.7277 H         1 UNK         0.0800 
    133 H133        2.6674  -17.0852  -48.1038 H         1 UNK         0.0800 
    134 H134        5.0113  -16.8343  -49.5140 H         1 UNK         0.0800 
    135 H135        5.9455  -18.3067  -49.6131 H         1 UNK         0.0800 
    136 H136        2.9961  -16.7353  -50.7465 H         1 UNK         0.1150 
    137 H137        0.9690  -20.3033  -51.9932 H         1 UNK         0.1150 
    138 H138        4.5607  -20.5470  -49.6569 H         1 UNK         0.1150 
    139 H139        1.6067  -22.3608  -50.3015 H         1 UNK         0.0800 
    140 H140        2.3737  -22.4393  -51.8599 H         1 UNK         0.0800 
    141 H141        4.8924  -22.9191  -48.0318 H         1 UNK         0.0800 
    142 H142        3.5626  -21.8173  -48.1547 H         1 UNK         0.0800 
    143 H143        3.1609  -24.8529  -47.9021 H         1 UNK         0.0600 
    144 H144        4.1124  -23.1606  -45.8667 H         1 UNK         0.3000 
    145 H145        2.5268  -24.5005  -43.0160 H         1 UNK         0.0600 
    146 H146        4.8451  -24.9937  -42.3145 H         1 UNK         0.0600 
    147 H147        4.3104  -26.1855  -43.4876 H         1 UNK         0.0600 
    148 H148        5.4056  -24.9012  -43.9847 H         1 UNK         0.0600 
    149 H149        4.6365  -22.6583  -43.2097 H         1 UNK         0.3000 
    150 H150        4.1435  -20.4884  -42.5232 H         1 UNK         0.0600 
    151 H151        5.0165  -20.6306  -44.8635 H         1 UNK         0.0600 
    152 H152        4.6165  -18.9638  -44.4976 H         1 UNK         0.0600 
    153 H153        3.5252  -19.9374  -45.4843 H         1 UNK         0.0600 
    154 H154        1.4489  -19.8123  -43.1855 H         1 UNK         0.3000 
    155 H155        0.9746  -17.7851  -41.1151 H         1 UNK         0.0600 
    156 H156        0.7488  -15.3770  -41.7150 H         1 UNK         0.0600 
    157 H157        2.0578  -15.5426  -42.8871 H         1 UNK         0.0600 
    158 H158        2.3693  -15.7657  -41.1713 H         1 UNK         0.0600 
    159 H159        0.2599  -16.9889  -43.8663 H         1 UNK         0.3000 
    160 H160       -1.2344  -18.4611  -45.0452 H         1 UNK         0.0600 
    161 H161       -3.3097  -19.7974  -43.2232 H         1 UNK         0.0600 
    162 H162       -2.1229  -20.6483  -44.1974 H         1 UNK         0.0600 
    163 H163       -3.3746  -19.6963  -44.9807 H         1 UNK         0.0600 
    164 H164       -2.5216  -16.6911  -44.9026 H         1 UNK         0.3000 
    165 H165       -5.1291  -15.6209  -43.0025 H         1 UNK         0.0600 
    166 H166       -2.4314  -14.2018  -42.7715 H         1 UNK         0.0600 
    167 H167       -3.9898  -13.3754  -42.7988 H         1 UNK         0.0600 
    168 H168       -3.5962  -14.4820  -41.4926 H         1 UNK         0.0600 
    169 H169       -3.3802  -14.5670  -45.1342 H         1 UNK         0.3000 
    170 H170       -5.4904  -15.9427  -47.7167 H         1 UNK         0.0600 
    171 H171       -5.9718  -13.5557  -47.2180 H         1 UNK         0.0600 
    172 H172       -4.2625  -13.2440  -46.9368 H         1 UNK         0.0600 
    173 H173       -4.8240  -13.7061  -48.5404 H         1 UNK         0.0600 
    174 H174       -2.6861  -15.0766  -47.3841 H         1 UNK         0.3000 
    175 H175       -1.1585  -17.6855  -47.3302 H         1 UNK         0.0600 
    176 H176       -1.8295  -19.2430  -49.1206 H         1 UNK         0.0600 
    177 H177       -1.8529  -17.9364  -50.2959 H         1 UNK         0.0600 
    178 H178       -0.3299  -18.4530  -49.5692 H         1 UNK         0.0600 
    179 H179       -0.1426  -15.8124  -47.7653 H         1 UNK         0.3000 
    180 H180        0.5712  -13.8363  -49.9899 H         1 UNK         0.0600 
    181 H181       -2.0301  -12.5019  -49.0604 H         1 UNK         0.0600 
    182 H182       -1.4586  -12.6378  -50.7168 H         1 UNK         0.0600 
    183 H183       -0.5805  -11.6378  -49.5727 H         1 UNK         0.0600 
    184 H184        1.3441  -13.5813  -47.9583 H         1 UNK         0.3000 
    185 H185        0.9617  -12.3628  -45.5139 H         1 UNK         0.0600 
    186 H186        0.5563  -13.5308  -43.3607 H         1 UNK         0.0600 
    187 H187       -0.9445  -12.9887  -44.0841 H         1 UNK         0.0600 
    188 H188       -0.5015  -14.6925  -44.1660 H         1 UNK         0.0600 
    189 H189        2.6975  -13.7249  -45.7152 H         1 UNK         0.3000 
    190 H190        1.7588  -21.8434  -46.5670 H         1 UNK         0.3000 
    191 H191       -0.6211  -21.9174  -48.1873 H         1 UNK         0.0600 
    192 H192        0.3657  -19.7944  -47.4059 H         1 UNK         0.0600 
    193 H193       -1.2651  -19.9860  -46.7709 H         1 UNK         0.0600 
    194 H194        0.1306  -20.2680  -45.7240 H         1 UNK         0.0600 
    195 H195        0.2110  -22.9451  -44.8656 H         1 UNK         0.3000 
    196 H196       -2.4193  -23.5920  -44.0048 H         1 UNK         0.0600 
    197 H197       -1.2735  -24.8697  -42.2351 H         1 UNK         0.0600 
    198 H198       -0.4486  -23.3361  -42.4787 H         1 UNK         0.0600 
    199 H199        0.2406  -24.8257  -43.1246 H         1 UNK         0.0600 
    200 H200        0.1050  -25.6052  -45.6217 H         1 UNK         0.3000 
    201 H201       -1.4155  -28.0037  -45.7777 H         1 UNK         0.0600 
    202 H202        1.0411  -27.9487  -46.0586 H         1 UNK         0.0600 
    203 H203        0.8871  -26.9812  -47.5237 H         1 UNK         0.0600 
    204 H204        0.2964  -28.6392  -47.4922 H         1 UNK         0.0600 
    205 H205       -1.2366  -25.1705  -47.9218 H         1 UNK         0.3000 
    206 H206       -2.9730  -26.2487  -49.9757 H         1 UNK         0.0600 
    207 H207       -1.2419  -24.4709  -50.3882 H         1 UNK         0.0600 
    208 H208       -2.8503  -23.9724  -50.8855 H         1 UNK         0.0600 
    209 H209       -2.1680  -23.3528  -49.3869 H         1 UNK         0.0600 
    210 H210       -3.6321  -25.2297  -46.8328 H         1 UNK         0.3000 
    211 H211       -5.3805  -24.7093  -45.6142 H         1 UNK         0.0600 
    212 H212       -7.1262  -25.7018  -47.9282 H         1 UNK         0.0600 
    213 H213       -7.6153  -25.5255  -46.2491 H         1 UNK         0.0600 
    214 H214       -6.4056  -26.7219  -46.6835 H         1 UNK         0.0600 
    215 H215       -4.1727  -22.6309  -46.7957 H         1 UNK         0.3000 
    216 H216       -4.2189  -20.4649  -47.1252 H         1 UNK         0.0600 
    217 H217       -5.8459  -20.2668  -45.2579 H         1 UNK         0.0600 
    218 H218       -7.1916  -20.4426  -46.3826 H         1 UNK         0.0600 
    219 H219       -6.1276  -19.0496  -46.4928 H         1 UNK         0.0600 
    220 H220       -3.6446  -20.8469  -49.2432 H         1 UNK         0.3000 
    221 H221       -5.3030  -21.4036  -51.4178 H         1 UNK         0.0600 
    222 H222       -2.6182  -19.9257  -51.3654 H         1 UNK         0.0600 
    223 H223       -2.8282  -21.6707  -51.4307 H         1 UNK         0.0600 
    224 H224       -3.3365  -20.6719  -52.7781 H         1 UNK         0.0600 
    225 H225       -4.5210  -18.2826  -49.9745 H         1 UNK         0.3000 
    226 H226       -5.0993  -16.1573  -50.3595 H         1 UNK         0.0600 
    227 H227       -6.9951  -17.1466  -49.1391 H         1 UNK         0.0600 
    228 H228       -7.5971  -15.9042  -50.2236 H         1 UNK         0.0600 
    229 H229       -7.7894  -17.6114  -50.6311 H         1 UNK         0.0600 
    230 H230       -7.7624  -16.8525  -52.4743 H         1 UNK         0.3000 
    231 H231       -7.0099  -14.9497  -54.4349 H         1 UNK         0.0600 
    232 H232       -9.0513  -15.7961  -55.6085 H         1 UNK         0.0600 
    233 H233       -9.3638  -15.5181  -53.9033 H         1 UNK         0.0600 
    234 H234       -9.1317  -17.1617  -54.5018 H         1 UNK         0.0600 
    235 H235       -6.1993  -18.3714  -54.2012 H         1 UNK         0.3000 
    236 H236       -5.5375  -18.7028  -57.0231 H         1 UNK         0.0600 
    237 H237       -6.1780  -20.6389  -55.5934 H         1 UNK         0.0600 
    238 H238       -4.5691  -20.8468  -56.2700 H         1 UNK         0.0600 
    239 H239       -4.7557  -20.3805  -54.5868 H         1 UNK         0.0600 
    240 H240       -3.9157  -17.4805  -54.1582 H         1 UNK         0.3000 
    241 H241       -1.2764  -17.2643  -55.4781 H         1 UNK         0.0600 
    242 H242       -3.9195  -15.0525  -54.2524 H         1 UNK         0.3800 
    243 H243       -3.4694  -13.7429  -55.3278 H         1 UNK         0.3800 
    244 H244       -2.2913  -16.5912  -52.6802 H         1 UNK         0.0800 
    245 H245       -0.8178  -15.8970  -53.2783 H         1 UNK         0.0800 
    246 H246        1.4334  -16.9579  -52.9758 H         1 UNK         0.0800 
    247 H247        0.5594  -16.7421  -51.4750 H         1 UNK         0.0800 
@<TRIPOS>BOND
     1    1    2 1    
     2    1  127 1    
     3    1  128 1    
     4    1  129 1    
     5    2    3 2    
     6    2    4 am   BACKBONE|DICT|INTERRES
     7    4    5 1    
     8    4  130 1    
     9    5    6 1    
    10    5   65 1    
    11    5  131 1    
    12    6    7 1    
    13    6  132 1    
    14    6  133 1    
    15    7    8 1    
    16    8    9 1    
    17    8  134 1    
    18    8  135 1    
    19    9   10 ar   
    20    9   14 ar   
    21   10   11 ar   
    22   10  136 1    
    23   11   12 ar   
    24   11  126 1    
    25   12   13 ar   
    26   12  137 1    
    27   13   14 ar   
    28   13   15 1    
    29   14  138 1    
    30   15   16 1    
    31   15  139 1    
    32   15  140 1    
    33   16   17 1    
    34   17   18 1    
    35   17  141 1    
    36   17  142 1    
    37   18   19 1    
    38   18   67 1    
    39   18  143 1    
    40   19   20 am   BACKBONE|DICT|INTERRES
    41   19  144 1    
    42   20   21 2    
    43   20   22 1    
    44   22   23 1    
    45   22   24 1    
    46   22  145 1    
    47   23  146 1    
    48   23  147 1    
    49   23  148 1    
    50   24   25 am   BACKBONE|DICT|INTERRES
    51   24  149 1    
    52   25   26 2    
    53   25   27 1    
    54   27   28 1    
    55   27   29 1    
    56   27  150 1    
    57   28  151 1    
    58   28  152 1    
    59   28  153 1    
    60   29   30 am   BACKBONE|DICT|INTERRES
    61   29  154 1    
    62   30   31 2    
    63   30   32 1    
    64   32   33 1    
    65   32   34 1    
    66   32  155 1    
    67   33  156 1    
    68   33  157 1    
    69   33  158 1    
    70   34   35 am   BACKBONE|DICT|INTERRES
    71   34  159 1    
    72   35   36 2    
    73   35   37 1    
    74   37   38 1    
    75   37   39 1    
    76   37  160 1    
    77   38  161 1    
    78   38  162 1    
    79   38  163 1    
    80   39   40 am   BACKBONE|DICT|INTERRES
    81   39  164 1    
    82   40   41 2    
    83   40   42 1    
    84   42   43 1    
    85   42   44 1    
    86   42  165 1    
    87   43  166 1    
    88   43  167 1    
    89   43  168 1    
    90   44   45 am   BACKBONE|DICT|INTERRES
    91   44  169 1    
    92   45   46 2    
    93   45   47 1    
    94   47   48 1    
    95   47   49 1    
    96   47  170 1    
    97   48  171 1    
    98   48  172 1    
    99   48  173 1    
   100   49   50 am   BACKBONE|DICT|INTERRES
   101   49  174 1    
   102   50   51 2    
   103   50   52 1    
   104   52   53 1    
   105   52   54 1    
   106   52  175 1    
   107   53  176 1    
   108   53  177 1    
   109   53  178 1    
   110   54   55 am   BACKBONE|DICT|INTERRES
   111   54  179 1    
   112   55   56 2    
   113   55   57 1    
   114   57   58 1    
   115   57   59 1    
   116   57  180 1    
   117   58  181 1    
   118   58  182 1    
   119   58  183 1    
   120   59   60 am   BACKBONE|DICT|INTERRES
   121   59  184 1    
   122   60   61 2    
   123   60   62 1    
   124   62   63 1    
   125   62   64 1    
   126   62  185 1    
   127   63  186 1    
   128   63  187 1    
   129   63  188 1    
   130   64   65 am   BACKBONE|DICT|INTERRES
   131   64  189 1    
   132   65   66 2    
   133   67   68 2    
   134   67   69 am   BACKBONE|DICT|INTERRES
   135   69   70 1    
   136   69  190 1    
   137   70   71 1    
   138   70   72 1    
   139   70  191 1    
   140   71  192 1    
   141   71  193 1    
   142   71  194 1    
   143   72   73 2    
   144   72   74 am   BACKBONE|DICT|INTERRES
   145   74   75 1    
   146   74  195 1    
   147   75   76 1    
   148   75   77 1    
   149   75  196 1    
   150   76  197 1    
   151   76  198 1    
   152   76  199 1    
   153   77   78 2    
   154   77   79 am   BACKBONE|DICT|INTERRES
   155   79   80 1    
   156   79  200 1    
   157   80   81 1    
   158   80   82 1    
   159   80  201 1    
   160   81  202 1    
   161   81  203 1    
   162   81  204 1    
   163   82   83 2    
   164   82   84 am   BACKBONE|DICT|INTERRES
   165   84   85 1    
   166   84  205 1    
   167   85   86 1    
   168   85   87 1    
   169   85  206 1    
   170   86  207 1    
   171   86  208 1    
   172   86  209 1    
   173   87   88 2    
   174   87   89 am   BACKBONE|DICT|INTERRES
   175   89   90 1    
   176   89  210 1    
   177   90   91 1    
   178   90   92 1    
   179   90  211 1    
   180   91  212 1    
   181   91  213 1    
   182   91  214 1    
   183   92   93 2    
   184   92   94 am   BACKBONE|DICT|INTERRES
   185   94   95 1    
   186   94  215 1    
   187   95   96 1    
   188   95   97 1    
   189   95  216 1    
   190   96  217 1    
   191   96  218 1    
   192   96  219 1    
   193   97   98 2    
   194   97   99 am   BACKBONE|DICT|INTERRES
   195   99  100 1    
   196   99  220 1    
   197  100  101 1    
   198  100  102 1    
   199  100  221 1    
   200  101  222 1    
   201  101  223 1    
   202  101  224 1    
   203  102  103 2    
   204  102  104 am   BACKBONE|DICT|INTERRES
   205  104  105 1    
   206  104  225 1    
   207  105  106 1    
   208  105  107 1    
   209  105  226 1    
   210  106  227 1    
   211  106  228 1    
   212  106  229 1    
   213  107  108 2    
   214  107  109 am   BACKBONE|DICT|INTERRES
   215  109  110 1    
   216  109  230 1    
   217  110  111 1    
   218  110  112 1    
   219  110  231 1    
   220  111  232 1    
   221  111  233 1    
   222  111  234 1    
   223  112  113 2    
   224  112  114 am   BACKBONE|DICT|INTERRES
   225  114  115 1    
   226  114  235 1    
   227  115  116 1    
   228  115  117 1    
   229  115  236 1    
   230  116  237 1    
   231  116  238 1    
   232  116  239 1    
   233  117  118 2    
   234  117  119 am   BACKBONE|DICT|INTERRES
   235  119  120 1    
   236  119  240 1    
   237  120  121 1    
   238  120  124 1    
   239  120  241 1    
   240  121  122 am   BACKBONE|DICT|INTERRES
   241  121  123 2    
   242  122  242 1    
   243  122  243 1    
   244  124  125 1    
   245  124  244 1    
   246  124  245 1    
   247  125  126 1    
   248  126  246 1    
   249  126  247 1    
@<TRIPOS>SUBSTRUCTURE
     1 UNK         1 GROUP             0       ****    0 ROOT    
