@<TRIPOS>MOLECULE
3R540
247   249    1
SMALL
USER_CHARGES


@<TRIPOS>ATOM
      1 CA         -4.5354  -17.9303  -45.4806 C.3       0 UNK        -0.1800 
      2 C          -4.3183  -16.4262  -45.4625 C.2       0 UNK         0.5000 
      3 O          -4.4324  -15.8000  -44.4087 O.2       0 UNK        -0.5000 
      4 N          -4.0192  -15.8444  -46.6296 N.am      1 UNK        -0.5000 
      5 CA         -3.6970  -14.4268  -46.8116 C.3       1 UNK         0.1400 
      6 C6         -3.7043  -13.9959  -48.3041 C.3       23 UNK        -0.0398 
      7 S7         -2.9063  -15.1742  -49.4509 S.3       23 UNK        -0.2404 
      8 C8         -1.2779  -14.4048  -49.6889 C.3       23 UNK        -0.0205 
      9 C9         -0.3033  -15.4060  -50.2816 C.ar      23 UNK        -0.0193 
     10 C10         0.0220  -15.3704  -51.6412 C.ar      23 UNK        -0.1150 
     11 C11         0.8918  -16.3162  -52.1955 C.ar      23 UNK        -0.0193 
     12 C12         1.4385  -17.2984  -51.3589 C.ar      23 UNK        -0.1150 
     13 C13         1.1106  -17.3515  -50.0034 C.ar      23 UNK        -0.0193 
     14 C14         0.2495  -16.3948  -49.4649 C.ar      23 UNK        -0.1150 
     15 C15         1.6557  -18.4783  -49.1447 C.3       23 UNK        -0.0205 
     16 S16         0.7601  -20.0202  -49.4794 S.3       23 UNK        -0.2404 
     17 C17        -0.8217  -19.7197  -48.6138 C.3       23 UNK        -0.0398 
     18 CA         -1.1565  -20.8701  -47.6345 C.3       11 UNK         0.1400 
     19 N          -0.1481  -21.0332  -46.5867 N.am      11 UNK        -0.5000 
     20 C           0.5565  -22.1505  -46.3699 C.2       10 UNK         0.5000 
     21 O           0.4583  -23.1735  -47.0465 O.2       10 UNK        -0.5000 
     22 CA          1.5109  -22.1426  -45.1636 C.3       10 UNK         0.1400 
     23 CB          2.9029  -21.6493  -45.5850 C.3       10 UNK        -0.1800 
     24 N           1.0345  -21.3452  -44.0305 N.am      10 UNK        -0.5000 
     25 C          -0.1034  -21.5634  -43.3555 C.2       9 UNK         0.5000 
     26 O          -0.9326  -22.4166  -43.6784 O.2       9 UNK        -0.5000 
     27 CA         -0.3713  -20.6590  -42.1421 C.3       9 UNK         0.1400 
     28 CB          0.5697  -21.0089  -40.9786 C.3       9 UNK        -0.1800 
     29 N          -0.1954  -19.2536  -42.5019 N.am      9 UNK        -0.5000 
     30 C          -1.1959  -18.4098  -42.7920 C.2       8 UNK         0.5000 
     31 O          -2.3851  -18.7027  -42.6834 O.2       8 UNK        -0.5000 
     32 CA         -0.8202  -16.9957  -43.2840 C.3       8 UNK         0.1400 
     33 CB         -0.9301  -15.9894  -42.1282 C.3       8 UNK        -0.1800 
     34 N           0.5181  -16.8994  -43.8673 N.am      8 UNK        -0.5000 
     35 C           0.9423  -17.5648  -44.9503 C.2       7 UNK         0.5000 
     36 O           0.2422  -18.3345  -45.6081 O.2       7 UNK        -0.5000 
     37 CA          2.4298  -17.4021  -45.3078 C.3       7 UNK         0.1400 
     38 CB          2.6427  -16.1694  -46.1972 C.3       7 UNK        -0.1800 
     39 N           3.2982  -17.3124  -44.1296 N.am      7 UNK        -0.5000 
     40 C           3.4429  -18.2688  -43.1997 C.2       6 UNK         0.5000 
     41 O           2.8276  -19.3345  -43.2127 O.2       6 UNK        -0.5000 
     42 CA          4.4080  -17.9641  -42.0416 C.3       6 UNK         0.1400 
     43 CB          5.8644  -18.1869  -42.4761 C.3       6 UNK        -0.1800 
     44 N           4.2486  -16.5971  -41.5470 N.am      6 UNK        -0.5000 
     45 C           3.2041  -16.1764  -40.8191 C.2       5 UNK         0.5000 
     46 O           2.3040  -16.9157  -40.4208 O.2       5 UNK        -0.5000 
     47 CA          3.1391  -14.6658  -40.5189 C.3       5 UNK         0.1400 
     48 CB          3.9217  -14.3332  -39.2396 C.3       5 UNK        -0.1800 
     49 N           3.6352  -13.8362  -41.6232 N.am      5 UNK        -0.5000 
     50 C           3.0675  -13.7844  -42.8342 C.2       4 UNK         0.5000 
     51 O           2.0610  -14.4326  -43.1433 O.2       4 UNK        -0.5000 
     52 CA          3.7509  -12.8964  -43.8860 C.3       4 UNK         0.1400 
     53 CB          5.0458  -13.5499  -44.4048 C.3       4 UNK        -0.1800 
     54 N           2.7949  -12.7283  -44.9691 N.am      4 UNK        -0.5000 
     55 C           2.8231  -11.8674  -45.9903 C.2       3 UNK         0.5000 
     56 O           3.7427  -11.0769  -46.2033 O.2       3 UNK        -0.5000 
     57 CA          1.5868  -11.8849  -46.9162 C.3       3 UNK         0.1400 
     58 CB          1.8490  -12.7489  -48.1598 C.3       3 UNK        -0.1800 
     59 N           0.3848  -12.3747  -46.2292 N.am      3 UNK        -0.5000 
     60 C          -0.2600  -11.6978  -45.2699 C.2       2 UNK         0.5000 
     61 O          -0.0196  -10.5219  -44.9907 O.2       2 UNK        -0.5000 
     62 CA         -1.3279  -12.4814  -44.4833 C.3       2 UNK         0.1400 
     63 CB         -1.9266  -11.6734  -43.3182 C.3       2 UNK        -0.1800 
     64 N          -2.4162  -12.9524  -45.3368 N.am      2 UNK        -0.5000 
     65 C          -2.3817  -14.0559  -46.0924 C.2       1 UNK         0.5000 
     66 O          -1.3763  -14.7589  -46.2243 O.2       1 UNK        -0.5000 
     67 C          -2.5702  -20.7596  -47.0307 C.2       11 UNK         0.5000 
     68 O          -3.4767  -20.2778  -47.7078 O.2       11 UNK        -0.5000 
     69 N          -2.7561  -21.2565  -45.7988 N.am      12 UNK        -0.5000 
     70 CA         -4.0505  -21.7219  -45.2931 C.3       12 UNK         0.1400 
     71 CB         -4.2234  -21.3471  -43.8141 C.3       12 UNK        -0.1800 
     72 C          -4.1403  -23.2467  -45.4811 C.2       12 UNK         0.5000 
     73 O          -5.1833  -23.7530  -45.8980 O.2       12 UNK        -0.5000 
     74 N          -3.0227  -23.9434  -45.2263 N.am      13 UNK        -0.5000 
     75 CA         -2.8060  -25.3545  -45.5437 C.3       13 UNK         0.1400 
     76 CB         -1.4558  -25.7767  -44.9423 C.3       13 UNK        -0.1800 
     77 C          -2.8339  -25.6366  -47.0617 C.2       13 UNK         0.5000 
     78 O          -2.7403  -24.7087  -47.8689 O.2       13 UNK        -0.5000 
     79 N          -2.9597  -26.9237  -47.4192 N.am      14 UNK        -0.5000 
     80 CA         -2.9858  -27.4558  -48.7906 C.3       14 UNK         0.1400 
     81 CB         -1.6022  -27.3025  -49.4572 C.3       14 UNK        -0.1800 
     82 C          -4.1355  -26.8699  -49.6388 C.2       14 UNK         0.5000 
     83 O          -3.9283  -26.4841  -50.7923 O.2       14 UNK        -0.5000 
     84 N          -5.3235  -26.7841  -49.0184 N.am      15 UNK        -0.5000 
     85 CA         -6.5538  -26.1811  -49.5447 C.3       15 UNK         0.1400 
     86 CB         -7.1244  -27.0279  -50.7022 C.3       15 UNK        -0.1800 
     87 C          -6.3423  -24.7028  -49.9268 C.2       15 UNK         0.5000 
     88 O          -6.6402  -24.3056  -51.0530 O.2       15 UNK        -0.5000 
     89 N          -5.7705  -23.9350  -48.9882 N.am      16 UNK        -0.5000 
     90 CA         -5.3189  -22.5489  -49.1401 C.3       16 UNK         0.1400 
     91 CB         -6.5169  -21.5873  -49.2724 C.3       16 UNK        -0.1800 
     92 C          -4.2690  -22.3853  -50.2606 C.2       16 UNK         0.5000 
     93 O          -4.3783  -21.4756  -51.0837 O.2       16 UNK        -0.5000 
     94 N          -3.3011  -23.3161  -50.2822 N.am      17 UNK        -0.5000 
     95 CA         -2.2702  -23.5343  -51.3009 C.3       17 UNK         0.1400 
     96 CB         -1.0786  -22.5881  -51.0797 C.3       17 UNK        -0.1800 
     97 C          -2.8337  -23.5109  -52.7349 C.2       17 UNK         0.5000 
     98 O          -2.4567  -22.6553  -53.5394 O.2       17 UNK        -0.5000 
     99 N          -3.7555  -24.4502  -52.9914 N.am      18 UNK        -0.5000 
    100 CA        -4.5178  -24.6336  -54.2296 C.3       18 UNK         0.1400 
    101 CB        -3.5861  -24.9951  -55.4060 C.3       18 UNK        -0.1800 
    102 C         -5.4576  -23.4477  -54.5366 C.2       18 UNK         0.5000 
    103 O         -5.4845  -22.9497  -55.6640 O.2       18 UNK        -0.5000 
    104 N         -6.2239  -23.0326  -53.5184 N.am      19 UNK        -0.5000 
    105 CA        -7.2936  -22.0265  -53.4871 C.3       19 UNK         0.1400 
    106 CB        -8.4555  -22.4282  -54.4150 C.3       19 UNK        -0.1800 
    107 C         -6.8579  -20.5721  -53.7487 C.2       19 UNK         0.5000 
    108 O         -7.2765  -19.6745  -53.0171 O.2       19 UNK        -0.5000 
    109 N         -6.0519  -20.3562  -54.7913 N.am      20 UNK        -0.5000 
    110 CA        -5.5818  -19.0471  -55.2461 C.3       20 UNK         0.1400 
    111 CB        -5.2991  -19.1393  -56.7548 C.3       20 UNK        -0.1800 
    112 C         -4.3344  -18.5452  -54.4918 C.2       20 UNK         0.5000 
    113 O         -3.9212  -17.4070  -54.7207 O.2       20 UNK        -0.5000 
    114 N         -3.7551  -19.4021  -53.6386 N.am      21 UNK        -0.5000 
    115 CA        -2.4563  -19.2840  -52.9710 C.3       21 UNK         0.1400 
    116 CB        -2.3592  -18.0050  -52.1162 C.3       21 UNK        -0.1800 
    117 C         -1.2744  -19.4391  -53.9518 C.2       21 UNK         0.5000 
    118 O         -1.4673  -19.4663  -55.1700 O.2       21 UNK        -0.5000 
    119 N         -0.0637  -19.5878  -53.3973 N.am      22 UNK        -0.5000 
    120 CA         1.1953  -19.8608  -54.1206 C.3       22 UNK         0.1400 
    121 C          1.2799  -21.2672  -54.7995 C.2       22 UNK         0.5000 
    122 N          0.2977  -22.1529  -54.6787 N.am      22 UNK        -0.7600 
    123 O          2.2897  -21.5870  -55.4212 O.2       22 UNK        -0.5000 
    124 C124        1.6073  -18.7083  -55.0933 C.3       23 UNK        -0.0398 
    125 S125        2.5205  -17.3449  -54.2930 S.3       23 UNK        -0.2404 
    126 C126        1.1855  -16.2462  -53.6965 C.3       23 UNK        -0.0205 
    127 H127       -4.8354  -18.2782  -46.4692 H         1 UNK         0.0600 
    128 H128       -5.3142  -18.2135  -44.7727 H         1 UNK         0.0600 
    129 H129       -3.6138  -18.4398  -45.2008 H         1 UNK         0.0600 
    130 H130       -3.9027  -16.4135  -47.4564 H         1 UNK         0.3000 
    131 H131       -4.4975  -13.8668  -46.3228 H         1 UNK         0.0600 
    132 H132       -4.7405  -13.9029  -48.6317 H         1 UNK         0.0800 
    133 H133       -3.2761  -13.0000  -48.4333 H         1 UNK         0.0800 
    134 H134       -1.3773  -13.5282  -50.3308 H         1 UNK         0.0800 
    135 H135       -0.8909  -14.0512  -48.7341 H         1 UNK         0.0800 
    136 H136       -0.4181  -14.6132  -52.2750 H         1 UNK         0.1150 
    137 H137        2.1020  -18.0535  -51.7509 H         1 UNK         0.1150 
    138 H138       -0.0212  -16.4348  -48.4185 H         1 UNK         0.1150 
    139 H139        2.7154  -18.6237  -49.3587 H         1 UNK         0.0800 
    140 H140        1.5816  -18.2444  -48.0842 H         1 UNK         0.0800 
    141 H141       -1.5955  -19.6192  -49.3767 H         1 UNK         0.0800 
    142 H142       -0.7941  -18.7681  -48.0822 H         1 UNK         0.0800 
    143 H143       -1.2074  -21.7815  -48.2315 H         1 UNK         0.0600 
    144 H144        0.0186  -20.2131  -46.0091 H         1 UNK         0.3000 
    145 H145        1.6063  -23.1735  -44.8165 H         1 UNK         0.0600 
    146 H146        3.3065  -22.2618  -46.3923 H         1 UNK         0.0600 
    147 H147        2.8716  -20.6197  -45.9401 H         1 UNK         0.0600 
    148 H148        3.6084  -21.6975  -44.7554 H         1 UNK         0.0600 
    149 H149        1.6664  -20.6158  -43.7056 H         1 UNK         0.3000 
    150 H150       -1.3946  -20.8425  -41.8082 H         1 UNK         0.0600 
    151 H151        0.4635  -22.0561  -40.6927 H         1 UNK         0.0600 
    152 H152        0.3435  -20.4068  -40.0985 H         1 UNK         0.0600 
    153 H153        1.6167  -20.8422  -41.2344 H         1 UNK         0.0600 
    154 H154        0.7569  -18.9373  -42.6334 H         1 UNK         0.3000 
    155 H155       -1.5364  -16.7138  -44.0583 H         1 UNK         0.0600 
    156 H156       -1.9424  -15.9712  -41.7226 H         1 UNK         0.0600 
    157 H157       -0.6932  -14.9782  -42.4543 H         1 UNK         0.0600 
    158 H158       -0.2520  -16.2417  -41.3123 H         1 UNK         0.0600 
    159 H159        1.1593  -16.2527  -43.4203 H         1 UNK         0.3000 
    160 H160        2.7329  -18.2839  -45.8737 H         1 UNK         0.0600 
    161 H161        2.3620  -15.2554  -45.6803 H         1 UNK         0.0600 
    162 H162        2.0343  -16.2198  -47.0987 H         1 UNK         0.0600 
    163 H163        3.6821  -16.0781  -46.5120 H         1 UNK         0.0600 
    164 H164        3.8140  -16.4545  -44.0157 H         1 UNK         0.3000 
    165 H165        4.1858  -18.6586  -41.2284 H         1 UNK         0.0600 
    166 H166        6.5503  -18.0406  -41.6415 H         1 UNK         0.0600 
    167 H167        6.0105  -19.2045  -42.8409 H         1 UNK         0.0600 
    168 H168        6.1589  -17.5059  -43.2756 H         1 UNK         0.0600 
    169 H169        4.9512  -15.9245  -41.8156 H         1 UNK         0.3000 
    170 H170        2.0902  -14.4099  -40.3533 H         1 UNK         0.0600 
    171 H171        3.5595  -14.9228  -38.3963 H         1 UNK         0.0600 
    172 H172        4.9866  -14.5408  -39.3522 H         1 UNK         0.0600 
    173 H173        3.8103  -13.2825  -38.9711 H         1 UNK         0.0600 
    174 H174        4.4572  -13.2795  -41.4374 H         1 UNK         0.3000 
    175 H175        3.9679  -11.9224  -43.4437 H         1 UNK         0.0600 
    176 H176        4.8532  -14.5200  -44.8630 H         1 UNK         0.0600 
    177 H177        5.5359  -12.9234  -45.1499 H         1 UNK         0.0600 
    178 H178        5.7618  -13.7031  -43.5968 H         1 UNK         0.0600 
    179 H179        1.9793  -13.3174  -44.8543 H         1 UNK         0.3000 
    180 H180        1.4081  -10.8591  -47.2452 H         1 UNK         0.0600 
    181 H181        1.9356  -13.8064  -47.9096 H         1 UNK         0.0600 
    182 H182        2.7742  -12.4522  -48.6555 H         1 UNK         0.0600 
    183 H183        1.0473  -12.6394  -48.8892 H         1 UNK         0.0600 
    184 H184        0.0920  -13.3285  -46.4141 H         1 UNK         0.3000 
    185 H185       -0.8209  -13.3459  -44.0520 H         1 UNK         0.0600 
    186 H186       -1.1467  -11.3361  -42.6342 H         1 UNK         0.0600 
    187 H187       -2.4612  -10.7905  -43.6709 H         1 UNK         0.0600 
    188 H188       -2.6233  -12.2786  -42.7376 H         1 UNK         0.0600 
    189 H189       -3.2673  -12.4100  -45.3013 H         1 UNK         0.3000 
    190 H190       -1.9428  -21.5936  -45.2986 H         1 UNK         0.3000 
    191 H191       -4.8686  -21.2637  -45.8527 H         1 UNK         0.0600 
    192 H192       -4.2322  -20.2671  -43.6813 H         1 UNK         0.0600 
    193 H193       -5.1708  -21.7242  -43.4271 H         1 UNK         0.0600 
    194 H194       -3.4304  -21.7555  -43.1887 H         1 UNK         0.0600 
    195 H195       -2.2242  -23.4546  -44.8388 H         1 UNK         0.3000 
    196 H196       -3.6026  -25.9332  -45.0722 H         1 UNK         0.0600 
    197 H197       -1.2630  -26.8380  -45.1025 H         1 UNK         0.0600 
    198 H198       -1.4314  -25.6027  -43.8662 H         1 UNK         0.0600 
    199 H199       -0.6290  -25.2217  -45.3879 H         1 UNK         0.0600 
    200 H200       -3.0358  -27.6167  -46.6874 H         1 UNK         0.3000 
    201 H201       -3.1901  -28.5240  -48.7063 H         1 UNK         0.0600 
    202 H202       -0.8267  -27.7887  -48.8655 H         1 UNK         0.0600 
    203 H203       -1.3207  -26.2565  -49.5770 H         1 UNK         0.0600 
    204 H204       -1.5890  -27.7615  -50.4465 H         1 UNK         0.0600 
    205 H205       -5.3751  -27.1152  -48.0653 H         1 UNK         0.3000 
    206 H206       -7.2840  -26.1915  -48.7343 H         1 UNK         0.0600 
    207 H207       -7.2812  -28.0614  -50.3938 H         1 UNK         0.0600 
    208 H208       -8.0881  -26.6376  -51.0313 H         1 UNK         0.0600 
    209 H209       -6.4626  -27.0338  -51.5688 H         1 UNK         0.0600 
    210 H210       -5.5487  -24.3543  -48.0938 H         1 UNK         0.3000 
    211 H211       -4.8121  -22.3142  -48.2092 H         1 UNK         0.0600 
    212 H212       -7.0713  -21.7522  -50.1954 H         1 UNK         0.0600 
    213 H213       -6.1813  -20.5495  -49.2728 H         1 UNK         0.0600 
    214 H214       -7.2085  -21.7040  -48.4382 H         1 UNK         0.0600 
    215 H215       -3.2812  -23.9823  -49.5134 H         1 UNK         0.3000 
    216 H216       -1.8981  -24.5479  -51.1503 H         1 UNK         0.0600 
    217 H217       -0.3589  -22.6472  -51.8963 H         1 UNK         0.0600 
    218 H218       -0.5422  -22.8558  -50.1698 H         1 UNK         0.0600 
    219 H219       -1.3952  -21.5528  -50.9845 H         1 UNK         0.0600 
    220 H220       -3.9801  -25.0979  -52.2402 H         1 UNK         0.3000 
    221 H221       -5.1669  -25.4929  -54.0551 H         1 UNK         0.0600 
    222 H222       -2.9365  -24.1643  -55.6827 H         1 UNK         0.0600 
    223 H223       -2.9540  -25.8484  -55.1604 H         1 UNK         0.0600 
    224 H224       -4.1640  -25.2639  -56.2909 H         1 UNK         0.0600 
    225 H225       -6.1147  -23.5172  -52.6291 H         1 UNK         0.3000 
    226 H226       -7.6778  -22.0518  -52.4670 H         1 UNK         0.0600 
    227 H227       -8.8332  -23.4196  -54.1649 H         1 UNK         0.0600 
    228 H228       -9.2881  -21.7300  -54.3202 H         1 UNK         0.0600 
    229 H229       -8.1565  -22.4372  -55.4635 H         1 UNK         0.0600 
    230 H230       -5.7502  -21.1701  -55.3234 H         1 UNK         0.3000 
    231 H231       -6.3738  -18.3111  -55.0930 H         1 UNK         0.0600 
    232 H232       -4.5053  -19.8565  -56.9688 H         1 UNK         0.0600 
    233 H233       -4.9872  -18.1744  -57.1565 H         1 UNK         0.0600 
    234 H234       -6.1881  -19.4473  -57.3055 H         1 UNK         0.0600 
    235 H235       -4.1922  -20.3078  -53.5352 H         1 UNK         0.3000 
    236 H236       -2.4165  -20.1330  -52.2938 H         1 UNK         0.0600 
    237 H237       -3.2426  -17.8776  -51.4906 H         1 UNK         0.0600 
    238 H238       -1.5002  -18.0494  -51.4474 H         1 UNK         0.0600 
    239 H239       -2.2461  -17.1096  -52.7275 H         1 UNK         0.0600 
    240 H240        0.0161  -19.5637  -52.3909 H         1 UNK         0.3000 
    241 H241        1.9558  -19.9196  -53.3415 H         1 UNK         0.0600 
    242 H242        0.4013  -23.0513  -55.1215 H         1 UNK         0.3800 
    243 H243       -0.5723  -21.9338  -54.2100 H         1 UNK         0.3800 
    244 H244        2.2807  -19.0739  -55.8697 H         1 UNK         0.0800 
    245 H245        0.7544  -18.3078  -55.6400 H         1 UNK         0.0800 
    246 H246        0.2651  -16.4502  -54.2452 H         1 UNK         0.0800 
    247 H247        1.4680  -15.2220  -53.9441 H         1 UNK         0.0800 
@<TRIPOS>BOND
     1    1    2 1    
     2    1  127 1    
     3    1  128 1    
     4    1  129 1    
     5    2    3 2    
     6    2    4 am   BACKBONE|DICT|INTERRES
     7    4    5 1    
     8    4  130 1    
     9    5    6 1    
    10    5   65 1    
    11    5  131 1    
    12    6    7 1    
    13    6  132 1    
    14    6  133 1    
    15    7    8 1    
    16    8    9 1    
    17    8  134 1    
    18    8  135 1    
    19    9   10 ar   
    20    9   14 ar   
    21   10   11 ar   
    22   10  136 1    
    23   11   12 ar   
    24   11  126 1    
    25   12   13 ar   
    26   12  137 1    
    27   13   14 ar   
    28   13   15 1    
    29   14  138 1    
    30   15   16 1    
    31   15  139 1    
    32   15  140 1    
    33   16   17 1    
    34   17   18 1    
    35   17  141 1    
    36   17  142 1    
    37   18   19 1    
    38   18   67 1    
    39   18  143 1    
    40   19   20 am   BACKBONE|DICT|INTERRES
    41   19  144 1    
    42   20   21 2    
    43   20   22 1    
    44   22   23 1    
    45   22   24 1    
    46   22  145 1    
    47   23  146 1    
    48   23  147 1    
    49   23  148 1    
    50   24   25 am   BACKBONE|DICT|INTERRES
    51   24  149 1    
    52   25   26 2    
    53   25   27 1    
    54   27   28 1    
    55   27   29 1    
    56   27  150 1    
    57   28  151 1    
    58   28  152 1    
    59   28  153 1    
    60   29   30 am   BACKBONE|DICT|INTERRES
    61   29  154 1    
    62   30   31 2    
    63   30   32 1    
    64   32   33 1    
    65   32   34 1    
    66   32  155 1    
    67   33  156 1    
    68   33  157 1    
    69   33  158 1    
    70   34   35 am   BACKBONE|DICT|INTERRES
    71   34  159 1    
    72   35   36 2    
    73   35   37 1    
    74   37   38 1    
    75   37   39 1    
    76   37  160 1    
    77   38  161 1    
    78   38  162 1    
    79   38  163 1    
    80   39   40 am   BACKBONE|DICT|INTERRES
    81   39  164 1    
    82   40   41 2    
    83   40   42 1    
    84   42   43 1    
    85   42   44 1    
    86   42  165 1    
    87   43  166 1    
    88   43  167 1    
    89   43  168 1    
    90   44   45 am   BACKBONE|DICT|INTERRES
    91   44  169 1    
    92   45   46 2    
    93   45   47 1    
    94   47   48 1    
    95   47   49 1    
    96   47  170 1    
    97   48  171 1    
    98   48  172 1    
    99   48  173 1    
   100   49   50 am   BACKBONE|DICT|INTERRES
   101   49  174 1    
   102   50   51 2    
   103   50   52 1    
   104   52   53 1    
   105   52   54 1    
   106   52  175 1    
   107   53  176 1    
   108   53  177 1    
   109   53  178 1    
   110   54   55 am   BACKBONE|DICT|INTERRES
   111   54  179 1    
   112   55   56 2    
   113   55   57 1    
   114   57   58 1    
   115   57   59 1    
   116   57  180 1    
   117   58  181 1    
   118   58  182 1    
   119   58  183 1    
   120   59   60 am   BACKBONE|DICT|INTERRES
   121   59  184 1    
   122   60   61 2    
   123   60   62 1    
   124   62   63 1    
   125   62   64 1    
   126   62  185 1    
   127   63  186 1    
   128   63  187 1    
   129   63  188 1    
   130   64   65 am   BACKBONE|DICT|INTERRES
   131   64  189 1    
   132   65   66 2    
   133   67   68 2    
   134   67   69 am   BACKBONE|DICT|INTERRES
   135   69   70 1    
   136   69  190 1    
   137   70   71 1    
   138   70   72 1    
   139   70  191 1    
   140   71  192 1    
   141   71  193 1    
   142   71  194 1    
   143   72   73 2    
   144   72   74 am   BACKBONE|DICT|INTERRES
   145   74   75 1    
   146   74  195 1    
   147   75   76 1    
   148   75   77 1    
   149   75  196 1    
   150   76  197 1    
   151   76  198 1    
   152   76  199 1    
   153   77   78 2    
   154   77   79 am   BACKBONE|DICT|INTERRES
   155   79   80 1    
   156   79  200 1    
   157   80   81 1    
   158   80   82 1    
   159   80  201 1    
   160   81  202 1    
   161   81  203 1    
   162   81  204 1    
   163   82   83 2    
   164   82   84 am   BACKBONE|DICT|INTERRES
   165   84   85 1    
   166   84  205 1    
   167   85   86 1    
   168   85   87 1    
   169   85  206 1    
   170   86  207 1    
   171   86  208 1    
   172   86  209 1    
   173   87   88 2    
   174   87   89 am   BACKBONE|DICT|INTERRES
   175   89   90 1    
   176   89  210 1    
   177   90   91 1    
   178   90   92 1    
   179   90  211 1    
   180   91  212 1    
   181   91  213 1    
   182   91  214 1    
   183   92   93 2    
   184   92   94 am   BACKBONE|DICT|INTERRES
   185   94   95 1    
   186   94  215 1    
   187   95   96 1    
   188   95   97 1    
   189   95  216 1    
   190   96  217 1    
   191   96  218 1    
   192   96  219 1    
   193   97   98 2    
   194   97   99 am   BACKBONE|DICT|INTERRES
   195   99  100 1    
   196   99  220 1    
   197  100  101 1    
   198  100  102 1    
   199  100  221 1    
   200  101  222 1    
   201  101  223 1    
   202  101  224 1    
   203  102  103 2    
   204  102  104 am   BACKBONE|DICT|INTERRES
   205  104  105 1    
   206  104  225 1    
   207  105  106 1    
   208  105  107 1    
   209  105  226 1    
   210  106  227 1    
   211  106  228 1    
   212  106  229 1    
   213  107  108 2    
   214  107  109 am   BACKBONE|DICT|INTERRES
   215  109  110 1    
   216  109  230 1    
   217  110  111 1    
   218  110  112 1    
   219  110  231 1    
   220  111  232 1    
   221  111  233 1    
   222  111  234 1    
   223  112  113 2    
   224  112  114 am   BACKBONE|DICT|INTERRES
   225  114  115 1    
   226  114  235 1    
   227  115  116 1    
   228  115  117 1    
   229  115  236 1    
   230  116  237 1    
   231  116  238 1    
   232  116  239 1    
   233  117  118 2    
   234  117  119 am   BACKBONE|DICT|INTERRES
   235  119  120 1    
   236  119  240 1    
   237  120  121 1    
   238  120  124 1    
   239  120  241 1    
   240  121  122 am   BACKBONE|DICT|INTERRES
   241  121  123 2    
   242  122  242 1    
   243  122  243 1    
   244  124  125 1    
   245  124  244 1    
   246  124  245 1    
   247  125  126 1    
   248  126  246 1    
   249  126  247 1    
@<TRIPOS>SUBSTRUCTURE
     1 UNK         1 GROUP             0       ****    0 ROOT    
