@<TRIPOS>MOLECULE
3R540
247   249    1
SMALL
USER_CHARGES


@<TRIPOS>ATOM
      1 CA          5.5903  -17.0895  -45.7358 C.3       0 UNK        -0.1800 
      2 C           4.7209  -16.0514  -46.4298 C.2       0 UNK         0.5000 
      3 O           3.7971  -15.5255  -45.8105 O.2       0 UNK        -0.5000 
      4 N           5.0331  -15.7544  -47.7005 N.am      1 UNK        -0.5000 
      5 CA          4.2583  -14.9457  -48.6573 C.3       1 UNK         0.1400 
      6 C6          5.0331  -14.6990  -49.9804 C.3       23 UNK        -0.0398 
      7 S7          5.7798  -16.1937  -50.7146 S.3       23 UNK        -0.2404 
      8 C8          4.5285  -16.6557  -51.9518 C.3       23 UNK        -0.0205 
      9 C9          3.2699  -17.1936  -51.2916 C.ar      23 UNK        -0.0193 
     10 C10         2.0766  -16.4658  -51.3259 C.ar      23 UNK        -0.1150 
     11 C11         0.9181  -16.9567  -50.7138 C.ar      23 UNK        -0.0193 
     12 C12         0.9763  -18.1955  -50.0580 C.ar      23 UNK        -0.1150 
     13 C13         2.1639  -18.9310  -50.0172 C.ar      23 UNK        -0.0193 
     14 C14         3.3057  -18.4268  -50.6391 C.ar      23 UNK        -0.1150 
     15 C15         2.2120  -20.2748  -49.3112 C.3       23 UNK        -0.0205 
     16 S16         2.3216  -20.0667  -47.5076 S.3       23 UNK        -0.2404 
     17 C17         2.4668  -21.7952  -46.9490 C.3       23 UNK        -0.0398 
     18 CA          1.1453  -22.4976  -46.5487 C.3       11 UNK         0.1400 
     19 N           0.4273  -21.8678  -45.4344 N.am      11 UNK        -0.5000 
     20 C          -0.4961  -22.5255  -44.7144 C.2       10 UNK         0.5000 
     21 O          -0.7967  -23.7040  -44.9120 O.2       10 UNK        -0.5000 
     22 CA         -1.2401  -21.7456  -43.6187 C.3       10 UNK         0.1400 
     23 CB         -0.3579  -21.5695  -42.3738 C.3       10 UNK        -0.1800 
     24 N          -1.7421  -20.4506  -44.0763 N.am      10 UNK        -0.5000 
     25 C          -2.6596  -20.2915  -45.0411 C.2       9 UNK         0.5000 
     26 O          -3.1807  -21.2269  -45.6460 O.2       9 UNK        -0.5000 
     27 CA         -3.0449  -18.8498  -45.4195 C.3       9 UNK         0.1400 
     28 CB         -4.0932  -18.2944  -44.4449 C.3       9 UNK        -0.1800 
     29 N          -1.8947  -17.9487  -45.4813 N.am      9 UNK        -0.5000 
     30 C          -0.8722  -18.0947  -46.3370 C.2       8 UNK         0.5000 
     31 O          -0.8215  -18.9869  -47.1824 O.2       8 UNK        -0.5000 
     32 CA          0.3141  -17.1247  -46.1737 C.3       8 UNK         0.1400 
     33 CB         -0.0032  -15.7429  -46.7631 C.3       8 UNK        -0.1800 
     34 N           0.7145  -16.9739  -44.7760 N.am      8 UNK        -0.5000 
     35 C           1.1634  -17.9683  -43.9966 C.2       7 UNK         0.5000 
     36 O           1.3368  -19.1267  -44.3768 O.2       7 UNK        -0.5000 
     37 CA          1.3952  -17.6171  -42.5182 C.3       7 UNK         0.1400 
     38 CB          2.7226  -16.8656  -42.3302 C.3       7 UNK        -0.1800 
     39 N           0.2879  -16.8318  -41.9673 N.am      7 UNK        -0.5000 
     40 C          -0.9475  -17.3130  -41.7616 C.2       6 UNK         0.5000 
     41 O          -1.2718  -18.4767  -41.9883 O.2       6 UNK        -0.5000 
     42 CA         -2.0099  -16.3271  -41.2430 C.3       6 UNK         0.1400 
     43 CB         -1.9449  -16.2204  -39.7122 C.3       6 UNK        -0.1800 
     44 N          -1.8777  -14.9932  -41.8257 N.am      6 UNK        -0.5000 
     45 C          -2.0783  -14.6990  -43.1185 C.2       5 UNK         0.5000 
     46 O          -2.4420  -15.5177  -43.9612 O.2       5 UNK        -0.5000 
     47 CA         -1.7495  -13.2559  -43.5461 C.3       5 UNK         0.1400 
     48 CB         -2.9490  -12.3283  -43.3019 C.3       5 UNK        -0.1800 
     49 N          -0.5702  -12.7286  -42.8516 N.am      5 UNK        -0.5000 
     50 C           0.6561  -13.2501  -42.9764 C.2       4 UNK         0.5000 
     51 O           0.9251  -14.1856  -43.7360 O.2       4 UNK        -0.5000 
     52 CA          1.7451  -12.6870  -42.0567 C.3       4 UNK         0.1400 
     53 CB          1.6531  -13.3399  -40.6625 C.3       4 UNK        -0.1800 
     54 N           3.0254  -12.9760  -42.6866 N.am      4 UNK        -0.5000 
     55 C           4.2360  -12.5592  -42.3043 C.2       3 UNK         0.5000 
     56 O           4.4542  -11.8818  -41.2994 O.2       3 UNK        -0.5000 
     57 CA          5.3947  -12.9369  -43.2433 C.3       3 UNK         0.1400 
     58 CB          5.8630  -14.3767  -42.9845 C.3       3 UNK        -0.1800 
     59 N           5.0163  -12.7880  -44.6514 N.am      3 UNK        -0.5000 
     60 C           4.8620  -11.6022  -45.2617 C.2       2 UNK         0.5000 
     61 O           5.0836  -10.5243  -44.7078 O.2       2 UNK        -0.5000 
     62 CA          4.3903  -11.6166  -46.7275 C.3       2 UNK         0.1400 
     63 CB          5.0567  -10.5145  -47.5717 C.3       2 UNK        -0.1800 
     64 N           4.6421  -12.9141  -47.3507 N.am      2 UNK        -0.5000 
     65 C           3.7733  -13.5858  -48.1145 C.2       1 UNK         0.5000 
     66 O           2.6485  -13.1778  -48.4062 O.2       1 UNK        -0.5000 
     67 C           0.2221  -22.7832  -47.7509 C.2       11 UNK         0.5000 
     68 O           0.3791  -23.8244  -48.3872 O.2       11 UNK        -0.5000 
     69 N          -0.7506  -21.8981  -48.0168 N.am      12 UNK        -0.5000 
     70 CA         -1.7667  -22.0910  -49.0524 C.3       12 UNK         0.1400 
     71 CB         -2.5607  -20.7952  -49.2475 C.3       12 UNK        -0.1800 
     72 C          -2.7095  -23.2708  -48.7514 C.2       12 UNK         0.5000 
     73 O          -3.0447  -24.0273  -49.6640 O.2       12 UNK        -0.5000 
     74 N          -3.0918  -23.4312  -47.4770 N.am      13 UNK        -0.5000 
     75 CA         -3.8712  -24.5643  -46.9810 C.3       13 UNK         0.1400 
     76 CB         -4.3413  -24.2888  -45.5451 C.3       13 UNK        -0.1800 
     77 C          -3.0896  -25.8868  -47.0594 C.2       13 UNK         0.5000 
     78 O          -3.6533  -26.8914  -47.4927 O.2       13 UNK        -0.5000 
     79 N          -1.8002  -25.8573  -46.6899 N.am      14 UNK        -0.5000 
     80 CA         -0.8808  -26.9953  -46.7893 C.3       14 UNK         0.1400 
     81 CB          0.4409  -26.6543  -46.0855 C.3       14 UNK        -0.1800 
     82 C          -0.6271  -27.4369  -48.2443 C.2       14 UNK         0.5000 
     83 O          -0.5548  -28.6365  -48.5129 O.2       14 UNK        -0.5000 
     84 N          -0.5383  -26.4626  -49.1599 N.am      15 UNK        -0.5000 
     85 CA         -0.4383  -26.6697  -50.6065 C.3       15 UNK         0.1400 
     86 CB          0.0607  -25.3696  -51.2577 C.3       15 UNK        -0.1800 
     87 C          -1.7628  -27.1178  -51.2601 C.2       15 UNK         0.5000 
     88 O          -1.7411  -27.5500  -52.4132 O.2       15 UNK        -0.5000 
     89 N          -2.8797  -26.9951  -50.5265 N.am      16 UNK        -0.5000 
     90 CA         -4.2598  -27.2680  -50.9354 C.3       16 UNK         0.1400 
     91 CB         -4.4687  -28.7728  -51.2046 C.3       16 UNK        -0.1800 
     92 C          -4.7130  -26.3658  -52.1016 C.2       16 UNK         0.5000 
     93 O          -5.3208  -26.8447  -53.0610 O.2       16 UNK        -0.5000 
     94 N          -4.3952  -25.0670  -51.9975 N.am      17 UNK        -0.5000 
     95 CA         -4.6983  -24.0479  -53.0056 C.3       17 UNK         0.1400 
     96 CB         -3.9102  -22.7733  -52.6752 C.3       17 UNK        -0.1800 
     97 C          -6.2030  -23.7398  -53.1455 C.2       17 UNK         0.5000 
     98 O          -6.6326  -23.3276  -54.2238 O.2       17 UNK        -0.5000 
     99 N          -6.9720  -23.9619  -52.0675 N.am      18 UNK        -0.5000 
    100 CA        -8.4322  -23.8531  -51.9775 C.3       18 UNK         0.1400 
    101 CB        -9.0943  -25.0294  -52.7293 C.3       18 UNK        -0.1800 
    102 C         -8.9466  -22.4647  -52.4130 C.2       18 UNK         0.5000 
    103 O         -8.7242  -21.4890  -51.6972 O.2       18 UNK        -0.5000 
    104 N         -9.5988  -22.3849  -53.5802 N.am      19 UNK        -0.5000 
    105 CA       -10.1071  -21.1466  -54.1754 C.3       19 UNK         0.1400 
    106 CB       -11.0102  -21.5045  -55.3657 C.3       19 UNK        -0.1800 
    107 C         -9.0017  -20.1634  -54.6149 C.2       19 UNK         0.5000 
    108 O         -9.2737  -18.9681  -54.7299 O.2       19 UNK        -0.5000 
    109 N         -7.7833  -20.6714  -54.8440 N.am      20 UNK        -0.5000 
    110 CA        -6.6092  -19.8998  -55.2525 C.3       20 UNK         0.1400 
    111 CB        -5.8592  -20.6898  -56.3397 C.3       20 UNK        -0.1800 
    112 C         -5.6840  -19.5615  -54.0653 C.2       20 UNK         0.5000 
    113 O         -4.5376  -19.1698  -54.2930 O.2       20 UNK        -0.5000 
    114 N         -6.1622  -19.7342  -52.8233 N.am      21 UNK        -0.5000 
    115 CA        -5.4201  -19.4780  -51.5876 C.3       21 UNK         0.1400 
    116 CB        -6.1115  -20.2008  -50.4179 C.3       21 UNK        -0.1800 
    117 C         -5.2154  -17.9743  -51.3095 C.2       21 UNK         0.5000 
    118 O         -5.8563  -17.4126  -50.4187 O.2       21 UNK        -0.5000 
    119 N         -4.3052  -17.3669  -52.0777 N.am      22 UNK        -0.5000 
    120 CA        -3.8417  -15.9737  -51.9726 C.3       22 UNK         0.1400 
    121 C         -4.9274  -14.9245  -52.3700 C.2       22 UNK         0.5000 
    122 N         -4.7098  -13.6417  -52.1074 N.am      22 UNK        -0.7600 
    123 O         -5.9536  -15.2469  -52.9658 O.2       22 UNK        -0.5000 
    124 C124       -3.1462  -15.6649  -50.6108 C.3       23 UNK        -0.0398 
    125 S125       -1.8736  -16.8931  -50.1523 S.3       23 UNK        -0.2404 
    126 C126       -0.3545  -16.1074  -50.7930 C.3       23 UNK        -0.0205 
    127 H127        6.1848  -16.6243  -44.9509 H         1 UNK         0.0600 
    128 H128        6.2694  -17.5802  -46.4334 H         1 UNK         0.0600 
    129 H129        4.9622  -17.8559  -45.2809 H         1 UNK         0.0600 
    130 H130        5.8225  -16.2269  -48.1187 H         1 UNK         0.3000 
    131 H131        3.3650  -15.5294  -48.8865 H         1 UNK         0.0600 
    132 H132        4.3819  -14.2279  -50.7191 H         1 UNK         0.0800 
    133 H133        5.8502  -13.9942  -49.8142 H         1 UNK         0.0800 
    134 H134        4.3059  -15.8006  -52.5919 H         1 UNK         0.0800 
    135 H135        4.9447  -17.4249  -52.6039 H         1 UNK         0.0800 
    136 H136        2.0487  -15.5099  -51.8304 H         1 UNK         0.1150 
    137 H137        0.1064  -18.6035  -49.5670 H         1 UNK         0.1150 
    138 H138        4.2290  -18.9883  -50.6083 H         1 UNK         0.1150 
    139 H139        1.3198  -20.8435  -49.5711 H         1 UNK         0.0800 
    140 H140        3.0644  -20.8584  -49.6623 H         1 UNK         0.0800 
    141 H141        3.1353  -21.7933  -46.0873 H         1 UNK         0.0800 
    142 H142        2.9870  -22.3772  -47.7118 H         1 UNK         0.0800 
    143 H143        1.4541  -23.4805  -46.1863 H         1 UNK         0.0600 
    144 H144        0.6367  -20.8944  -45.2316 H         1 UNK         0.3000 
    145 H145       -2.1060  -22.3437  -43.3270 H         1 UNK         0.0600 
    146 H146       -0.9240  -21.1376  -41.5487 H         1 UNK         0.0600 
    147 H147        0.0303  -22.5294  -42.0310 H         1 UNK         0.0600 
    148 H148        0.4960  -20.9216  -42.5699 H         1 UNK         0.0600 
    149 H149       -1.3937  -19.6324  -43.5869 H         1 UNK         0.3000 
    150 H150       -3.4930  -18.8786  -46.4148 H         1 UNK         0.0600 
    151 H151       -4.9658  -18.9469  -44.3962 H         1 UNK         0.0600 
    152 H152       -4.4407  -17.3102  -44.7591 H         1 UNK         0.0600 
    153 H153       -3.6943  -18.2026  -43.4346 H         1 UNK         0.0600 
    154 H154       -1.8944  -17.1636  -44.8367 H         1 UNK         0.3000 
    155 H155        1.1647  -17.5322  -46.7212 H         1 UNK         0.0600 
    156 H156       -0.8318  -15.2611  -46.2438 H         1 UNK         0.0600 
    157 H157        0.8622  -15.0821  -46.7002 H         1 UNK         0.0600 
    158 H158       -0.2740  -15.8235  -47.8149 H         1 UNK         0.0600 
    159 H159        0.6475  -16.0400  -44.3834 H         1 UNK         0.3000 
    160 H160        1.4572  -18.5528  -41.9584 H         1 UNK         0.0600 
    161 H161        2.7326  -15.9185  -42.8685 H         1 UNK         0.0600 
    162 H162        3.5590  -17.4574  -42.7044 H         1 UNK         0.0600 
    163 H163        2.9162  -16.6583  -41.2779 H         1 UNK         0.0600 
    164 H164        0.4593  -15.8514  -41.8091 H         1 UNK         0.3000 
    165 H165       -2.9913  -16.7199  -41.5166 H         1 UNK         0.0600 
    166 H166       -2.7429  -15.5855  -39.3270 H         1 UNK         0.0600 
    167 H167       -2.0589  -17.2010  -39.2481 H         1 UNK         0.0600 
    168 H168       -0.9935  -15.8064  -39.3758 H         1 UNK         0.0600 
    169 H169       -1.5842  -14.2534  -41.2058 H         1 UNK         0.3000 
    170 H170       -1.5365  -13.2669  -44.6172 H         1 UNK         0.0600 
    171 H171       -3.8354  -12.6931  -43.8227 H         1 UNK         0.0600 
    172 H172       -3.1967  -12.2573  -42.2421 H         1 UNK         0.0600 
    173 H173       -2.7495  -11.3214  -43.6689 H         1 UNK         0.0600 
    174 H174       -0.7227  -11.9614  -42.2126 H         1 UNK         0.3000 
    175 H175        1.6229  -11.6052  -41.9765 H         1 UNK         0.0600 
    176 H176        1.8377  -14.4132  -40.7068 H         1 UNK         0.0600 
    177 H177        2.3749  -12.9086  -39.9694 H         1 UNK         0.0600 
    178 H178        0.6665  -13.1930  -40.2217 H         1 UNK         0.0600 
    179 H179        2.9361  -13.5291  -43.5312 H         1 UNK         0.3000 
    180 H180        6.2308  -12.2665  -43.0325 H         1 UNK         0.0600 
    181 H181        5.0832  -15.1032  -43.2137 H         1 UNK         0.0600 
    182 H182        6.1427  -14.5143  -41.9393 H         1 UNK         0.0600 
    183 H183        6.7374  -14.6184  -43.5885 H         1 UNK         0.0600 
    184 H184        4.7443  -13.6294  -45.1452 H         1 UNK         0.3000 
    185 H185        3.3167  -11.4206  -46.6947 H         1 UNK         0.0600 
    186 H186        4.8429   -9.5236  -47.1691 H         1 UNK         0.0600 
    187 H187        6.1404  -10.6329  -47.6008 H         1 UNK         0.0600 
    188 H188        4.6902  -10.5298  -48.5982 H         1 UNK         0.0600 
    189 H189        5.5438  -13.3308  -47.1645 H         1 UNK         0.3000 
    190 H190       -0.7967  -21.0336  -47.4855 H         1 UNK         0.3000 
    191 H191       -1.2524  -22.3128  -49.9897 H         1 UNK         0.0600 
    192 H192       -1.9146  -19.9805  -49.5731 H         1 UNK         0.0600 
    193 H193       -3.3236  -20.9297  -50.0099 H         1 UNK         0.0600 
    194 H194       -3.0609  -20.4825  -48.3310 H         1 UNK         0.0600 
    195 H195       -2.8408  -22.7203  -46.7949 H         1 UNK         0.3000 
    196 H196       -4.7566  -24.6636  -47.6124 H         1 UNK         0.0600 
    197 H197       -4.9289  -25.1225  -45.1589 H         1 UNK         0.0600 
    198 H198       -4.9710  -23.4000  -45.5021 H         1 UNK         0.0600 
    199 H199       -3.5016  -24.1354  -44.8669 H         1 UNK         0.0600 
    200 H200       -1.4253  -25.0008  -46.2933 H         1 UNK         0.3000 
    201 H201       -1.3371  -27.8362  -46.2630 H         1 UNK         0.0600 
    202 H202        0.2751  -26.3829  -45.0427 H         1 UNK         0.0600 
    203 H203        0.9527  -25.8238  -46.5710 H         1 UNK         0.0600 
    204 H204        1.1194  -27.5081  -46.0961 H         1 UNK         0.0600 
    205 H205       -0.5204  -25.4976  -48.8425 H         1 UNK         0.3000 
    206 H206        0.3006  -27.4515  -50.7931 H         1 UNK         0.0600 
    207 H207        1.0258  -25.0688  -50.8498 H         1 UNK         0.0600 
    208 H208        0.1874  -25.4920  -52.3340 H         1 UNK         0.0600 
    209 H209       -0.6401  -24.5489  -51.1009 H         1 UNK         0.0600 
    210 H210       -2.7791  -26.6175  -49.5935 H         1 UNK         0.3000 
    211 H211       -4.8866  -26.9989  -50.0842 H         1 UNK         0.0600 
    212 H212       -3.9116  -29.1122  -52.0781 H         1 UNK         0.0600 
    213 H213       -5.5216  -28.9941  -51.3829 H         1 UNK         0.0600 
    214 H214       -4.1518  -29.3718  -50.3508 H         1 UNK         0.0600 
    215 H215       -3.8826  -24.7541  -51.1751 H         1 UNK         0.3000 
    216 H216       -4.3511  -24.4195  -53.9719 H         1 UNK         0.0600 
    217 H217       -4.2161  -22.3578  -51.7160 H         1 UNK         0.0600 
    218 H218       -4.0649  -22.0081  -53.4361 H         1 UNK         0.0600 
    219 H219       -2.8393  -22.9716  -52.6270 H         1 UNK         0.0600 
    220 H220       -6.5056  -24.2659  -51.2255 H         1 UNK         0.3000 
    221 H221       -8.6875  -23.9527  -50.9215 H         1 UNK         0.0600 
    222 H222       -8.8370  -25.0416  -53.7890 H         1 UNK         0.0600 
    223 H223       -8.7780  -25.9836  -52.3076 H         1 UNK         0.0600 
    224 H224      -10.1813  -24.9887  -52.6479 H         1 UNK         0.0600 
    225 H225       -9.7140  -23.2282  -54.1232 H         1 UNK         0.3000 
    226 H226      -10.7160  -20.6377  -53.4252 H         1 UNK         0.0600 
    227 H227      -11.8432  -22.1351  -55.0542 H         1 UNK         0.0600 
    228 H228      -11.4354  -20.6075  -55.8180 H         1 UNK         0.0600 
    229 H229      -10.4587  -22.0344  -56.1433 H         1 UNK         0.0600 
    230 H230       -7.6248  -21.6633  -54.6886 H         1 UNK         0.3000 
    231 H231       -6.9215  -18.9497  -55.6903 H         1 UNK         0.0600 
    232 H232       -5.4442  -21.6194  -55.9490 H         1 UNK         0.0600 
    233 H233       -5.0321  -20.1087  -56.7491 H         1 UNK         0.0600 
    234 H234       -6.5185  -20.9402  -57.1709 H         1 UNK         0.0600 
    235 H235       -7.1139  -20.0582  -52.7127 H         1 UNK         0.3000 
    236 H236       -4.4270  -19.9138  -51.7027 H         1 UNK         0.0600 
    237 H237       -6.1568  -21.2766  -50.5869 H         1 UNK         0.0600 
    238 H238       -5.5724  -20.0415  -49.4833 H         1 UNK         0.0600 
    239 H239       -7.1302  -19.8410  -50.2701 H         1 UNK         0.0600 
    240 H240       -3.9259  -17.9011  -52.8520 H         1 UNK         0.3000 
    241 H241       -3.0811  -15.8819  -52.7484 H         1 UNK         0.0600 
    242 H242       -5.4065  -12.9670  -52.3841 H         1 UNK         0.3800 
    243 H243       -3.8696  -13.3204  -51.6536 H         1 UNK         0.3800 
    244 H244       -2.6800  -14.6794  -50.6248 H         1 UNK         0.0800 
    245 H245       -3.8851  -15.6352  -49.8087 H         1 UNK         0.0800 
    246 H246       -0.5250  -15.8357  -51.8357 H         1 UNK         0.0800 
    247 H247       -0.1858  -15.1765  -50.2499 H         1 UNK         0.0800 
@<TRIPOS>BOND
     1    1    2 1    
     2    1  127 1    
     3    1  128 1    
     4    1  129 1    
     5    2    3 2    
     6    2    4 am   BACKBONE|DICT|INTERRES
     7    4    5 1    
     8    4  130 1    
     9    5    6 1    
    10    5   65 1    
    11    5  131 1    
    12    6    7 1    
    13    6  132 1    
    14    6  133 1    
    15    7    8 1    
    16    8    9 1    
    17    8  134 1    
    18    8  135 1    
    19    9   10 ar   
    20    9   14 ar   
    21   10   11 ar   
    22   10  136 1    
    23   11   12 ar   
    24   11  126 1    
    25   12   13 ar   
    26   12  137 1    
    27   13   14 ar   
    28   13   15 1    
    29   14  138 1    
    30   15   16 1    
    31   15  139 1    
    32   15  140 1    
    33   16   17 1    
    34   17   18 1    
    35   17  141 1    
    36   17  142 1    
    37   18   19 1    
    38   18   67 1    
    39   18  143 1    
    40   19   20 am   BACKBONE|DICT|INTERRES
    41   19  144 1    
    42   20   21 2    
    43   20   22 1    
    44   22   23 1    
    45   22   24 1    
    46   22  145 1    
    47   23  146 1    
    48   23  147 1    
    49   23  148 1    
    50   24   25 am   BACKBONE|DICT|INTERRES
    51   24  149 1    
    52   25   26 2    
    53   25   27 1    
    54   27   28 1    
    55   27   29 1    
    56   27  150 1    
    57   28  151 1    
    58   28  152 1    
    59   28  153 1    
    60   29   30 am   BACKBONE|DICT|INTERRES
    61   29  154 1    
    62   30   31 2    
    63   30   32 1    
    64   32   33 1    
    65   32   34 1    
    66   32  155 1    
    67   33  156 1    
    68   33  157 1    
    69   33  158 1    
    70   34   35 am   BACKBONE|DICT|INTERRES
    71   34  159 1    
    72   35   36 2    
    73   35   37 1    
    74   37   38 1    
    75   37   39 1    
    76   37  160 1    
    77   38  161 1    
    78   38  162 1    
    79   38  163 1    
    80   39   40 am   BACKBONE|DICT|INTERRES
    81   39  164 1    
    82   40   41 2    
    83   40   42 1    
    84   42   43 1    
    85   42   44 1    
    86   42  165 1    
    87   43  166 1    
    88   43  167 1    
    89   43  168 1    
    90   44   45 am   BACKBONE|DICT|INTERRES
    91   44  169 1    
    92   45   46 2    
    93   45   47 1    
    94   47   48 1    
    95   47   49 1    
    96   47  170 1    
    97   48  171 1    
    98   48  172 1    
    99   48  173 1    
   100   49   50 am   BACKBONE|DICT|INTERRES
   101   49  174 1    
   102   50   51 2    
   103   50   52 1    
   104   52   53 1    
   105   52   54 1    
   106   52  175 1    
   107   53  176 1    
   108   53  177 1    
   109   53  178 1    
   110   54   55 am   BACKBONE|DICT|INTERRES
   111   54  179 1    
   112   55   56 2    
   113   55   57 1    
   114   57   58 1    
   115   57   59 1    
   116   57  180 1    
   117   58  181 1    
   118   58  182 1    
   119   58  183 1    
   120   59   60 am   BACKBONE|DICT|INTERRES
   121   59  184 1    
   122   60   61 2    
   123   60   62 1    
   124   62   63 1    
   125   62   64 1    
   126   62  185 1    
   127   63  186 1    
   128   63  187 1    
   129   63  188 1    
   130   64   65 am   BACKBONE|DICT|INTERRES
   131   64  189 1    
   132   65   66 2    
   133   67   68 2    
   134   67   69 am   BACKBONE|DICT|INTERRES
   135   69   70 1    
   136   69  190 1    
   137   70   71 1    
   138   70   72 1    
   139   70  191 1    
   140   71  192 1    
   141   71  193 1    
   142   71  194 1    
   143   72   73 2    
   144   72   74 am   BACKBONE|DICT|INTERRES
   145   74   75 1    
   146   74  195 1    
   147   75   76 1    
   148   75   77 1    
   149   75  196 1    
   150   76  197 1    
   151   76  198 1    
   152   76  199 1    
   153   77   78 2    
   154   77   79 am   BACKBONE|DICT|INTERRES
   155   79   80 1    
   156   79  200 1    
   157   80   81 1    
   158   80   82 1    
   159   80  201 1    
   160   81  202 1    
   161   81  203 1    
   162   81  204 1    
   163   82   83 2    
   164   82   84 am   BACKBONE|DICT|INTERRES
   165   84   85 1    
   166   84  205 1    
   167   85   86 1    
   168   85   87 1    
   169   85  206 1    
   170   86  207 1    
   171   86  208 1    
   172   86  209 1    
   173   87   88 2    
   174   87   89 am   BACKBONE|DICT|INTERRES
   175   89   90 1    
   176   89  210 1    
   177   90   91 1    
   178   90   92 1    
   179   90  211 1    
   180   91  212 1    
   181   91  213 1    
   182   91  214 1    
   183   92   93 2    
   184   92   94 am   BACKBONE|DICT|INTERRES
   185   94   95 1    
   186   94  215 1    
   187   95   96 1    
   188   95   97 1    
   189   95  216 1    
   190   96  217 1    
   191   96  218 1    
   192   96  219 1    
   193   97   98 2    
   194   97   99 am   BACKBONE|DICT|INTERRES
   195   99  100 1    
   196   99  220 1    
   197  100  101 1    
   198  100  102 1    
   199  100  221 1    
   200  101  222 1    
   201  101  223 1    
   202  101  224 1    
   203  102  103 2    
   204  102  104 am   BACKBONE|DICT|INTERRES
   205  104  105 1    
   206  104  225 1    
   207  105  106 1    
   208  105  107 1    
   209  105  226 1    
   210  106  227 1    
   211  106  228 1    
   212  106  229 1    
   213  107  108 2    
   214  107  109 am   BACKBONE|DICT|INTERRES
   215  109  110 1    
   216  109  230 1    
   217  110  111 1    
   218  110  112 1    
   219  110  231 1    
   220  111  232 1    
   221  111  233 1    
   222  111  234 1    
   223  112  113 2    
   224  112  114 am   BACKBONE|DICT|INTERRES
   225  114  115 1    
   226  114  235 1    
   227  115  116 1    
   228  115  117 1    
   229  115  236 1    
   230  116  237 1    
   231  116  238 1    
   232  116  239 1    
   233  117  118 2    
   234  117  119 am   BACKBONE|DICT|INTERRES
   235  119  120 1    
   236  119  240 1    
   237  120  121 1    
   238  120  124 1    
   239  120  241 1    
   240  121  122 am   BACKBONE|DICT|INTERRES
   241  121  123 2    
   242  122  242 1    
   243  122  243 1    
   244  124  125 1    
   245  124  244 1    
   246  124  245 1    
   247  125  126 1    
   248  126  246 1    
   249  126  247 1    
@<TRIPOS>SUBSTRUCTURE
     1 UNK         1 GROUP             0       ****    0 ROOT    
