@<TRIPOS>MOLECULE
3R540
247   249    1
SMALL
USER_CHARGES


@<TRIPOS>ATOM
      1 CA          1.8021   -9.0616  -47.5971 C.3       0 UNK        -0.1800 
      2 C           2.0333  -10.5585  -47.4557 C.2       0 UNK         0.5000 
      3 O           2.1716  -11.0550  -46.3383 O.2       0 UNK        -0.5000 
      4 N           2.0525  -11.2870  -48.5785 N.am      1 UNK        -0.5000 
      5 CA          2.2747  -12.7383  -48.6458 C.3       1 UNK         0.1400 
      6 C6          2.4749  -13.2198  -50.1051 C.3       23 UNK        -0.0398 
      7 S7          1.0881  -12.8198  -51.2342 S.3       23 UNK        -0.2404 
      8 C8          0.7249  -14.4304  -52.0045 C.3       23 UNK        -0.0205 
      9 C9         -0.0480  -15.3533  -51.0738 C.ar      23 UNK        -0.0193 
     10 C10        -1.4459  -15.3204  -51.0436 C.ar      23 UNK        -0.1150 
     11 C11        -2.1564  -16.1713  -50.1898 C.ar      23 UNK        -0.0193 
     12 C12        -1.4596  -17.0311  -49.3387 C.ar      23 UNK        -0.1150 
     13 C13        -0.0659  -17.0897  -49.3795 C.ar      23 UNK        -0.0193 
     14 C14         0.6332  -16.2587  -50.2568 C.ar      23 UNK        -0.1150 
     15 C15         0.6883  -18.0424  -48.4718 C.3       23 UNK        -0.0205 
     16 S16         0.6209  -19.7575  -49.0755 S.3       23 UNK        -0.2404 
     17 C17        -0.9181  -20.3767  -48.3102 C.3       23 UNK        -0.0398 
     18 CA         -0.7446  -21.8112  -47.7598 C.3       11 UNK         0.1400 
     19 N           0.2798  -21.9046  -46.7120 N.am      11 UNK        -0.5000 
     20 C           0.7897  -23.0592  -46.2622 C.2       10 UNK         0.5000 
     21 O           0.4637  -24.1617  -46.7004 O.2       10 UNK        -0.5000 
     22 CA          1.7900  -22.9787  -45.0958 C.3       10 UNK         0.1400 
     23 CB          3.1929  -22.5913  -45.5874 C.3       10 UNK        -0.1800 
     24 N           1.3503  -22.0531  -44.0519 N.am      10 UNK        -0.5000 
     25 C           0.2873  -22.2637  -43.2626 C.2       9 UNK         0.5000 
     26 O          -0.4161  -23.2719  -43.3216 O.2       9 UNK        -0.5000 
     27 CA         -0.0747  -21.1505  -42.2624 C.3       9 UNK         0.1400 
     28 CB          0.7829  -21.2668  -40.9937 C.3       9 UNK        -0.1800 
     29 N           0.0623  -19.8060  -42.8218 N.am      9 UNK        -0.5000 
     30 C          -0.6313  -19.3415  -43.8711 C.2       8 UNK         0.5000 
     31 O          -1.4908  -19.9872  -44.4680 O.2       8 UNK        -0.5000 
     32 CA         -0.2541  -17.9439  -44.3865 C.3       8 UNK         0.1400 
     33 CB         -0.8709  -16.8518  -43.5024 C.3       8 UNK        -0.1800 
     34 N           1.1922  -17.7442  -44.4822 N.am      8 UNK        -0.5000 
     35 C           2.0415  -18.5148  -45.1771 C.2       7 UNK         0.5000 
     36 O           1.6986  -19.5048  -45.8211 O.2       7 UNK        -0.5000 
     37 CA          3.5302  -18.1470  -45.0959 C.3       7 UNK         0.1400 
     38 CB          3.8526  -16.9267  -45.9715 C.3       7 UNK        -0.1800 
     39 N           3.9277  -17.8845  -43.7154 N.am      7 UNK        -0.5000 
     40 C           4.0868  -18.8365  -42.7860 C.2       6 UNK         0.5000 
     41 O           3.9770  -20.0422  -43.0119 O.2       6 UNK        -0.5000 
     42 CA          4.3897  -18.3536  -41.3557 C.3       6 UNK         0.1400 
     43 CB          5.8943  -18.1023  -41.1750 C.3       6 UNK        -0.1800 
     44 N           3.6489  -17.1422  -40.9965 N.am      6 UNK        -0.5000 
     45 C           2.3177  -17.0899  -40.8535 C.2       5 UNK         0.5000 
     46 O           1.5734  -18.0576  -41.0110 O.2       5 UNK        -0.5000 
     47 CA          1.7112  -15.7186  -40.5058 C.3       5 UNK         0.1400 
     48 CB          1.7830  -15.4678  -38.9921 C.3       5 UNK        -0.1800 
     49 N           2.3089  -14.5817  -41.2138 N.am      5 UNK        -0.5000 
     50 C           2.3827  -14.4489  -42.5450 C.2       4 UNK         0.5000 
     51 O           2.1010  -15.3434  -43.3420 O.2       4 UNK        -0.5000 
     52 CA          2.8120  -13.0720  -43.0818 C.3       4 UNK         0.1400 
     53 CB          3.9742  -13.2023  -44.0793 C.3       4 UNK        -0.1800 
     54 N           1.6938  -12.4016  -43.7437 N.am      4 UNK        -0.5000 
     55 C           0.5551  -12.0149  -43.1507 C.2       3 UNK         0.5000 
     56 O           0.3483  -12.1039  -41.9398 O.2       3 UNK        -0.5000 
     57 CA         -0.5392  -11.4282  -44.0576 C.3       3 UNK         0.1400 
     58 CB         -0.3627   -9.9086  -44.2052 C.3       3 UNK        -0.1800 
     59 N          -0.5458  -12.0474  -45.3840 N.am      3 UNK        -0.5000 
     60 C          -1.2400  -13.1487  -45.7054 C.2       2 UNK         0.5000 
     61 O          -1.9510  -13.7590  -44.9071 O.2       2 UNK        -0.5000 
     62 CA         -1.1715  -13.6340  -47.1679 C.3       2 UNK         0.1400 
     63 CB         -2.4676  -13.2604  -47.9046 C.3       2 UNK        -0.1800 
     64 N          -0.0429  -13.0627  -47.9009 N.am      2 UNK        -0.5000 
     65 C           1.2014  -13.5588  -47.8943 C.2       1 UNK         0.5000 
     66 O           1.5280  -14.5839  -47.2971 O.2       1 UNK        -0.5000 
     67 C          -2.0935  -22.3982  -47.2925 C.2       11 UNK         0.5000 
     68 O          -2.7612  -23.0822  -48.0723 O.2       11 UNK        -0.5000 
     69 N          -2.4541  -22.1694  -46.0211 N.am      12 UNK        -0.5000 
     70 CA         -3.6338  -22.7495  -45.3801 C.3       12 UNK         0.1400 
     71 CB         -3.8571  -22.1148  -44.0001 C.3       12 UNK        -0.1800 
     72 C          -3.5617  -24.2824  -45.2754 C.2       12 UNK         0.5000 
     73 O          -4.5568  -24.9549  -45.5459 O.2       12 UNK        -0.5000 
     74 N          -2.3788  -24.8052  -44.9228 N.am      13 UNK        -0.5000 
     75 CA         -2.0859  -26.2378  -44.8895 C.3       13 UNK         0.1400 
     76 CB         -0.7431  -26.4731  -44.1815 C.3       13 UNK        -0.1800 
     77 C          -2.0856  -26.8808  -46.2893 C.2       13 UNK         0.5000 
     78 O          -2.5076  -28.0306  -46.4201 O.2       13 UNK        -0.5000 
     79 N          -1.6255  -26.1337  -47.3047 N.am      14 UNK        -0.5000 
     80 CA         -1.6080  -26.5547  -48.7054 C.3       14 UNK         0.1400 
     81 CB         -0.7881  -25.5660  -49.5502 C.3       14 UNK        -0.1800 
     82 C          -3.0213  -26.7411  -49.2847 C.2       14 UNK         0.5000 
     83 O          -3.2901  -27.7941  -49.8647 O.2       14 UNK        -0.5000 
     84 N          -3.8985  -25.7442  -49.0908 N.am      15 UNK        -0.5000 
     85 CA         -5.3112  -25.8019  -49.4877 C.3       15 UNK         0.1400 
     86 CB         -5.4679  -25.8640  -51.0248 C.3       15 UNK        -0.1800 
     87 C          -6.1509  -24.6294  -48.9559 C.2       15 UNK         0.5000 
     88 O          -7.3666  -24.7865  -48.8433 O.2       15 UNK        -0.5000 
     89 N          -5.5240  -23.4657  -48.7120 N.am      16 UNK        -0.5000 
     90 CA         -6.1508  -22.1641  -48.4146 C.3       16 UNK         0.1400 
     91 CB         -7.0621  -22.2430  -47.1679 C.3       16 UNK        -0.1800 
     92 C          -6.9066  -21.5439  -49.6148 C.2       16 UNK         0.5000 
     93 O          -7.5846  -20.5290  -49.4464 O.2       16 UNK        -0.5000 
     94 N          -6.7989  -22.1662  -50.7945 N.am      17 UNK        -0.5000 
     95 CA         -7.4952  -21.7901  -52.0195 C.3       17 UNK         0.1400 
     96 CB         -7.5940  -23.0358  -52.9128 C.3       17 UNK        -0.1800 
     97 C          -6.7781  -20.6530  -52.7646 C.2       17 UNK         0.5000 
     98 O          -5.5551  -20.5224  -52.6643 O.2       17 UNK        -0.5000 
     99 N          -7.5559  -19.8999  -53.5571 N.am      18 UNK        -0.5000 
    100 CA        -7.1105  -18.7838  -54.4023 C.3       18 UNK         0.1400 
    101 CB        -8.3334  -18.1646  -55.0960 C.3       18 UNK        -0.1800 
    102 C         -6.0382  -19.1661  -55.4442 C.2       18 UNK         0.5000 
    103 O         -5.2403  -18.3152  -55.8359 O.2       18 UNK        -0.5000 
    104 N         -6.0245  -20.4418  -55.8377 N.am      19 UNK        -0.5000 
    105 CA        -4.9550  -21.1198  -56.5521 C.3       19 UNK         0.1400 
    106 CB        -5.0842  -20.8711  -58.0648 C.3       19 UNK        -0.1800 
    107 C         -5.0875  -22.6171  -56.2129 C.2       19 UNK         0.5000 
    108 O         -6.2081  -23.0698  -55.9731 O.2       19 UNK        -0.5000 
    109 N         -4.0089  -23.4093  -56.1860 N.am      20 UNK        -0.5000 
    110 CA        -2.6087  -23.0376  -56.4065 C.3       20 UNK         0.1400 
    111 CB        -1.8977  -24.2346  -57.0599 C.3       20 UNK        -0.1800 
    112 C         -1.8803  -22.6207  -55.1104 C.2       20 UNK         0.5000 
    113 O         -0.7038  -22.2665  -55.1852 O.2       20 UNK        -0.5000 
    114 N         -2.5610  -22.6961  -53.9542 N.am      21 UNK        -0.5000 
    115 CA        -2.0121  -22.3578  -52.6377 C.3       21 UNK         0.1400 
    116 CB        -2.9849  -22.7826  -51.5272 C.3       21 UNK        -0.1800 
    117 C         -1.6186  -20.8751  -52.5207 C.2       21 UNK         0.5000 
    118 O         -0.4365  -20.5823  -52.3408 O.2       21 UNK        -0.5000 
    119 N         -2.5983  -19.9723  -52.6592 N.am      22 UNK        -0.5000 
    120 CA        -2.3464  -18.5289  -52.7858 C.3       22 UNK         0.1400 
    121 C         -1.6538  -18.1715  -54.1315 C.2       22 UNK         0.5000 
    122 N         -0.7818  -17.1723  -54.1341 N.am      22 UNK        -0.7600 
    123 O         -1.9217  -18.7632  -55.1748 O.2       22 UNK        -0.5000 
    124 C124       -3.6356  -17.6891  -52.6039 C.3       23 UNK        -0.0398 
    125 S125       -4.3069  -17.7602  -50.9079 S.3       23 UNK        -0.2404 
    126 C126       -3.6767  -16.1982  -50.2059 C.3       23 UNK        -0.0205 
    127 H127        0.8736   -8.7772  -47.1022 H         1 UNK         0.0600 
    128 H128        1.7384   -8.7584  -48.6424 H         1 UNK         0.0600 
    129 H129        2.6200   -8.5113  -47.1323 H         1 UNK         0.0600 
    130 H130        1.9128  -10.8306  -49.4692 H         1 UNK         0.3000 
    131 H131        3.2135  -12.9273  -48.1201 H         1 UNK         0.0600 
    132 H132        3.3691  -12.7478  -50.5142 H         1 UNK         0.0800 
    133 H133        2.6892  -14.2876  -50.1241 H         1 UNK         0.0800 
    134 H134        1.6538  -14.9015  -52.3300 H         1 UNK         0.0800 
    135 H135        0.1431  -14.2552  -52.9107 H         1 UNK         0.0800 
    136 H136       -1.9794  -14.6397  -51.6921 H         1 UNK         0.1150 
    137 H137       -2.0078  -17.6806  -48.6719 H         1 UNK         0.1150 
    138 H138        1.7114  -16.3127  -50.2919 H         1 UNK         0.1150 
    139 H139        1.7340  -17.7427  -48.3990 H         1 UNK         0.0800 
    140 H140        0.2861  -17.9719  -47.4639 H         1 UNK         0.0800 
    141 H141       -1.6995  -20.3453  -49.0721 H         1 UNK         0.0800 
    142 H142       -1.2364  -19.7066  -47.5103 H         1 UNK         0.0800 
    143 H143       -0.4093  -22.4358  -48.5906 H         1 UNK         0.0600 
    144 H144        0.6369  -21.0302  -46.3345 H         1 UNK         0.3000 
    145 H145        1.8579  -23.9736  -44.6506 H         1 UNK         0.0600 
    146 H146        3.9059  -22.5647  -44.7632 H         1 UNK         0.0600 
    147 H147        3.5617  -23.3153  -46.3148 H         1 UNK         0.0600 
    148 H148        3.2029  -21.6136  -46.0683 H         1 UNK         0.0600 
    149 H149        1.8592  -21.1831  -43.9693 H         1 UNK         0.3000 
    150 H150       -1.1204  -21.2866  -41.9799 H         1 UNK         0.0600 
    151 H151        0.7021  -22.2623  -40.5553 H         1 UNK         0.0600 
    152 H152        0.4632  -20.5512  -40.2360 H         1 UNK         0.0600 
    153 H153        1.8374  -21.0823  -41.2034 H         1 UNK         0.0600 
    154 H154        0.7283  -19.1901  -42.3636 H         1 UNK         0.3000 
    155 H155       -0.6693  -17.8359  -45.3891 H         1 UNK         0.0600 
    156 H156       -1.9593  -16.9206  -43.4994 H         1 UNK         0.0600 
    157 H157       -0.6079  -15.8577  -43.8632 H         1 UNK         0.0600 
    158 H158       -0.5338  -16.9315  -42.4697 H         1 UNK         0.0600 
    159 H159        1.5642  -16.9252  -44.0038 H         1 UNK         0.3000 
    160 H160        4.1092  -18.9939  -45.4707 H         1 UNK         0.0600 
    161 H161        3.2750  -16.0511  -45.6753 H         1 UNK         0.0600 
    162 H162        3.6235  -17.1273  -47.0182 H         1 UNK         0.0600 
    163 H163        4.9094  -16.6665  -45.9145 H         1 UNK         0.0600 
    164 H164        3.9622  -16.9167  -43.4297 H         1 UNK         0.3000 
    165 H165        4.0917  -19.1486  -40.6685 H         1 UNK         0.0600 
    166 H166        6.1287  -17.8378  -40.1437 H         1 UNK         0.0600 
    167 H167        6.4708  -18.9956  -41.4193 H         1 UNK         0.0600 
    168 H168        6.2493  -17.2962  -41.8182 H         1 UNK         0.0600 
    169 H169        4.1840  -16.2978  -40.8569 H         1 UNK         0.3000 
    170 H170        0.6574  -15.7501  -40.7879 H         1 UNK         0.0600 
    171 H171        1.3275  -16.2894  -38.4374 H         1 UNK         0.0600 
    172 H172        2.8133  -15.3704  -38.6479 H         1 UNK         0.0600 
    173 H173        1.2491  -14.5579  -38.7171 H         1 UNK         0.0600 
    174 H174        2.5469  -13.7845  -40.6416 H         1 UNK         0.3000 
    175 H175        3.1428  -12.4486  -42.2488 H         1 UNK         0.0600 
    176 H176        3.6770  -13.7499  -44.9746 H         1 UNK         0.0600 
    177 H177        4.3310  -12.2219  -44.3957 H         1 UNK         0.0600 
    178 H178        4.8184  -13.7295  -43.6334 H         1 UNK         0.0600 
    179 H179        1.7962  -12.2346  -44.7387 H         1 UNK         0.3000 
    180 H180       -1.5022  -11.6037  -43.5731 H         1 UNK         0.0600 
    181 H181        0.6026   -9.6513  -44.6411 H         1 UNK         0.0600 
    182 H182       -0.4225   -9.4156  -43.2341 H         1 UNK         0.0600 
    183 H183       -1.1417   -9.4796  -44.8356 H         1 UNK         0.0600 
    184 H184        0.0699  -11.6409  -46.0747 H         1 UNK         0.3000 
    185 H185       -1.0819  -14.7227  -47.1597 H         1 UNK         0.0600 
    186 H186       -3.3305  -13.7446  -47.4457 H         1 UNK         0.0600 
    187 H187       -2.6454  -12.1845  -47.8867 H         1 UNK         0.0600 
    188 H188       -2.4364  -13.5738  -48.9472 H         1 UNK         0.0600 
    189 H189       -0.2214  -12.2242  -48.4341 H         1 UNK         0.3000 
    190 H190       -1.8921  -21.5437  -45.4489 H         1 UNK         0.3000 
    191 H191       -4.4885  -22.4985  -46.0039 H         1 UNK         0.0600 
    192 H192       -4.0095  -21.0386  -44.0820 H         1 UNK         0.0600 
    193 H193       -4.7418  -22.5314  -43.5172 H         1 UNK         0.0600 
    194 H194       -3.0094  -22.2844  -43.3364 H         1 UNK         0.0600 
    195 H195       -1.6246  -24.1810  -44.6542 H         1 UNK         0.3000 
    196 H196       -2.8666  -26.7259  -44.3023 H         1 UNK         0.0600 
    197 H197       -0.5108  -27.5373  -44.1271 H         1 UNK         0.0600 
    198 H198       -0.7647  -26.0925  -43.1602 H         1 UNK         0.0600 
    199 H199        0.0794  -25.9833  -44.7030 H         1 UNK         0.0600 
    200 H200       -1.2140  -25.2308  -47.0940 H         1 UNK         0.3000 
    201 H201       -1.1030  -27.5220  -48.7488 H         1 UNK         0.0600 
    202 H202        0.2316  -25.4777  -49.1753 H         1 UNK         0.0600 
    203 H203       -1.2286  -24.5704  -49.5580 H         1 UNK         0.0600 
    204 H204       -0.7253  -25.9004  -50.5863 H         1 UNK         0.0600 
    205 H205       -3.5958  -24.9361  -48.5586 H         1 UNK         0.3000 
    206 H206       -5.7366  -26.7114  -49.0584 H         1 UNK         0.0600 
    207 H207       -5.0251  -26.7635  -51.4500 H         1 UNK         0.0600 
    208 H208       -6.5209  -25.8746  -51.3100 H         1 UNK         0.0600 
    209 H209       -5.0117  -25.0050  -51.5140 H         1 UNK         0.0600 
    210 H210       -4.5128  -23.4241  -48.7919 H         1 UNK         0.3000 
    211 H211       -5.3274  -21.4862  -48.1854 H         1 UNK         0.0600 
    212 H212       -8.0414  -22.6568  -47.4111 H         1 UNK         0.0600 
    213 H213       -7.2288  -21.2506  -46.7480 H         1 UNK         0.0600 
    214 H214       -6.6375  -22.8660  -46.3824 H         1 UNK         0.0600 
    215 H215       -6.1932  -22.9686  -50.8503 H         1 UNK         0.3000 
    216 H216       -8.5056  -21.4626  -51.7649 H         1 UNK         0.0600 
    217 H217       -8.1352  -22.8188  -53.8345 H         1 UNK         0.0600 
    218 H218       -8.1269  -23.8419  -52.4080 H         1 UNK         0.0600 
    219 H219       -6.6082  -23.4105  -53.1920 H         1 UNK         0.0600 
    220 H220       -8.5452  -20.1005  -53.5863 H         1 UNK         0.3000 
    221 H221       -6.6781  -18.0290  -53.7436 H         1 UNK         0.0600 
    222 H222       -8.8337  -18.8835  -55.7461 H         1 UNK         0.0600 
    223 H223       -9.0610  -17.8045  -54.3684 H         1 UNK         0.0600 
    224 H224       -8.0433  -17.3120  -55.7116 H         1 UNK         0.0600 
    225 H225       -6.7214  -21.0762  -55.4672 H         1 UNK         0.3000 
    226 H226       -4.0032  -20.7327  -56.1849 H         1 UNK         0.0600 
    227 H227       -4.9953  -19.8104  -58.3001 H         1 UNK         0.0600 
    228 H228       -4.3026  -21.3927  -58.6177 H         1 UNK         0.0600 
    229 H229       -6.0448  -21.2189  -58.4468 H         1 UNK         0.0600 
    230 H230       -4.1568  -24.3849  -55.9728 H         1 UNK         0.3000 
    231 H231       -2.5423  -22.2026  -57.1050 H         1 UNK         0.0600 
    232 H232       -1.8944  -25.1076  -56.4060 H         1 UNK         0.0600 
    233 H233       -0.8593  -23.9967  -57.2945 H         1 UNK         0.0600 
    234 H234       -2.3810  -24.5176  -57.9953 H         1 UNK         0.0600 
    235 H235       -3.5210  -23.0044  -53.9817 H         1 UNK         0.3000 
    236 H236       -1.0973  -22.9395  -52.5038 H         1 UNK         0.0600 
    237 H237       -3.0142  -23.8673  -51.4342 H         1 UNK         0.0600 
    238 H238       -2.6676  -22.3857  -50.5636 H         1 UNK         0.0600 
    239 H239       -3.9977  -22.4271  -51.7097 H         1 UNK         0.0600 
    240 H240       -3.5605  -20.2745  -52.7762 H         1 UNK         0.3000 
    241 H241       -1.6529  -18.2575  -51.9881 H         1 UNK         0.0600 
    242 H242       -0.3321  -16.9200  -55.0003 H         1 UNK         0.3800 
    243 H243       -0.5392  -16.6883  -53.2848 H         1 UNK         0.3800 
    244 H244       -3.4624  -16.6434  -52.8638 H         1 UNK         0.0800 
    245 H245       -4.4031  -18.0395  -53.2895 H         1 UNK         0.0800 
    246 H246       -4.0774  -15.3560  -50.7720 H         1 UNK         0.0800 
    247 H247       -4.0494  -16.0891  -49.1865 H         1 UNK         0.0800 
@<TRIPOS>BOND
     1    1    2 1    
     2    1  127 1    
     3    1  128 1    
     4    1  129 1    
     5    2    3 2    
     6    2    4 am   BACKBONE|DICT|INTERRES
     7    4    5 1    
     8    4  130 1    
     9    5    6 1    
    10    5   65 1    
    11    5  131 1    
    12    6    7 1    
    13    6  132 1    
    14    6  133 1    
    15    7    8 1    
    16    8    9 1    
    17    8  134 1    
    18    8  135 1    
    19    9   10 ar   
    20    9   14 ar   
    21   10   11 ar   
    22   10  136 1    
    23   11   12 ar   
    24   11  126 1    
    25   12   13 ar   
    26   12  137 1    
    27   13   14 ar   
    28   13   15 1    
    29   14  138 1    
    30   15   16 1    
    31   15  139 1    
    32   15  140 1    
    33   16   17 1    
    34   17   18 1    
    35   17  141 1    
    36   17  142 1    
    37   18   19 1    
    38   18   67 1    
    39   18  143 1    
    40   19   20 am   BACKBONE|DICT|INTERRES
    41   19  144 1    
    42   20   21 2    
    43   20   22 1    
    44   22   23 1    
    45   22   24 1    
    46   22  145 1    
    47   23  146 1    
    48   23  147 1    
    49   23  148 1    
    50   24   25 am   BACKBONE|DICT|INTERRES
    51   24  149 1    
    52   25   26 2    
    53   25   27 1    
    54   27   28 1    
    55   27   29 1    
    56   27  150 1    
    57   28  151 1    
    58   28  152 1    
    59   28  153 1    
    60   29   30 am   BACKBONE|DICT|INTERRES
    61   29  154 1    
    62   30   31 2    
    63   30   32 1    
    64   32   33 1    
    65   32   34 1    
    66   32  155 1    
    67   33  156 1    
    68   33  157 1    
    69   33  158 1    
    70   34   35 am   BACKBONE|DICT|INTERRES
    71   34  159 1    
    72   35   36 2    
    73   35   37 1    
    74   37   38 1    
    75   37   39 1    
    76   37  160 1    
    77   38  161 1    
    78   38  162 1    
    79   38  163 1    
    80   39   40 am   BACKBONE|DICT|INTERRES
    81   39  164 1    
    82   40   41 2    
    83   40   42 1    
    84   42   43 1    
    85   42   44 1    
    86   42  165 1    
    87   43  166 1    
    88   43  167 1    
    89   43  168 1    
    90   44   45 am   BACKBONE|DICT|INTERRES
    91   44  169 1    
    92   45   46 2    
    93   45   47 1    
    94   47   48 1    
    95   47   49 1    
    96   47  170 1    
    97   48  171 1    
    98   48  172 1    
    99   48  173 1    
   100   49   50 am   BACKBONE|DICT|INTERRES
   101   49  174 1    
   102   50   51 2    
   103   50   52 1    
   104   52   53 1    
   105   52   54 1    
   106   52  175 1    
   107   53  176 1    
   108   53  177 1    
   109   53  178 1    
   110   54   55 am   BACKBONE|DICT|INTERRES
   111   54  179 1    
   112   55   56 2    
   113   55   57 1    
   114   57   58 1    
   115   57   59 1    
   116   57  180 1    
   117   58  181 1    
   118   58  182 1    
   119   58  183 1    
   120   59   60 am   BACKBONE|DICT|INTERRES
   121   59  184 1    
   122   60   61 2    
   123   60   62 1    
   124   62   63 1    
   125   62   64 1    
   126   62  185 1    
   127   63  186 1    
   128   63  187 1    
   129   63  188 1    
   130   64   65 am   BACKBONE|DICT|INTERRES
   131   64  189 1    
   132   65   66 2    
   133   67   68 2    
   134   67   69 am   BACKBONE|DICT|INTERRES
   135   69   70 1    
   136   69  190 1    
   137   70   71 1    
   138   70   72 1    
   139   70  191 1    
   140   71  192 1    
   141   71  193 1    
   142   71  194 1    
   143   72   73 2    
   144   72   74 am   BACKBONE|DICT|INTERRES
   145   74   75 1    
   146   74  195 1    
   147   75   76 1    
   148   75   77 1    
   149   75  196 1    
   150   76  197 1    
   151   76  198 1    
   152   76  199 1    
   153   77   78 2    
   154   77   79 am   BACKBONE|DICT|INTERRES
   155   79   80 1    
   156   79  200 1    
   157   80   81 1    
   158   80   82 1    
   159   80  201 1    
   160   81  202 1    
   161   81  203 1    
   162   81  204 1    
   163   82   83 2    
   164   82   84 am   BACKBONE|DICT|INTERRES
   165   84   85 1    
   166   84  205 1    
   167   85   86 1    
   168   85   87 1    
   169   85  206 1    
   170   86  207 1    
   171   86  208 1    
   172   86  209 1    
   173   87   88 2    
   174   87   89 am   BACKBONE|DICT|INTERRES
   175   89   90 1    
   176   89  210 1    
   177   90   91 1    
   178   90   92 1    
   179   90  211 1    
   180   91  212 1    
   181   91  213 1    
   182   91  214 1    
   183   92   93 2    
   184   92   94 am   BACKBONE|DICT|INTERRES
   185   94   95 1    
   186   94  215 1    
   187   95   96 1    
   188   95   97 1    
   189   95  216 1    
   190   96  217 1    
   191   96  218 1    
   192   96  219 1    
   193   97   98 2    
   194   97   99 am   BACKBONE|DICT|INTERRES
   195   99  100 1    
   196   99  220 1    
   197  100  101 1    
   198  100  102 1    
   199  100  221 1    
   200  101  222 1    
   201  101  223 1    
   202  101  224 1    
   203  102  103 2    
   204  102  104 am   BACKBONE|DICT|INTERRES
   205  104  105 1    
   206  104  225 1    
   207  105  106 1    
   208  105  107 1    
   209  105  226 1    
   210  106  227 1    
   211  106  228 1    
   212  106  229 1    
   213  107  108 2    
   214  107  109 am   BACKBONE|DICT|INTERRES
   215  109  110 1    
   216  109  230 1    
   217  110  111 1    
   218  110  112 1    
   219  110  231 1    
   220  111  232 1    
   221  111  233 1    
   222  111  234 1    
   223  112  113 2    
   224  112  114 am   BACKBONE|DICT|INTERRES
   225  114  115 1    
   226  114  235 1    
   227  115  116 1    
   228  115  117 1    
   229  115  236 1    
   230  116  237 1    
   231  116  238 1    
   232  116  239 1    
   233  117  118 2    
   234  117  119 am   BACKBONE|DICT|INTERRES
   235  119  120 1    
   236  119  240 1    
   237  120  121 1    
   238  120  124 1    
   239  120  241 1    
   240  121  122 am   BACKBONE|DICT|INTERRES
   241  121  123 2    
   242  122  242 1    
   243  122  243 1    
   244  124  125 1    
   245  124  244 1    
   246  124  245 1    
   247  125  126 1    
   248  126  246 1    
   249  126  247 1    
@<TRIPOS>SUBSTRUCTURE
     1 UNK         1 GROUP             0       ****    0 ROOT    
