@<TRIPOS>MOLECULE
3R540
247   249    1
SMALL
USER_CHARGES


@<TRIPOS>ATOM
      1 CA         -1.8841  -19.1636  -43.3553 C.3       0 UNK        -0.1800 
      2 C          -2.1950  -18.4418  -44.6559 C.2       0 UNK         0.5000 
      3 O          -1.7080  -18.8576  -45.7023 O.2       0 UNK        -0.5000 
      4 N          -2.9838  -17.3622  -44.5769 N.am      1 UNK        -0.5000 
      5 CA         -3.5029  -16.4753  -45.6371 C.3       1 UNK         0.1400 
      6 C6         -4.7004  -17.0558  -46.4421 C.3       23 UNK        -0.0398 
      7 S7         -4.3372  -18.3677  -47.6637 S.3       23 UNK        -0.2404 
      8 C8         -4.4192  -17.4909  -49.2664 C.3       23 UNK        -0.0205 
      9 C9         -3.0441  -17.3653  -49.9061 C.ar      23 UNK        -0.0193 
     10 C10        -2.5022  -16.1176  -50.2199 C.ar      23 UNK        -0.1150 
     11 C11        -1.2198  -16.0153  -50.7721 C.ar      23 UNK        -0.0193 
     12 C12        -0.4637  -17.1762  -50.9766 C.ar      23 UNK        -0.1150 
     13 C13        -0.9996  -18.4306  -50.6689 C.ar      23 UNK        -0.0193 
     14 C14        -2.3016  -18.5134  -50.1759 C.ar      23 UNK        -0.1150 
     15 C15        -0.1877  -19.7045  -50.8543 C.3       23 UNK        -0.0205 
     16 S16         0.9049  -20.0684  -49.4358 S.3       23 UNK        -0.2404 
     17 C17        -0.2600  -20.3496  -48.0561 C.3       23 UNK        -0.0398 
     18 CA         -0.3967  -21.8404  -47.6402 C.3       11 UNK         0.1400 
     19 N           0.4063  -22.1426  -46.4492 N.am      11 UNK        -0.5000 
     20 C           0.4685  -23.3049  -45.7814 C.2       10 UNK         0.5000 
     21 O          -0.1948  -24.2982  -46.0761 O.2       10 UNK        -0.5000 
     22 CA          1.4461  -23.3865  -44.5905 C.3       10 UNK         0.1400 
     23 CB          2.4684  -24.5145  -44.8065 C.3       10 UNK        -0.1800 
     24 N           2.1741  -22.1344  -44.3644 N.am      10 UNK        -0.5000 
     25 C           1.7639  -21.1403  -43.5678 C.2       9 UNK         0.5000 
     26 O           0.7217  -21.1692  -42.9115 O.2       9 UNK        -0.5000 
     27 CA          2.6532  -19.8824  -43.5651 C.3       9 UNK         0.1400 
     28 CB          2.2019  -18.9183  -44.6721 C.3       9 UNK        -0.1800 
     29 N           2.6696  -19.1653  -42.2889 N.am      9 UNK        -0.5000 
     30 C           3.1312  -19.6638  -41.1341 C.2       8 UNK         0.5000 
     31 O           3.5570  -20.8141  -41.0152 O.2       8 UNK        -0.5000 
     32 CA          3.1713  -18.7344  -39.9075 C.3       8 UNK         0.1400 
     33 CB          4.5840  -18.1536  -39.7270 C.3       8 UNK        -0.1800 
     34 N           2.2143  -17.6239  -39.9634 N.am      8 UNK        -0.5000 
     35 C           1.4080  -17.2756  -38.9482 C.2       7 UNK         0.5000 
     36 O           1.3061  -17.9266  -37.9070 O.2       7 UNK        -0.5000 
     37 CA          0.5990  -15.9668  -39.0758 C.3       7 UNK         0.1400 
     38 CB          1.2563  -14.8523  -38.2461 C.3       7 UNK        -0.1800 
     39 N           0.4534  -15.4952  -40.4508 N.am      7 UNK        -0.5000 
     40 C          -0.3767  -16.0287  -41.3542 C.2       6 UNK         0.5000 
     41 O          -1.1744  -16.9284  -41.0941 O.2       6 UNK        -0.5000 
     42 CA         -0.3061  -15.4769  -42.7935 C.3       6 UNK         0.1400 
     43 CB         -1.5085  -14.5600  -43.0591 C.3       6 UNK        -0.1800 
     44 N           0.9294  -14.7627  -43.1427 N.am      6 UNK        -0.5000 
     45 C           2.1721  -15.2665  -43.0749 C.2       5 UNK         0.5000 
     46 O           2.4165  -16.3805  -42.6113 O.2       5 UNK        -0.5000 
     47 CA          3.3412  -14.4025  -43.5831 C.3       5 UNK         0.1400 
     48 CB          4.1262  -15.1385  -44.6813 C.3       5 UNK        -0.1800 
     49 N           2.9047  -13.1033  -44.0963 N.am      5 UNK        -0.5000 
     50 C           2.8412  -11.9784  -43.3700 C.2       4 UNK         0.5000 
     51 O           3.1522  -11.9205  -42.1799 O.2       4 UNK        -0.5000 
     52 CA          2.3399  -10.7020  -44.0776 C.3       4 UNK         0.1400 
     53 CB          3.5270   -9.8259  -44.5064 C.3       4 UNK        -0.1800 
     54 N           1.4981  -10.9628  -45.2472 N.am      4 UNK        -0.5000 
     55 C           0.2784  -11.5142  -45.2049 C.2       3 UNK         0.5000 
     56 O          -0.2748  -11.8461  -44.1569 O.2       3 UNK        -0.5000 
     57 CA         -0.4352  -11.7754  -46.5488 C.3       3 UNK         0.1400 
     58 CB          0.2287  -11.0832  -47.7603 C.3       3 UNK        -0.1800 
     59 N          -0.5918  -13.2079  -46.8182 N.am      3 UNK        -0.5000 
     60 C           0.3657  -14.1438  -46.8436 C.2       2 UNK         0.5000 
     61 O           1.5476  -13.9066  -46.5869 O.2       2 UNK        -0.5000 
     62 CA         -0.0675  -15.5752  -47.2355 C.3       2 UNK         0.1400 
     63 CB          1.0980  -16.5739  -47.1712 C.3       2 UNK        -0.1800 
     64 N          -1.1860  -16.1149  -46.4576 N.am      2 UNK        -0.5000 
     65 C          -2.4699  -15.7426  -46.5275 C.2       1 UNK         0.5000 
     66 O          -2.8581  -14.8062  -47.2280 O.2       1 UNK        -0.5000 
     67 C          -1.8738  -22.2616  -47.4812 C.2       11 UNK         0.5000 
     68 O          -2.3372  -23.1112  -48.2427 O.2       11 UNK        -0.5000 
     69 N          -2.5745  -21.7077  -46.4792 N.am      12 UNK        -0.5000 
     70 CA         -3.9811  -22.0166  -46.1849 C.3       12 UNK         0.1400 
     71 CB         -4.4914  -21.1470  -45.0272 C.3       12 UNK        -0.1800 
     72 C          -4.2434  -23.5011  -45.8696 C.2       12 UNK         0.5000 
     73 O          -5.2490  -24.0459  -46.3259 O.2       12 UNK        -0.5000 
     74 N          -3.3199  -24.1358  -45.1331 N.am      13 UNK        -0.5000 
     75 CA         -3.3710  -25.5575  -44.7759 C.3       13 UNK         0.1400 
     76 CB         -2.2959  -25.8597  -43.7207 C.3       13 UNK        -0.1800 
     77 C          -3.2246  -26.4902  -45.9945 C.2       13 UNK         0.5000 
     78 O          -3.7862  -27.5855  -45.9949 O.2       13 UNK        -0.5000 
     79 N          -2.5204  -26.0150  -47.0284 N.am      14 UNK        -0.5000 
     80 CA         -2.3661  -26.6548  -48.3330 C.3       14 UNK         0.1400 
     81 CB         -0.9681  -26.3094  -48.8768 C.3       14 UNK        -0.1800 
     82 C          -3.4858  -26.2603  -49.3235 C.2       14 UNK         0.5000 
     83 O          -3.2814  -26.3654  -50.5330 O.2       14 UNK        -0.5000 
     84 N          -4.6378  -25.7948  -48.8134 N.am      15 UNK        -0.5000 
     85 CA         -5.8202  -25.3377  -49.5553 C.3       15 UNK         0.1400 
     86 CB         -6.4682  -26.5001  -50.3367 C.3       15 UNK        -0.1800 
     87 C          -5.5057  -24.1150  -50.4387 C.2       15 UNK         0.5000 
     88 O          -5.8057  -24.1091  -51.6338 O.2       15 UNK        -0.5000 
     89 N          -4.8469  -23.1220  -49.8265 N.am      16 UNK        -0.5000 
     90 CA         -4.2798  -21.9205  -50.4470 C.3       16 UNK         0.1400 
     91 CB         -5.3857  -20.9871  -50.9805 C.3       16 UNK        -0.1800 
     92 C          -3.2055  -22.2692  -51.4988 C.2       16 UNK         0.5000 
     93 O          -3.1793  -21.6715  -52.5739 O.2       16 UNK        -0.5000 
     94 N          -2.3666  -23.2629  -51.1671 N.am      17 UNK        -0.5000 
     95 CA         -1.3741  -23.9284  -52.0204 C.3       17 UNK         0.1400 
     96 CB         -0.1573  -23.0150  -52.2607 C.3       17 UNK        -0.1800 
     97 C          -1.9962  -24.4780  -53.3218 C.2       17 UNK         0.5000 
     98 O          -1.5058  -24.1959  -54.4157 O.2       17 UNK        -0.5000 
     99 N          -3.0922  -25.2330  -53.1598 N.am      18 UNK        -0.5000 
    100 CA        -3.9719  -25.7647  -54.2046 C.3       18 UNK         0.1400 
    101 CB        -3.2500  -26.8526  -55.0269 C.3       18 UNK        -0.1800 
    102 C         -4.5883  -24.6461  -55.0728 C.2       18 UNK         0.5000 
    103 O         -4.5266  -24.7069  -56.3025 O.2       18 UNK        -0.5000 
    104 N         -5.1679  -23.6436  -54.3958 N.am      19 UNK        -0.5000 
    105 CA        -5.8086  -22.4448  -54.9455 C.3       19 UNK         0.1400 
    106 CB        -7.1269  -22.8167  -55.6554 C.3       19 UNK        -0.1800 
    107 C         -4.8638  -21.5951  -55.8230 C.2       19 UNK         0.5000 
    108 O         -5.2271  -21.2109  -56.9368 O.2       19 UNK        -0.5000 
    109 N         -3.6611  -21.3157  -55.3031 N.am      20 UNK        -0.5000 
    110 CA        -2.6440  -20.4937  -55.9596 C.3       20 UNK         0.1400 
    111 CB        -1.2903  -20.6895  -55.2608 C.3       20 UNK        -0.1800 
    112 C         -3.0072  -18.9998  -55.9776 C.2       20 UNK         0.5000 
    113 O         -2.6538  -18.3104  -56.9349 O.2       20 UNK        -0.5000 
    114 N         -3.6810  -18.5278  -54.9149 N.am      21 UNK        -0.5000 
    115 CA        -4.1521  -17.1501  -54.7059 C.3       21 UNK         0.1400 
    116 CB        -5.3695  -16.8689  -55.6100 C.3       21 UNK        -0.1800 
    117 C         -3.0295  -16.0984  -54.8610 C.2       21 UNK         0.5000 
    118 O         -3.1996  -15.0981  -55.5606 O.2       21 UNK        -0.5000 
    119 N         -1.8846  -16.3897  -54.2318 N.am      22 UNK        -0.5000 
    120 CA        -0.6120  -15.6495  -54.3090 C.3       22 UNK         0.1400 
    121 C          0.1719  -15.8229  -55.6466 C.2       22 UNK         0.5000 
    122 N         -0.2784  -16.6252  -56.6036 N.am      22 UNK        -0.7600 
    123 O          1.2396  -15.2388  -55.8111 O.2       22 UNK        -0.5000 
    124 C124       -0.7036  -14.1487  -53.9015 C.3       23 UNK        -0.0398 
    125 S125       -1.6204  -13.7811  -52.3652 S.3       23 UNK        -0.2404 
    126 C126       -0.6452  -14.6414  -51.0904 C.3       23 UNK        -0.0205 
    127 H127       -1.9015  -20.2426  -43.5041 H         1 UNK         0.0600 
    128 H128       -2.6019  -18.9165  -42.5731 H         1 UNK         0.0600 
    129 H129       -0.8880  -18.8920  -43.0068 H         1 UNK         0.0600 
    130 H130       -3.3120  -17.1124  -43.6546 H         1 UNK         0.3000 
    131 H131       -3.9331  -15.6585  -45.0554 H         1 UNK         0.0600 
    132 H132       -5.4238  -17.4715  -45.7398 H         1 UNK         0.0800 
    133 H133       -5.2352  -16.2447  -46.9378 H         1 UNK         0.0800 
    134 H134       -5.0686  -18.0518  -49.9388 H         1 UNK         0.0800 
    135 H135       -4.8808  -16.5101  -49.1485 H         1 UNK         0.0800 
    136 H136       -3.0713  -15.2198  -50.0234 H         1 UNK         0.1150 
    137 H137        0.5435  -17.1070  -51.3625 H         1 UNK         0.1150 
    138 H138       -2.7247  -19.4766  -49.9451 H         1 UNK         0.1150 
    139 H139       -0.8557  -20.5498  -51.0124 H         1 UNK         0.0800 
    140 H140        0.4190  -19.6231  -51.7572 H         1 UNK         0.0800 
    141 H141       -1.2219  -19.9015  -48.2904 H         1 UNK         0.0800 
    142 H142        0.1067  -19.7595  -47.2173 H         1 UNK         0.0800 
    143 H143        0.0033  -22.4649  -48.4419 H         1 UNK         0.0600 
    144 H144        0.9961  -21.3957  -46.1184 H         1 UNK         0.3000 
    145 H145        0.8554  -23.6322  -43.7054 H         1 UNK         0.0600 
    146 H146        1.9711  -25.4779  -44.9277 H         1 UNK         0.0600 
    147 H147        3.0748  -24.3440  -45.6969 H         1 UNK         0.0600 
    148 H148        3.1411  -24.6051  -43.9535 H         1 UNK         0.0600 
    149 H149        3.0422  -22.0305  -44.8710 H         1 UNK         0.3000 
    150 H150        3.6799  -20.1887  -43.7762 H         1 UNK         0.0600 
    151 H151        2.8819  -18.0704  -44.7505 H         1 UNK         0.0600 
    152 H152        1.2000  -18.5308  -44.4827 H         1 UNK         0.0600 
    153 H153        2.1883  -19.4069  -45.6468 H         1 UNK         0.0600 
    154 H154        2.3960  -18.1883  -42.3296 H         1 UNK         0.3000 
    155 H155        2.9598  -19.3722  -39.0469 H         1 UNK         0.0600 
    156 H156        4.8548  -17.4970  -40.5550 H         1 UNK         0.0600 
    157 H157        5.3322  -18.9457  -39.6756 H         1 UNK         0.0600 
    158 H158        4.6579  -17.5778  -38.8044 H         1 UNK         0.0600 
    159 H159        2.2302  -17.0508  -40.8010 H         1 UNK         0.3000 
    160 H160       -0.3952  -16.1545  -38.6647 H         1 UNK         0.0600 
    161 H161        1.3539  -15.1477  -37.2006 H         1 UNK         0.0600 
    162 H162        0.6610  -13.9393  -38.2694 H         1 UNK         0.0600 
    163 H163        2.2549  -14.6128  -38.6140 H         1 UNK         0.0600 
    164 H164        1.0706  -14.7536  -40.7471 H         1 UNK         0.3000 
    165 H165       -0.3735  -16.3342  -43.4642 H         1 UNK         0.0600 
    166 H166       -1.5474  -14.2489  -44.1021 H         1 UNK         0.0600 
    167 H167       -2.4495  -15.0627  -42.8345 H         1 UNK         0.0600 
    168 H168       -1.4664  -13.6605  -42.4438 H         1 UNK         0.0600 
    169 H169        0.8137  -13.8261  -43.5079 H         1 UNK         0.3000 
    170 H170        4.0175  -14.2559  -42.7386 H         1 UNK         0.0600 
    171 H171        4.9690  -14.5415  -45.0296 H         1 UNK         0.0600 
    172 H172        4.5304  -16.0812  -44.3100 H         1 UNK         0.0600 
    173 H173        3.5010  -15.3687  -45.5435 H         1 UNK         0.0600 
    174 H174        2.5784  -13.0951  -45.0586 H         1 UNK         0.3000 
    175 H175        1.7457  -10.1404  -43.3536 H         1 UNK         0.0600 
    176 H176        4.1498  -10.3280  -45.2480 H         1 UNK         0.0600 
    177 H177        3.1875   -8.8826  -44.9346 H         1 UNK         0.0600 
    178 H178        4.1627   -9.5837  -43.6537 H         1 UNK         0.0600 
    179 H179        1.8963  -10.7461  -46.1493 H         1 UNK         0.3000 
    180 H180       -1.4412  -11.3669  -46.4439 H         1 UNK         0.0600 
    181 H181       -0.3668  -11.2287  -48.6619 H         1 UNK         0.0600 
    182 H182        1.2272  -11.4718  -47.9635 H         1 UNK         0.0600 
    183 H183        0.3117  -10.0069  -47.6041 H         1 UNK         0.0600 
    184 H184       -1.5394  -13.5259  -47.0085 H         1 UNK         0.3000 
    185 H185       -0.3878  -15.5221  -48.2732 H         1 UNK         0.0600 
    186 H186        1.4719  -16.6742  -46.1535 H         1 UNK         0.0600 
    187 H187        0.7928  -17.5575  -47.5236 H         1 UNK         0.0600 
    188 H188        1.9295  -16.2531  -47.7998 H         1 UNK         0.0600 
    189 H189       -0.9942  -16.9516  -45.9217 H         1 UNK         0.3000 
    190 H190       -2.1447  -20.9661  -45.9390 H         1 UNK         0.3000 
    191 H191       -4.5623  -21.7618  -47.0733 H         1 UNK         0.0600 
    192 H192       -3.9223  -21.3153  -44.1132 H         1 UNK         0.0600 
    193 H193       -5.5359  -21.3694  -44.8048 H         1 UNK         0.0600 
    194 H194       -4.4418  -20.0884  -45.2728 H         1 UNK         0.0600 
    195 H195       -2.4992  -23.6247  -44.8435 H         1 UNK         0.3000 
    196 H196       -4.3480  -25.7538  -44.3293 H         1 UNK         0.0600 
    197 H197       -2.3509  -26.9000  -43.3974 H         1 UNK         0.0600 
    198 H198       -2.4256  -25.2378  -42.8349 H         1 UNK         0.0600 
    199 H199       -1.2902  -25.6914  -44.1055 H         1 UNK         0.0600 
    200 H200       -2.0724  -25.1108  -46.9260 H         1 UNK         0.3000 
    201 H201       -2.4184  -27.7384  -48.2120 H         1 UNK         0.0600 
    202 H202       -0.1897  -26.6226  -48.1808 H         1 UNK         0.0600 
    203 H203       -0.8525  -25.2376  -49.0385 H         1 UNK         0.0600 
    204 H204       -0.7737  -26.8129  -49.8245 H         1 UNK         0.0600 
    205 H205       -4.6977  -25.6935  -47.8084 H         1 UNK         0.3000 
    206 H206       -6.5413  -25.0005  -48.8093 H         1 UNK         0.0600 
    207 H207       -7.4082  -26.1855  -50.7915 H         1 UNK         0.0600 
    208 H208       -5.8256  -26.8634  -51.1392 H         1 UNK         0.0600 
    209 H209       -6.6910  -27.3404  -49.6794 H         1 UNK         0.0600 
    210 H210       -4.5754  -23.2750  -48.8646 H         1 UNK         0.3000 
    211 H211       -3.7681  -21.3853  -49.6494 H         1 UNK         0.0600 
    212 H212       -5.9746  -21.4575  -51.7664 H         1 UNK         0.0600 
    213 H213       -4.9610  -20.0718  -51.3939 H         1 UNK         0.0600 
    214 H214       -6.0676  -20.6947  -50.1821 H         1 UNK         0.0600 
    215 H215       -2.4634  -23.6415  -50.2315 H         1 UNK         0.3000 
    216 H216       -1.0213  -24.7984  -51.4665 H         1 UNK         0.0600 
    217 H217        0.6103  -23.5306  -52.8387 H         1 UNK         0.0600 
    218 H218        0.2984  -22.7130  -51.3180 H         1 UNK         0.0600 
    219 H219       -0.4297  -22.1154  -52.8103 H         1 UNK         0.0600 
    220 H220       -3.3698  -25.4526  -52.2061 H         1 UNK         0.3000 
    221 H221       -4.8040  -26.2432  -53.6859 H         1 UNK         0.0600 
    222 H222       -2.4218  -26.4432  -55.6060 H         1 UNK         0.0600 
    223 H223       -2.8529  -27.6351  -54.3804 H         1 UNK         0.0600 
    224 H224       -3.9354  -27.3285  -55.7289 H         1 UNK         0.0600 
    225 H225       -5.1976  -23.7214  -53.3816 H         1 UNK         0.3000 
    226 H226       -6.0664  -21.8191  -54.0911 H         1 UNK         0.0600 
    227 H227       -7.7859  -23.3769  -54.9920 H         1 UNK         0.0600 
    228 H228       -7.6675  -21.9230  -55.9691 H         1 UNK         0.0600 
    229 H229       -6.9521  -23.4228  -56.5448 H         1 UNK         0.0600 
    230 H230       -3.4442  -21.6374  -54.3607 H         1 UNK         0.3000 
    231 H231       -2.5458  -20.8289  -56.9942 H         1 UNK         0.0600 
    232 H232       -1.3296  -20.3825  -54.2151 H         1 UNK         0.0600 
    233 H233       -0.9762  -21.7320  -55.2955 H         1 UNK         0.0600 
    234 H234       -0.5105  -20.1008  -55.7458 H         1 UNK         0.0600 
    235 H235       -3.8931  -19.1833  -54.1758 H         1 UNK         0.3000 
    236 H236       -4.4873  -17.0881  -53.6693 H         1 UNK         0.0600 
    237 H237       -5.1007  -16.8915  -56.6667 H         1 UNK         0.0600 
    238 H238       -6.1571  -17.6051  -55.4498 H         1 UNK         0.0600 
    239 H239       -5.7956  -15.8872  -55.3998 H         1 UNK         0.0600 
    240 H240       -1.8520  -17.2399  -53.6888 H         1 UNK         0.3000 
    241 H241        0.0278  -16.1346  -53.5736 H         1 UNK         0.0600 
    242 H242        0.2597  -16.7225  -57.4497 H         1 UNK         0.3800 
    243 H243       -1.1694  -17.1048  -56.5279 H         1 UNK         0.3800 
    244 H244        0.2978  -13.7291  -53.7917 H         1 UNK         0.0800 
    245 H245       -1.1739  -13.5751  -54.7015 H         1 UNK         0.0800 
    246 H246        0.3999  -14.7075  -51.3964 H         1 UNK         0.0800 
    247 H247       -0.6598  -14.0367  -50.1827 H         1 UNK         0.0800 
@<TRIPOS>BOND
     1    1    2 1    
     2    1  127 1    
     3    1  128 1    
     4    1  129 1    
     5    2    3 2    
     6    2    4 am   BACKBONE|DICT|INTERRES
     7    4    5 1    
     8    4  130 1    
     9    5    6 1    
    10    5   65 1    
    11    5  131 1    
    12    6    7 1    
    13    6  132 1    
    14    6  133 1    
    15    7    8 1    
    16    8    9 1    
    17    8  134 1    
    18    8  135 1    
    19    9   10 ar   
    20    9   14 ar   
    21   10   11 ar   
    22   10  136 1    
    23   11   12 ar   
    24   11  126 1    
    25   12   13 ar   
    26   12  137 1    
    27   13   14 ar   
    28   13   15 1    
    29   14  138 1    
    30   15   16 1    
    31   15  139 1    
    32   15  140 1    
    33   16   17 1    
    34   17   18 1    
    35   17  141 1    
    36   17  142 1    
    37   18   19 1    
    38   18   67 1    
    39   18  143 1    
    40   19   20 am   BACKBONE|DICT|INTERRES
    41   19  144 1    
    42   20   21 2    
    43   20   22 1    
    44   22   23 1    
    45   22   24 1    
    46   22  145 1    
    47   23  146 1    
    48   23  147 1    
    49   23  148 1    
    50   24   25 am   BACKBONE|DICT|INTERRES
    51   24  149 1    
    52   25   26 2    
    53   25   27 1    
    54   27   28 1    
    55   27   29 1    
    56   27  150 1    
    57   28  151 1    
    58   28  152 1    
    59   28  153 1    
    60   29   30 am   BACKBONE|DICT|INTERRES
    61   29  154 1    
    62   30   31 2    
    63   30   32 1    
    64   32   33 1    
    65   32   34 1    
    66   32  155 1    
    67   33  156 1    
    68   33  157 1    
    69   33  158 1    
    70   34   35 am   BACKBONE|DICT|INTERRES
    71   34  159 1    
    72   35   36 2    
    73   35   37 1    
    74   37   38 1    
    75   37   39 1    
    76   37  160 1    
    77   38  161 1    
    78   38  162 1    
    79   38  163 1    
    80   39   40 am   BACKBONE|DICT|INTERRES
    81   39  164 1    
    82   40   41 2    
    83   40   42 1    
    84   42   43 1    
    85   42   44 1    
    86   42  165 1    
    87   43  166 1    
    88   43  167 1    
    89   43  168 1    
    90   44   45 am   BACKBONE|DICT|INTERRES
    91   44  169 1    
    92   45   46 2    
    93   45   47 1    
    94   47   48 1    
    95   47   49 1    
    96   47  170 1    
    97   48  171 1    
    98   48  172 1    
    99   48  173 1    
   100   49   50 am   BACKBONE|DICT|INTERRES
   101   49  174 1    
   102   50   51 2    
   103   50   52 1    
   104   52   53 1    
   105   52   54 1    
   106   52  175 1    
   107   53  176 1    
   108   53  177 1    
   109   53  178 1    
   110   54   55 am   BACKBONE|DICT|INTERRES
   111   54  179 1    
   112   55   56 2    
   113   55   57 1    
   114   57   58 1    
   115   57   59 1    
   116   57  180 1    
   117   58  181 1    
   118   58  182 1    
   119   58  183 1    
   120   59   60 am   BACKBONE|DICT|INTERRES
   121   59  184 1    
   122   60   61 2    
   123   60   62 1    
   124   62   63 1    
   125   62   64 1    
   126   62  185 1    
   127   63  186 1    
   128   63  187 1    
   129   63  188 1    
   130   64   65 am   BACKBONE|DICT|INTERRES
   131   64  189 1    
   132   65   66 2    
   133   67   68 2    
   134   67   69 am   BACKBONE|DICT|INTERRES
   135   69   70 1    
   136   69  190 1    
   137   70   71 1    
   138   70   72 1    
   139   70  191 1    
   140   71  192 1    
   141   71  193 1    
   142   71  194 1    
   143   72   73 2    
   144   72   74 am   BACKBONE|DICT|INTERRES
   145   74   75 1    
   146   74  195 1    
   147   75   76 1    
   148   75   77 1    
   149   75  196 1    
   150   76  197 1    
   151   76  198 1    
   152   76  199 1    
   153   77   78 2    
   154   77   79 am   BACKBONE|DICT|INTERRES
   155   79   80 1    
   156   79  200 1    
   157   80   81 1    
   158   80   82 1    
   159   80  201 1    
   160   81  202 1    
   161   81  203 1    
   162   81  204 1    
   163   82   83 2    
   164   82   84 am   BACKBONE|DICT|INTERRES
   165   84   85 1    
   166   84  205 1    
   167   85   86 1    
   168   85   87 1    
   169   85  206 1    
   170   86  207 1    
   171   86  208 1    
   172   86  209 1    
   173   87   88 2    
   174   87   89 am   BACKBONE|DICT|INTERRES
   175   89   90 1    
   176   89  210 1    
   177   90   91 1    
   178   90   92 1    
   179   90  211 1    
   180   91  212 1    
   181   91  213 1    
   182   91  214 1    
   183   92   93 2    
   184   92   94 am   BACKBONE|DICT|INTERRES
   185   94   95 1    
   186   94  215 1    
   187   95   96 1    
   188   95   97 1    
   189   95  216 1    
   190   96  217 1    
   191   96  218 1    
   192   96  219 1    
   193   97   98 2    
   194   97   99 am   BACKBONE|DICT|INTERRES
   195   99  100 1    
   196   99  220 1    
   197  100  101 1    
   198  100  102 1    
   199  100  221 1    
   200  101  222 1    
   201  101  223 1    
   202  101  224 1    
   203  102  103 2    
   204  102  104 am   BACKBONE|DICT|INTERRES
   205  104  105 1    
   206  104  225 1    
   207  105  106 1    
   208  105  107 1    
   209  105  226 1    
   210  106  227 1    
   211  106  228 1    
   212  106  229 1    
   213  107  108 2    
   214  107  109 am   BACKBONE|DICT|INTERRES
   215  109  110 1    
   216  109  230 1    
   217  110  111 1    
   218  110  112 1    
   219  110  231 1    
   220  111  232 1    
   221  111  233 1    
   222  111  234 1    
   223  112  113 2    
   224  112  114 am   BACKBONE|DICT|INTERRES
   225  114  115 1    
   226  114  235 1    
   227  115  116 1    
   228  115  117 1    
   229  115  236 1    
   230  116  237 1    
   231  116  238 1    
   232  116  239 1    
   233  117  118 2    
   234  117  119 am   BACKBONE|DICT|INTERRES
   235  119  120 1    
   236  119  240 1    
   237  120  121 1    
   238  120  124 1    
   239  120  241 1    
   240  121  122 am   BACKBONE|DICT|INTERRES
   241  121  123 2    
   242  122  242 1    
   243  122  243 1    
   244  124  125 1    
   245  124  244 1    
   246  124  245 1    
   247  125  126 1    
   248  126  246 1    
   249  126  247 1    
@<TRIPOS>SUBSTRUCTURE
     1 UNK         1 GROUP             0       ****    0 ROOT    
