@<TRIPOS>MOLECULE
3R540
247   249    1
SMALL
USER_CHARGES


@<TRIPOS>ATOM
      1 CA          5.7291  -13.0351  -50.6513 C.3       0 UNK        -0.1800 
      2 C           5.0035  -13.2750  -49.3354 C.2       0 UNK         0.5000 
      3 O           5.4829  -14.0417  -48.4991 O.2       0 UNK        -0.5000 
      4 N           3.8566  -12.6140  -49.1370 N.am      1 UNK        -0.5000 
      5 CA          2.9899  -12.7260  -47.9560 C.3       1 UNK         0.1400 
      6 C6          1.5199  -12.3477  -48.2770 C.3       23 UNK        -0.0398 
      7 S7          0.8111  -13.3772  -49.6025 S.3       23 UNK        -0.2404 
      8 C8         -0.0684  -14.6266  -48.6206 C.3       23 UNK        -0.0205 
      9 C9         -0.4370  -15.8208  -49.4812 C.ar      23 UNK        -0.0193 
     10 C10        -1.7006  -15.9138  -50.0691 C.ar      23 UNK        -0.1150 
     11 C11        -2.0389  -17.0178  -50.8596 C.ar      23 UNK        -0.0193 
     12 C12        -1.0952  -18.0314  -51.0605 C.ar      23 UNK        -0.1150 
     13 C13         0.1809  -17.9361  -50.4943 C.ar      23 UNK        -0.0193 
     14 C14         0.4996  -16.8323  -49.7004 C.ar      23 UNK        -0.1150 
     15 C15         1.2342  -19.0022  -50.7603 C.3       23 UNK        -0.0205 
     16 S16         1.6534  -19.9398  -49.2583 S.3       23 UNK        -0.2404 
     17 C17         0.0705  -20.7794  -48.9498 C.3       23 UNK        -0.0398 
     18 CA          0.2264  -21.9949  -48.0122 C.3       11 UNK         0.1400 
     19 N           0.4928  -21.5994  -46.6275 N.am      11 UNK        -0.5000 
     20 C           0.7957  -22.4495  -45.6370 C.2       10 UNK         0.5000 
     21 O           0.9611  -23.6587  -45.7993 O.2       10 UNK        -0.5000 
     22 CA          0.8559  -21.8597  -44.2168 C.3       10 UNK         0.1400 
     23 CB          2.2003  -21.1618  -43.9635 C.3       10 UNK        -0.1800 
     24 N          -0.2488  -20.9335  -43.9564 N.am      10 UNK        -0.5000 
     25 C          -1.5406  -21.2940  -43.9370 C.2       9 UNK         0.5000 
     26 O          -1.9216  -22.4571  -44.0687 O.2       9 UNK        -0.5000 
     27 CA         -2.5857  -20.1741  -43.7793 C.3       9 UNK         0.1400 
     28 CB         -2.7776  -19.8203  -42.2977 C.3       9 UNK        -0.1800 
     29 N          -2.2561  -18.9667  -44.5389 N.am      9 UNK        -0.5000 
     30 C          -2.1958  -18.8999  -45.8771 C.2       8 UNK         0.5000 
     31 O          -2.4477  -19.8484  -46.6184 O.2       8 UNK        -0.5000 
     32 CA         -1.7209  -17.5684  -46.4911 C.3       8 UNK         0.1400 
     33 CB         -2.8619  -16.5414  -46.5375 C.3       8 UNK        -0.1800 
     34 N          -0.5723  -17.0005  -45.7822 N.am      8 UNK        -0.5000 
     35 C           0.6163  -17.6112  -45.6650 C.2       7 UNK         0.5000 
     36 O           0.8844  -18.6943  -46.1825 O.2       7 UNK        -0.5000 
     37 CA          1.6517  -16.9350  -44.7511 C.3       7 UNK         0.1400 
     38 CB          2.3865  -15.7952  -45.4764 C.3       7 UNK        -0.1800 
     39 N           1.0306  -16.4469  -43.5180 N.am      7 UNK        -0.5000 
     40 C           0.5741  -17.2537  -42.5472 C.2       6 UNK         0.5000 
     41 O           0.7139  -18.4761  -42.5579 O.2       6 UNK        -0.5000 
     42 CA         -0.2212  -16.6013  -41.4021 C.3       6 UNK         0.1400 
     43 CB          0.6928  -16.2303  -40.2272 C.3       6 UNK        -0.1800 
     44 N          -0.9707  -15.4257  -41.8476 N.am      6 UNK        -0.5000 
     45 C          -2.0788  -15.5045  -42.5992 C.2       5 UNK         0.5000 
     46 O          -2.5785  -16.5707  -42.9545 O.2       5 UNK        -0.5000 
     47 CA         -2.7210  -14.1865  -43.0692 C.3       5 UNK         0.1400 
     48 CB         -3.7973  -13.7292  -42.0739 C.3       5 UNK        -0.1800 
     49 N          -1.7604  -13.1026  -43.2697 N.am      5 UNK        -0.5000 
     50 C          -0.7581  -13.1118  -44.1580 C.2       4 UNK         0.5000 
     51 O          -0.5321  -14.0554  -44.9188 O.2       4 UNK        -0.5000 
     52 CA          0.1677  -11.8773  -44.1848 C.3       4 UNK         0.1400 
     53 CB         -0.3477  -10.6815  -43.3530 C.3       4 UNK        -0.1800 
     54 N           1.5421  -12.2014  -43.7910 N.am      4 UNK        -0.5000 
     55 C           1.9494  -12.7975  -42.6579 C.2       3 UNK         0.5000 
     56 O           1.1739  -13.2117  -41.7952 O.2       3 UNK        -0.5000 
     57 CA          3.4702  -12.9677  -42.4486 C.3       3 UNK         0.1400 
     58 CB          3.8271  -14.3724  -41.9335 C.3       3 UNK        -0.1800 
     59 N           4.2277  -12.7093  -43.6750 N.am      3 UNK        -0.5000 
     60 C           4.9171  -11.5909  -43.9348 C.2       2 UNK         0.5000 
     61 O           5.0414  -10.6574  -43.1414 O.2       2 UNK        -0.5000 
     62 CA          5.5520  -11.4857  -45.3353 C.3       2 UNK         0.1400 
     63 CB          6.9945  -12.0130  -45.3140 C.3       2 UNK        -0.1800 
     64 N           4.8040  -12.1864  -46.3846 N.am      2 UNK        -0.5000 
     65 C           3.5502  -11.9115  -46.7676 C.2       1 UNK         0.5000 
     66 O           2.8532  -11.0566  -46.2191 O.2       1 UNK        -0.5000 
     67 C          -1.0014  -22.9202  -48.1199 C.2       11 UNK         0.5000 
     68 O          -0.9296  -23.9286  -48.8209 O.2       11 UNK        -0.5000 
     69 N          -2.0873  -22.5900  -47.4077 N.am      12 UNK        -0.5000 
     70 CA         -3.3148  -23.3857  -47.3555 C.3       12 UNK         0.1400 
     71 CB         -4.3865  -22.6312  -46.5579 C.3       12 UNK        -0.1800 
     72 C          -3.0952  -24.7889  -46.7633 C.2       12 UNK         0.5000 
     73 O          -3.6286  -25.7652  -47.2884 O.2       12 UNK        -0.5000 
     74 N          -2.2850  -24.8733  -45.7002 N.am      13 UNK        -0.5000 
     75 CA         -1.8759  -26.1324  -45.0798 C.3       13 UNK         0.1400 
     76 CB         -1.1561  -25.8361  -43.7554 C.3       13 UNK        -0.1800 
     77 C          -0.9918  -26.9920  -46.0042 C.2       13 UNK         0.5000 
     78 O          -1.1315  -28.2158  -46.0107 O.2       13 UNK        -0.5000 
     79 N          -0.1028  -26.3396  -46.7640 N.am      14 UNK        -0.5000 
     80 CA          0.8397  -26.9876  -47.6717 C.3       14 UNK         0.1400 
     81 CB          2.0101  -26.0306  -47.9480 C.3       14 UNK        -0.1800 
     82 C           0.2066  -27.4512  -48.9964 C.2       14 UNK         0.5000 
     83 O           0.5244  -28.5490  -49.4564 O.2       14 UNK        -0.5000 
     84 N          -0.6294  -26.6011  -49.6079 N.am      15 UNK        -0.5000 
     85 CA         -1.0318  -26.7153  -51.0131 C.3       15 UNK         0.1400 
     86 CB         -0.2292  -25.6875  -51.8317 C.3       15 UNK        -0.1800 
     87 C          -2.5496  -26.5859  -51.2434 C.2       15 UNK         0.5000 
     88 O          -2.9624  -26.3505  -52.3814 O.2       15 UNK        -0.5000 
     89 N          -3.3578  -26.7669  -50.1890 N.am      16 UNK        -0.5000 
     90 CA         -4.8269  -26.7670  -50.1830 C.3       16 UNK         0.1400 
     91 CB         -5.3881  -27.9560  -50.9944 C.3       16 UNK        -0.1800 
     92 C          -5.4153  -25.4057  -50.6032 C.2       16 UNK         0.5000 
     93 O          -5.5807  -24.5355  -49.7491 O.2       16 UNK        -0.5000 
     94 N          -5.7185  -25.2389  -51.8983 N.am      17 UNK        -0.5000 
     95 CA         -6.1364  -23.9682  -52.4966 C.3       17 UNK         0.1400 
     96 CB         -6.8218  -24.2412  -53.8429 C.3       17 UNK        -0.1800 
     97 C          -4.9546  -22.9961  -52.6817 C.2       17 UNK         0.5000 
     98 O          -5.1416  -21.7831  -52.5604 O.2       17 UNK        -0.5000 
     99 N          -3.7585  -23.5528  -52.9162 N.am      18 UNK        -0.5000 
    100 CA        -2.4885  -22.8640  -53.1321 C.3       18 UNK         0.1400 
    101 CB        -2.0471  -22.1275  -51.8494 C.3       18 UNK        -0.1800 
    102 C         -2.4939  -21.9853  -54.4013 C.2       18 UNK         0.5000 
    103 O         -2.9943  -22.4197  -55.4401 O.2       18 UNK        -0.5000 
    104 N         -1.9002  -20.7879  -54.3096 N.am      19 UNK        -0.5000 
    105 CA        -1.6844  -19.8486  -55.4136 C.3       19 UNK         0.1400 
    106 CB        -0.6675  -18.7905  -54.9538 C.3       19 UNK        -0.1800 
    107 C         -2.9631  -19.1653  -55.9402 C.2       19 UNK         0.5000 
    108 O         -2.9176  -18.5539  -57.0089 O.2       19 UNK        -0.5000 
    109 N         -4.0654  -19.2589  -55.1899 N.am      20 UNK        -0.5000 
    110 CA        -5.3596  -18.6799  -55.5260 C.3       20 UNK         0.1400 
    111 CB        -5.4168  -17.2119  -55.0479 C.3       20 UNK        -0.1800 
    112 C         -6.4454  -19.5911  -54.9366 C.2       20 UNK         0.5000 
    113 O         -6.6091  -20.7151  -55.4125 O.2       20 UNK        -0.5000 
    114 N         -7.1479  -19.1048  -53.9092 N.am      21 UNK        -0.5000 
    115 CA        -8.1582  -19.8387  -53.1488 C.3       21 UNK         0.1400 
    116 CB        -9.5603  -19.4069  -53.6166 C.3       21 UNK        -0.1800 
    117 C         -7.9457  -19.6415  -51.6356 C.2       21 UNK         0.5000 
    118 O         -8.9045  -19.7270  -50.8664 O.2       21 UNK        -0.5000 
    119 N         -6.6961  -19.3692  -51.2336 N.am      22 UNK        -0.5000 
    120 CA        -6.2764  -19.2596  -49.8263 C.3       22 UNK         0.1400 
    121 C         -6.3325  -20.6198  -49.0840 C.2       22 UNK         0.5000 
    122 N         -5.9370  -21.7017  -49.7400 N.am      22 UNK        -0.7600 
    123 O         -6.7499  -20.6869  -47.9319 O.2       22 UNK        -0.5000 
    124 C124       -4.8659  -18.6331  -49.6781 C.3       23 UNK        -0.0398 
    125 S125       -4.7883  -16.9490  -50.3736 S.3       23 UNK        -0.2404 
    126 C126       -3.3987  -17.0803  -51.5455 C.3       23 UNK        -0.0205 
    127 H127        6.7233  -12.6298  -50.4629 H         1 UNK         0.0600 
    128 H128        5.1905  -12.3339  -51.2891 H         1 UNK         0.0600 
    129 H129        5.8393  -13.9736  -51.1946 H         1 UNK         0.0600 
    130 H130        3.5230  -11.9878  -49.8560 H         1 UNK         0.3000 
    131 H131        2.9890  -13.7701  -47.6366 H         1 UNK         0.0600 
    132 H132        1.4521  -11.3034  -48.5868 H         1 UNK         0.0800 
    133 H133        0.8921  -12.4423  -47.3895 H         1 UNK         0.0800 
    134 H134        0.5585  -14.9577  -47.7922 H         1 UNK         0.0800 
    135 H135       -0.9584  -14.1797  -48.1756 H         1 UNK         0.0800 
    136 H136       -2.4212  -15.1224  -49.9180 H         1 UNK         0.1150 
    137 H137       -1.3442  -18.8805  -51.6793 H         1 UNK         0.1150 
    138 H138        1.4835  -16.7577  -49.2585 H         1 UNK         0.1150 
    139 H139        0.9084  -19.6901  -51.5419 H         1 UNK         0.0800 
    140 H140        2.1378  -18.5209  -51.1367 H         1 UNK         0.0800 
    141 H141       -0.3243  -21.0904  -49.9146 H         1 UNK         0.0800 
    142 H142       -0.6409  -20.0582  -48.5460 H         1 UNK         0.0800 
    143 H143        1.0847  -22.5783  -48.3527 H         1 UNK         0.0600 
    144 H144        0.4301  -20.6063  -46.4207 H         1 UNK         0.3000 
    145 H145        0.7687  -22.6883  -43.5109 H         1 UNK         0.0600 
    146 H146        3.0320  -21.8475  -44.1294 H         1 UNK         0.0600 
    147 H147        2.3443  -20.3065  -44.6232 H         1 UNK         0.0600 
    148 H148        2.2718  -20.8066  -42.9354 H         1 UNK         0.0600 
    149 H149       -0.0022  -19.9648  -43.7851 H         1 UNK         0.3000 
    150 H150       -3.5360  -20.5531  -44.1604 H         1 UNK         0.0600 
    151 H151       -3.0635  -20.7005  -41.7206 H         1 UNK         0.0600 
    152 H152       -3.5643  -19.0769  -42.1675 H         1 UNK         0.0600 
    153 H153       -1.8631  -19.4229  -41.8580 H         1 UNK         0.0600 
    154 H154       -2.1057  -18.1189  -43.9999 H         1 UNK         0.3000 
    155 H155       -1.4071  -17.7728  -47.5166 H         1 UNK         0.0600 
    156 H156       -3.2542  -16.3260  -45.5444 H         1 UNK         0.0600 
    157 H157       -2.5325  -15.6011  -46.9780 H         1 UNK         0.0600 
    158 H158       -3.6908  -16.9083  -47.1426 H         1 UNK         0.0600 
    159 H159       -0.7005  -16.0957  -45.3431 H         1 UNK         0.3000 
    160 H160        2.3951  -17.6897  -44.4851 H         1 UNK         0.0600 
    161 H161        1.7368  -14.9445  -45.6732 H         1 UNK         0.0600 
    162 H162        2.7795  -16.1355  -46.4356 H         1 UNK         0.0600 
    163 H163        3.2344  -15.4403  -44.8930 H         1 UNK         0.0600 
    164 H164        0.8144  -15.4614  -43.4691 H         1 UNK         0.3000 
    165 H165       -0.9348  -17.3421  -41.0359 H         1 UNK         0.0600 
    166 H166        0.1172  -15.8351  -39.3902 H         1 UNK         0.0600 
    167 H167        1.2367  -17.1037  -39.8653 H         1 UNK         0.0600 
    168 H168        1.4283  -15.4809  -40.5095 H         1 UNK         0.0600 
    169 H169       -0.5719  -14.5181  -41.6358 H         1 UNK         0.3000 
    170 H170       -3.2044  -14.3808  -44.0285 H         1 UNK         0.0600 
    171 H171       -4.5448  -14.5090  -41.9218 H         1 UNK         0.0600 
    172 H172       -3.3690  -13.4901  -41.0996 H         1 UNK         0.0600 
    173 H173       -4.3215  -12.8452  -42.4375 H         1 UNK         0.0600 
    174 H174       -1.8550  -12.2993  -42.6657 H         1 UNK         0.3000 
    175 H175        0.2099  -11.5558  -45.2258 H         1 UNK         0.0600 
    176 H176       -0.3831  -10.9040  -42.2859 H         1 UNK         0.0600 
    177 H177        0.3000   -9.8144  -43.4836 H         1 UNK         0.0600 
    178 H178       -1.3476  -10.3804  -43.6686 H         1 UNK         0.0600 
    179 H179        2.2500  -11.8847  -44.4435 H         1 UNK         0.3000 
    180 H180        3.7589  -12.2535  -41.6751 H         1 UNK         0.0600 
    181 H181        3.4094  -15.1596  -42.5598 H         1 UNK         0.0600 
    182 H182        3.4513  -14.5190  -40.9214 H         1 UNK         0.0600 
    183 H183        4.9071  -14.5152  -41.8918 H         1 UNK         0.0600 
    184 H184        4.1897  -13.4200  -44.3904 H         1 UNK         0.3000 
    185 H185        5.5791  -10.4271  -45.6017 H         1 UNK         0.0600 
    186 H186        7.5900  -11.4947  -44.5612 H         1 UNK         0.0600 
    187 H187        7.0295  -13.0788  -45.0850 H         1 UNK         0.0600 
    188 H188        7.4844  -11.8604  -46.2760 H         1 UNK         0.0600 
    189 H189        5.3039  -12.8984  -46.9095 H         1 UNK         0.3000 
    190 H190       -2.0967  -21.7075  -46.9035 H         1 UNK         0.3000 
    191 H191       -3.6632  -23.4986  -48.3826 H         1 UNK         0.0600 
    192 H192       -4.1544  -22.5939  -45.4942 H         1 UNK         0.0600 
    193 H193       -5.3586  -23.1137  -46.6649 H         1 UNK         0.0600 
    194 H194       -4.4895  -21.6059  -46.9091 H         1 UNK         0.0600 
    195 H195       -1.9317  -24.0162  -45.2847 H         1 UNK         0.3000 
    196 H196       -2.7778  -26.7054  -44.8550 H         1 UNK         0.0600 
    197 H197       -0.8632  -26.7596  -43.2546 H         1 UNK         0.0600 
    198 H198       -1.8015  -25.2845  -43.0715 H         1 UNK         0.0600 
    199 H199       -0.2531  -25.2450  -43.9107 H         1 UNK         0.0600 
    200 H200       -0.0222  -25.3339  -46.6641 H         1 UNK         0.3000 
    201 H201        1.2456  -27.8702  -47.1725 H         1 UNK         0.0600 
    202 H202        2.5264  -25.7635  -47.0257 H         1 UNK         0.0600 
    203 H203        1.6727  -25.1073  -48.4203 H         1 UNK         0.0600 
    204 H204        2.7444  -26.4900  -48.6108 H         1 UNK         0.0600 
    205 H205       -0.8183  -25.6994  -49.1709 H         1 UNK         0.3000 
    206 H206       -0.7781  -27.7052  -51.3965 H         1 UNK         0.0600 
    207 H207       -0.4591  -25.7545  -52.8956 H         1 UNK         0.0600 
    208 H208       -0.4391  -24.6687  -51.5062 H         1 UNK         0.0600 
    209 H209        0.8429  -25.8541  -51.7260 H         1 UNK         0.0600 
    210 H210       -2.9281  -26.8823  -49.2803 H         1 UNK         0.3000 
    211 H211       -5.1300  -26.9219  -49.1468 H         1 UNK         0.0600 
    212 H212       -5.0797  -27.9376  -52.0397 H         1 UNK         0.0600 
    213 H213       -6.4786  -27.9609  -50.9737 H         1 UNK         0.0600 
    214 H214       -5.0548  -28.9039  -50.5717 H         1 UNK         0.0600 
    215 H215       -5.5221  -25.9997  -52.5329 H         1 UNK         0.3000 
    216 H216       -6.8650  -23.4915  -51.8376 H         1 UNK         0.0600 
    217 H217       -6.1465  -24.7273  -54.5481 H         1 UNK         0.0600 
    218 H218       -7.1609  -23.3115  -54.3021 H         1 UNK         0.0600 
    219 H219       -7.6963  -24.8800  -53.7183 H         1 UNK         0.0600 
    220 H220       -3.7038  -24.5656  -52.9519 H         1 UNK         0.3000 
    221 H221       -1.7587  -23.6497  -53.3266 H         1 UNK         0.0600 
    222 H222       -2.6693  -21.2585  -51.6320 H         1 UNK         0.0600 
    223 H223       -2.1011  -22.7910  -50.9870 H         1 UNK         0.0600 
    224 H224       -1.0131  -21.7947  -51.9360 H         1 UNK         0.0600 
    225 H225       -1.5110  -20.5210  -53.4189 H         1 UNK         0.3000 
    226 H226       -1.2482  -20.4030  -56.2470 H         1 UNK         0.0600 
    227 H227        0.2647  -19.2508  -54.6257 H         1 UNK         0.0600 
    228 H228       -0.4200  -18.1066  -55.7667 H         1 UNK         0.0600 
    229 H229       -1.0557  -18.1901  -54.1301 H         1 UNK         0.0600 
    230 H230       -4.0436  -19.8517  -54.3714 H         1 UNK         0.3000 
    231 H231       -5.4991  -18.6962  -56.6091 H         1 UNK         0.0600 
    232 H232       -6.3864  -16.7629  -55.2673 H         1 UNK         0.0600 
    233 H233       -4.6656  -16.6080  -55.5572 H         1 UNK         0.0600 
    234 H234       -5.2363  -17.1208  -53.9765 H         1 UNK         0.0600 
    235 H235       -6.9526  -18.1665  -53.5881 H         1 UNK         0.3000 
    236 H236       -8.0525  -20.9111  -53.3256 H         1 UNK         0.0600 
    237 H237       -9.6861  -19.5739  -54.6864 H         1 UNK         0.0600 
    238 H238      -10.3391  -19.9764  -53.1082 H         1 UNK         0.0600 
    239 H239       -9.7402  -18.3497  -53.4186 H         1 UNK         0.0600 
    240 H240       -5.9603  -19.3764  -51.9232 H         1 UNK         0.3000 
    241 H241       -6.9849  -18.5969  -49.3250 H         1 UNK         0.0600 
    242 H242       -5.6220  -21.6166  -50.6994 H         1 UNK         0.3800 
    243 H243       -5.9642  -22.6207  -49.3146 H         1 UNK         0.3800 
    244 H244       -4.5861  -18.5707  -48.6252 H         1 UNK         0.0800 
    245 H245       -4.1131  -19.2668  -50.1503 H         1 UNK         0.0800 
    246 H246       -3.4625  -16.2505  -52.2504 H         1 UNK         0.0800 
    247 H247       -3.5032  -17.9902  -52.1383 H         1 UNK         0.0800 
@<TRIPOS>BOND
     1    1    2 1    
     2    1  127 1    
     3    1  128 1    
     4    1  129 1    
     5    2    3 2    
     6    2    4 am   BACKBONE|DICT|INTERRES
     7    4    5 1    
     8    4  130 1    
     9    5    6 1    
    10    5   65 1    
    11    5  131 1    
    12    6    7 1    
    13    6  132 1    
    14    6  133 1    
    15    7    8 1    
    16    8    9 1    
    17    8  134 1    
    18    8  135 1    
    19    9   10 ar   
    20    9   14 ar   
    21   10   11 ar   
    22   10  136 1    
    23   11   12 ar   
    24   11  126 1    
    25   12   13 ar   
    26   12  137 1    
    27   13   14 ar   
    28   13   15 1    
    29   14  138 1    
    30   15   16 1    
    31   15  139 1    
    32   15  140 1    
    33   16   17 1    
    34   17   18 1    
    35   17  141 1    
    36   17  142 1    
    37   18   19 1    
    38   18   67 1    
    39   18  143 1    
    40   19   20 am   BACKBONE|DICT|INTERRES
    41   19  144 1    
    42   20   21 2    
    43   20   22 1    
    44   22   23 1    
    45   22   24 1    
    46   22  145 1    
    47   23  146 1    
    48   23  147 1    
    49   23  148 1    
    50   24   25 am   BACKBONE|DICT|INTERRES
    51   24  149 1    
    52   25   26 2    
    53   25   27 1    
    54   27   28 1    
    55   27   29 1    
    56   27  150 1    
    57   28  151 1    
    58   28  152 1    
    59   28  153 1    
    60   29   30 am   BACKBONE|DICT|INTERRES
    61   29  154 1    
    62   30   31 2    
    63   30   32 1    
    64   32   33 1    
    65   32   34 1    
    66   32  155 1    
    67   33  156 1    
    68   33  157 1    
    69   33  158 1    
    70   34   35 am   BACKBONE|DICT|INTERRES
    71   34  159 1    
    72   35   36 2    
    73   35   37 1    
    74   37   38 1    
    75   37   39 1    
    76   37  160 1    
    77   38  161 1    
    78   38  162 1    
    79   38  163 1    
    80   39   40 am   BACKBONE|DICT|INTERRES
    81   39  164 1    
    82   40   41 2    
    83   40   42 1    
    84   42   43 1    
    85   42   44 1    
    86   42  165 1    
    87   43  166 1    
    88   43  167 1    
    89   43  168 1    
    90   44   45 am   BACKBONE|DICT|INTERRES
    91   44  169 1    
    92   45   46 2    
    93   45   47 1    
    94   47   48 1    
    95   47   49 1    
    96   47  170 1    
    97   48  171 1    
    98   48  172 1    
    99   48  173 1    
   100   49   50 am   BACKBONE|DICT|INTERRES
   101   49  174 1    
   102   50   51 2    
   103   50   52 1    
   104   52   53 1    
   105   52   54 1    
   106   52  175 1    
   107   53  176 1    
   108   53  177 1    
   109   53  178 1    
   110   54   55 am   BACKBONE|DICT|INTERRES
   111   54  179 1    
   112   55   56 2    
   113   55   57 1    
   114   57   58 1    
   115   57   59 1    
   116   57  180 1    
   117   58  181 1    
   118   58  182 1    
   119   58  183 1    
   120   59   60 am   BACKBONE|DICT|INTERRES
   121   59  184 1    
   122   60   61 2    
   123   60   62 1    
   124   62   63 1    
   125   62   64 1    
   126   62  185 1    
   127   63  186 1    
   128   63  187 1    
   129   63  188 1    
   130   64   65 am   BACKBONE|DICT|INTERRES
   131   64  189 1    
   132   65   66 2    
   133   67   68 2    
   134   67   69 am   BACKBONE|DICT|INTERRES
   135   69   70 1    
   136   69  190 1    
   137   70   71 1    
   138   70   72 1    
   139   70  191 1    
   140   71  192 1    
   141   71  193 1    
   142   71  194 1    
   143   72   73 2    
   144   72   74 am   BACKBONE|DICT|INTERRES
   145   74   75 1    
   146   74  195 1    
   147   75   76 1    
   148   75   77 1    
   149   75  196 1    
   150   76  197 1    
   151   76  198 1    
   152   76  199 1    
   153   77   78 2    
   154   77   79 am   BACKBONE|DICT|INTERRES
   155   79   80 1    
   156   79  200 1    
   157   80   81 1    
   158   80   82 1    
   159   80  201 1    
   160   81  202 1    
   161   81  203 1    
   162   81  204 1    
   163   82   83 2    
   164   82   84 am   BACKBONE|DICT|INTERRES
   165   84   85 1    
   166   84  205 1    
   167   85   86 1    
   168   85   87 1    
   169   85  206 1    
   170   86  207 1    
   171   86  208 1    
   172   86  209 1    
   173   87   88 2    
   174   87   89 am   BACKBONE|DICT|INTERRES
   175   89   90 1    
   176   89  210 1    
   177   90   91 1    
   178   90   92 1    
   179   90  211 1    
   180   91  212 1    
   181   91  213 1    
   182   91  214 1    
   183   92   93 2    
   184   92   94 am   BACKBONE|DICT|INTERRES
   185   94   95 1    
   186   94  215 1    
   187   95   96 1    
   188   95   97 1    
   189   95  216 1    
   190   96  217 1    
   191   96  218 1    
   192   96  219 1    
   193   97   98 2    
   194   97   99 am   BACKBONE|DICT|INTERRES
   195   99  100 1    
   196   99  220 1    
   197  100  101 1    
   198  100  102 1    
   199  100  221 1    
   200  101  222 1    
   201  101  223 1    
   202  101  224 1    
   203  102  103 2    
   204  102  104 am   BACKBONE|DICT|INTERRES
   205  104  105 1    
   206  104  225 1    
   207  105  106 1    
   208  105  107 1    
   209  105  226 1    
   210  106  227 1    
   211  106  228 1    
   212  106  229 1    
   213  107  108 2    
   214  107  109 am   BACKBONE|DICT|INTERRES
   215  109  110 1    
   216  109  230 1    
   217  110  111 1    
   218  110  112 1    
   219  110  231 1    
   220  111  232 1    
   221  111  233 1    
   222  111  234 1    
   223  112  113 2    
   224  112  114 am   BACKBONE|DICT|INTERRES
   225  114  115 1    
   226  114  235 1    
   227  115  116 1    
   228  115  117 1    
   229  115  236 1    
   230  116  237 1    
   231  116  238 1    
   232  116  239 1    
   233  117  118 2    
   234  117  119 am   BACKBONE|DICT|INTERRES
   235  119  120 1    
   236  119  240 1    
   237  120  121 1    
   238  120  124 1    
   239  120  241 1    
   240  121  122 am   BACKBONE|DICT|INTERRES
   241  121  123 2    
   242  122  242 1    
   243  122  243 1    
   244  124  125 1    
   245  124  244 1    
   246  124  245 1    
   247  125  126 1    
   248  126  246 1    
   249  126  247 1    
@<TRIPOS>SUBSTRUCTURE
     1 UNK         1 GROUP             0       ****    0 ROOT    
