@<TRIPOS>MOLECULE
3R540
247   249    1
SMALL
USER_CHARGES


@<TRIPOS>ATOM
      1 CA          3.0760  -12.0891  -47.2094 C.3       0 UNK        -0.1800 
      2 C           2.5420  -13.3825  -47.8059 C.2       0 UNK         0.5000 
      3 O           1.6671  -14.0107  -47.2094 O.2       0 UNK        -0.5000 
      4 N           3.0615  -13.7784  -48.9754 N.am      1 UNK        -0.5000 
      5 CA          2.7130  -14.9821  -49.7455 C.3       1 UNK         0.1400 
      6 C6          3.7881  -15.2708  -50.8250 C.3       23 UNK        -0.0398 
      7 S7          5.2606  -16.0697  -50.1004 S.3       23 UNK        -0.2404 
      8 C8          5.3711  -17.6123  -51.0679 C.3       23 UNK        -0.0205 
      9 C9          4.2672  -18.6097  -50.7358 C.ar      23 UNK        -0.0193 
     10 C10         3.0945  -18.6467  -51.4981 C.ar      23 UNK        -0.1150 
     11 C11         2.0988  -19.5855  -51.2230 C.ar      23 UNK        -0.0193 
     12 C12         2.2967  -20.5205  -50.2066 C.ar      23 UNK        -0.1150 
     13 C13         3.4510  -20.4851  -49.4206 C.ar      23 UNK        -0.0193 
     14 C14         4.4323  -19.5237  -49.6884 C.ar      23 UNK        -0.1150 
     15 C15         3.6418  -21.4934  -48.2949 C.3       23 UNK        -0.0205 
     16 S16         2.9754  -20.8890  -46.7095 S.3       23 UNK        -0.2404 
     17 C17         1.1812  -21.1575  -46.9102 C.3       23 UNK        -0.0398 
     18 CA          0.6535  -22.3161  -46.0325 C.3       11 UNK         0.1400 
     19 N           0.7779  -22.0476  -44.5944 N.am      11 UNK        -0.5000 
     20 C           0.6384  -22.9723  -43.6310 C.2       10 UNK         0.5000 
     21 O           0.3193  -24.1406  -43.8644 O.2       10 UNK        -0.5000 
     22 CA          0.8565  -22.5115  -42.1740 C.3       10 UNK         0.1400 
     23 CB          1.2741  -23.6652  -41.2391 C.3       10 UNK        -0.1800 
     24 N           1.7787  -21.3790  -42.0506 N.am      10 UNK        -0.5000 
     25 C           3.0743  -21.3281  -42.4006 C.2       9 UNK         0.5000 
     26 O           3.7011  -22.2868  -42.8527 O.2       9 UNK        -0.5000 
     27 CA          3.7925  -19.9772  -42.2117 C.3       9 UNK         0.1400 
     28 CB          4.4878  -19.5153  -43.5038 C.3       9 UNK        -0.1800 
     29 N           2.8617  -18.9311  -41.7825 N.am      9 UNK        -0.5000 
     30 C           2.8583  -18.3577  -40.5743 C.2       8 UNK         0.5000 
     31 O           3.6701  -18.6203  -39.6861 O.2       8 UNK        -0.5000 
     32 CA          1.7609  -17.3151  -40.3034 C.3       8 UNK         0.1400 
     33 CB          2.2383  -15.9174  -40.7273 C.3       8 UNK        -0.1800 
     34 N           0.4749  -17.6034  -40.9457 N.am      8 UNK        -0.5000 
     35 C          -0.3431  -18.6089  -40.6020 C.2       7 UNK         0.5000 
     36 O          -0.0206  -19.5202  -39.8403 O.2       7 UNK        -0.5000 
     37 CA         -1.7633  -18.5857  -41.1923 C.3       7 UNK         0.1400 
     38 CB         -2.5909  -17.4492  -40.5712 C.3       7 UNK        -0.1800 
     39 N          -1.7373  -18.4180  -42.6403 N.am      7 UNK        -0.5000 
     40 C          -1.7761  -19.4253  -43.5215 C.2       6 UNK         0.5000 
     41 O          -1.8741  -20.6138  -43.2158 O.2       6 UNK        -0.5000 
     42 CA         -1.6079  -19.0435  -45.0043 C.3       6 UNK         0.1400 
     43 CB         -2.9497  -18.6071  -45.6094 C.3       6 UNK        -0.1800 
     44 N          -0.5974  -18.0065  -45.2230 N.am      6 UNK        -0.5000 
     45 C           0.6642  -18.0514  -44.7663 C.2       5 UNK         0.5000 
     46 O           1.1396  -19.0124  -44.1592 O.2       5 UNK        -0.5000 
     47 CA          1.5295  -16.7987  -44.9750 C.3       5 UNK         0.1400 
     48 CB          2.3319  -16.9349  -46.2768 C.3       5 UNK        -0.1800 
     49 N           0.7650  -15.5456  -44.9804 N.am      5 UNK        -0.5000 
     50 C           0.0011  -15.0998  -43.9703 C.2       4 UNK         0.5000 
     51 O          -0.1515  -15.7053  -42.9091 O.2       4 UNK        -0.5000 
     52 CA         -0.7826  -13.7986  -44.2088 C.3       4 UNK         0.1400 
     53 CB          0.1407  -12.5817  -44.3736 C.3       4 UNK        -0.1800 
     54 N          -1.6781  -13.9242  -45.3591 N.am      4 UNK        -0.5000 
     55 C          -2.7923  -14.6713  -45.3531 C.2       3 UNK         0.5000 
     56 O          -3.2047  -15.2646  -44.3565 O.2       3 UNK        -0.5000 
     57 CA         -3.5908  -14.7835  -46.6678 C.3       3 UNK         0.1400 
     58 CB         -4.7771  -13.8070  -46.6519 C.3       3 UNK        -0.1800 
     59 N          -2.8088  -14.5563  -47.8857 N.am      3 UNK        -0.5000 
     60 C          -1.7901  -15.3152  -48.3110 C.2       2 UNK         0.5000 
     61 O          -1.3434  -16.2694  -47.6701 O.2       2 UNK        -0.5000 
     62 CA         -1.1364  -14.9335  -49.6524 C.3       2 UNK         0.1400 
     63 CB         -1.6199  -13.5855  -50.2346 C.3       2 UNK        -0.1800 
     64 N           0.2988  -14.9183  -49.4273 N.am      2 UNK        -0.5000 
     65 C           1.2813  -14.9096  -50.3288 C.2       1 UNK         0.5000 
     66 O           1.0975  -14.8436  -51.5450 O.2       1 UNK        -0.5000 
     67 C          -0.7677  -22.7411  -46.4667 C.2       11 UNK         0.5000 
     68 O          -0.9068  -23.2742  -47.5665 O.2       11 UNK        -0.5000 
     69 N          -1.7779  -22.5790  -45.5953 N.am      12 UNK        -0.5000 
     70 CA         -3.1405  -23.0952  -45.7688 C.3       12 UNK         0.1400 
     71 CB         -4.0044  -22.6513  -44.5787 C.3       12 UNK        -0.1800 
     72 C          -3.2113  -24.6301  -45.9305 C.2       12 UNK         0.5000 
     73 O          -4.1744  -25.1373  -46.5061 O.2       12 UNK        -0.5000 
     74 N          -2.1932  -25.3437  -45.4277 N.am      13 UNK        -0.5000 
     75 CA         -2.0236  -26.7838  -45.6125 C.3       13 UNK         0.1400 
     76 CB         -1.1220  -27.3191  -44.4893 C.3       13 UNK        -0.1800 
     77 C          -1.4355  -27.1506  -46.9914 C.2       13 UNK         0.5000 
     78 O          -1.5782  -28.2995  -47.4121 O.2       13 UNK        -0.5000 
     79 N          -0.7699  -26.1968  -47.6583 N.am      14 UNK        -0.5000 
     80 CA         -0.0874  -26.3966  -48.9368 C.3       14 UNK         0.1400 
     81 CB          1.2337  -25.6086  -48.9331 C.3       14 UNK        -0.1800 
     82 C          -0.9604  -25.9757  -50.1303 C.2       14 UNK         0.5000 
     83 O          -0.9481  -26.6583  -51.1556 O.2       14 UNK        -0.5000 
     84 N          -1.6977  -24.8692  -49.9860 N.am      15 UNK        -0.5000 
     85 CA         -2.5614  -24.2859  -51.0100 C.3       15 UNK         0.1400 
     86 CB         -1.7095  -23.4712  -52.0000 C.3       15 UNK        -0.1800 
     87 C          -3.6264  -23.4072  -50.3378 C.2       15 UNK         0.5000 
     88 O          -3.5777  -23.2109  -49.1240 O.2       15 UNK        -0.5000 
     89 N          -4.5724  -22.8832  -51.1281 N.am      16 UNK        -0.5000 
     90 CA         -5.6062  -21.9635  -50.6459 C.3       16 UNK         0.1400 
     91 CB         -6.6957  -21.8051  -51.7138 C.3       16 UNK        -0.1800 
     92 C          -5.0207  -20.5965  -50.2485 C.2       16 UNK         0.5000 
     93 O          -5.3539  -20.0788  -49.1820 O.2       16 UNK        -0.5000 
     94 N          -4.1413  -20.0635  -51.1097 N.am      17 UNK        -0.5000 
     95 CA         -3.2898  -18.8768  -50.9681 C.3       17 UNK         0.1400 
     96 CB         -2.3081  -19.0546  -49.7941 C.3       17 UNK        -0.1800 
     97 C          -4.0263  -17.5259  -50.8682 C.2       17 UNK         0.5000 
     98 O          -3.5936  -16.5578  -51.4918 O.2       17 UNK        -0.5000 
     99 N          -5.0947  -17.4654  -50.0677 N.am      18 UNK        -0.5000 
    100 CA        -5.7971  -16.2402  -49.6975 C.3       18 UNK         0.1400 
    101 CB        -6.7027  -16.5241  -48.4892 C.3       18 UNK        -0.1800 
    102 C         -6.5988  -15.6010  -50.8439 C.2       18 UNK         0.5000 
    103 O         -6.5290  -14.3830  -51.0142 O.2       18 UNK        -0.5000 
    104 N         -7.3616  -16.4143  -51.5876 N.am      19 UNK        -0.5000 
    105 CA        -8.3133  -15.9363  -52.5972 C.3       19 UNK         0.1400 
    106 CB        -9.5805  -15.3878  -51.9052 C.3       19 UNK        -0.1800 
    107 C         -8.6438  -17.0039  -53.6581 C.2       19 UNK         0.5000 
    108 O         -9.7302  -16.9668  -54.2392 O.2       19 UNK        -0.5000 
    109 N         -7.7169  -17.9365  -53.9051 N.am      20 UNK        -0.5000 
    110 CA        -7.8428  -18.9837  -54.9184 C.3       20 UNK         0.1400 
    111 CB        -8.7751  -20.1157  -54.4313 C.3       20 UNK        -0.1800 
    112 C         -6.4356  -19.4372  -55.3414 C.2       20 UNK         0.5000 
    113 O         -5.5778  -18.5793  -55.5623 O.2       20 UNK        -0.5000 
    114 N         -6.2143  -20.7547  -55.4560 N.am      21 UNK        -0.5000 
    115 CA        -4.9503  -21.3872  -55.8449 C.3       21 UNK         0.1400 
    116 CB        -5.1084  -22.9129  -55.7590 C.3       21 UNK        -0.1800 
    117 C         -3.7670  -20.9230  -54.9766 C.2       21 UNK         0.5000 
    118 O         -3.8563  -21.0019  -53.7494 O.2       21 UNK        -0.5000 
    119 N         -2.7057  -20.4347  -55.6319 N.am      22 UNK        -0.5000 
    120 CA        -1.5255  -19.7871  -55.0280 C.3       22 UNK         0.1400 
    121 C         -1.7702  -18.3163  -54.5595 C.2       22 UNK         0.5000 
    122 N         -2.9706  -17.7588  -54.6579 N.am      22 UNK        -0.7600 
    123 O         -0.8418  -17.6363  -54.1383 O.2       22 UNK        -0.5000 
    124 C124       -0.8596  -20.6835  -53.9434 C.3       23 UNK        -0.0398 
    125 S125        0.9091  -20.3736  -53.6117 S.3       23 UNK        -0.2404 
    126 C126        0.7864  -19.5668  -51.9851 C.3       23 UNK        -0.0205 
    127 H127        3.4715  -12.2744  -46.2108 H         1 UNK         0.0600 
    128 H128        2.2736  -11.3560  -47.1285 H         1 UNK         0.0600 
    129 H129        3.8723  -11.6591  -47.8174 H         1 UNK         0.0600 
    130 H130        3.7700  -13.1983  -49.4008 H         1 UNK         0.3000 
    131 H131        2.7032  -15.8280  -49.0553 H         1 UNK         0.0600 
    132 H132        4.0923  -14.3506  -51.3262 H         1 UNK         0.0800 
    133 H133        3.4024  -15.9088  -51.6173 H         1 UNK         0.0800 
    134 H134        6.3418  -18.0718  -50.8755 H         1 UNK         0.0800 
    135 H135        5.3606  -17.3755  -52.1330 H         1 UNK         0.0800 
    136 H136        2.9490  -17.9513  -52.3120 H         1 UNK         0.1150 
    137 H137        1.5395  -21.2686  -50.0260 H         1 UNK         0.1150 
    138 H138        5.3324  -19.4959  -49.0904 H         1 UNK         0.1150 
    139 H139        3.1778  -22.4472  -48.5514 H         1 UNK         0.0800 
    140 H140        4.7052  -21.7008  -48.1677 H         1 UNK         0.0800 
    141 H141        0.9669  -21.3594  -47.9565 H         1 UNK         0.0800 
    142 H142        0.6681  -20.2250  -46.6857 H         1 UNK         0.0800 
    143 H143        1.2843  -23.1836  -46.2399 H         1 UNK         0.0600 
    144 H144        1.0375  -21.1023  -44.3323 H         1 UNK         0.3000 
    145 H145       -0.1112  -22.1474  -41.8270 H         1 UNK         0.0600 
    146 H146        1.4133  -23.3132  -40.2169 H         1 UNK         0.0600 
    147 H147        0.5098  -24.4426  -41.2113 H         1 UNK         0.0600 
    148 H148        2.2036  -24.1339  -41.5632 H         1 UNK         0.0600 
    149 H149        1.3744  -20.5356  -41.6687 H         1 UNK         0.3000 
    150 H150        4.5650  -20.1412  -41.4582 H         1 UNK         0.0600 
    151 H151        5.1944  -20.2641  -43.8634 H         1 UNK         0.0600 
    152 H152        5.0471  -18.5943  -43.3400 H         1 UNK         0.0600 
    153 H153        3.7716  -19.3305  -44.3032 H         1 UNK         0.0600 
    154 H154        2.1435  -18.6849  -42.4558 H         1 UNK         0.3000 
    155 H155        1.5907  -17.2965  -39.2249 H         1 UNK         0.0600 
    156 H156        3.1650  -15.6493  -40.2182 H         1 UNK         0.0600 
    157 H157        1.4992  -15.1555  -40.4793 H         1 UNK         0.0600 
    158 H158        2.4266  -15.8643  -41.8000 H         1 UNK         0.0600 
    159 H159        0.1486  -16.9073  -41.6141 H         1 UNK         0.3000 
    160 H160       -2.2493  -19.5295  -40.9352 H         1 UNK         0.0600 
    161 H161       -2.1810  -16.4679  -40.8146 H         1 UNK         0.0600 
    162 H162       -2.6199  -17.5347  -39.4842 H         1 UNK         0.0600 
    163 H163       -3.6210  -17.4759  -40.9271 H         1 UNK         0.0600 
    164 H164       -1.5934  -17.4771  -42.9856 H         1 UNK         0.3000 
    165 H165       -1.2760  -19.9280  -45.5422 H         1 UNK         0.0600 
    166 H166       -2.8361  -18.2869  -46.6437 H         1 UNK         0.0600 
    167 H167       -3.6653  -19.4294  -45.6029 H         1 UNK         0.0600 
    168 H168       -3.3956  -17.7845  -45.0520 H         1 UNK         0.0600 
    169 H169       -0.8810  -17.2012  -45.7697 H         1 UNK         0.3000 
    170 H170        2.2358  -16.7502  -44.1444 H         1 UNK         0.0600 
    171 H171        2.8920  -17.8703  -46.2986 H         1 UNK         0.0600 
    172 H172        1.6790  -16.9239  -47.1503 H         1 UNK         0.0600 
    173 H173        3.0578  -16.1291  -46.3806 H         1 UNK         0.0600 
    174 H174        0.8680  -14.9690  -45.8115 H         1 UNK         0.3000 
    175 H175       -1.3919  -13.6208  -43.3198 H         1 UNK         0.0600 
    176 H176        0.8408  -12.5077  -43.5405 H         1 UNK         0.0600 
    177 H177        0.7256  -12.6279  -45.2895 H         1 UNK         0.0600 
    178 H178       -0.4347  -11.6563  -44.3961 H         1 UNK         0.0600 
    179 H179       -1.3951  -13.4762  -46.2177 H         1 UNK         0.3000 
    180 H180       -3.9858  -15.8000  -46.7188 H         1 UNK         0.0600 
    181 H181       -4.4421  -12.7703  -46.5987 H         1 UNK         0.0600 
    182 H182       -5.4203  -13.9883  -45.7897 H         1 UNK         0.0600 
    183 H183       -5.3955  -13.9123  -47.5427 H         1 UNK         0.0600 
    184 H184       -3.0881  -13.7709  -48.4555 H         1 UNK         0.3000 
    185 H185       -1.3594  -15.7299  -50.3632 H         1 UNK         0.0600 
    186 H186       -2.6926  -13.6022  -50.4323 H         1 UNK         0.0600 
    187 H187       -1.4085  -12.7536  -49.5615 H         1 UNK         0.0600 
    188 H188       -1.1350  -13.3684  -51.1861 H         1 UNK         0.0600 
    189 H189        0.5735  -14.9185  -48.4480 H         1 UNK         0.3000 
    190 H190       -1.5841  -22.1348  -44.7054 H         1 UNK         0.3000 
    191 H191       -3.5549  -22.6421  -46.6691 H         1 UNK         0.0600 
    192 H192       -3.5965  -23.0065  -43.6315 H         1 UNK         0.0600 
    193 H193       -5.0208  -23.0376  -44.6654 H         1 UNK         0.0600 
    194 H194       -4.0789  -21.5659  -44.5265 H         1 UNK         0.0600 
    195 H195       -1.4464  -24.8596  -44.9421 H         1 UNK         0.3000 
    196 H196       -2.9973  -27.2708  -45.5268 H         1 UNK         0.0600 
    197 H197       -1.0010  -28.4004  -44.5657 H         1 UNK         0.0600 
    198 H198       -1.5468  -27.1083  -43.5077 H         1 UNK         0.0600 
    199 H199       -0.1269  -26.8735  -44.5260 H         1 UNK         0.0600 
    200 H200       -0.7674  -25.2513  -47.2947 H         1 UNK         0.3000 
    201 H201        0.1608  -27.4528  -49.0618 H         1 UNK         0.0600 
    202 H202        1.8742  -25.9169  -48.1066 H         1 UNK         0.0600 
    203 H203        1.0692  -24.5343  -48.8462 H         1 UNK         0.0600 
    204 H204        1.7896  -25.7787  -49.8559 H         1 UNK         0.0600 
    205 H205       -1.6824  -24.3566  -49.1073 H         1 UNK         0.3000 
    206 H206       -3.0790  -25.0860  -51.5429 H         1 UNK         0.0600 
    207 H207       -0.9412  -24.0861  -52.4685 H         1 UNK         0.0600 
    208 H208       -2.3253  -23.0660  -52.8023 H         1 UNK         0.0600 
    209 H209       -1.2125  -22.6361  -51.5046 H         1 UNK         0.0600 
    210 H210       -4.5379  -23.0467  -52.1239 H         1 UNK         0.3000 
    211 H211       -6.0668  -22.4006  -49.7572 H         1 UNK         0.0600 
    212 H212       -7.4864  -21.1412  -51.3622 H         1 UNK         0.0600 
    213 H213       -7.1572  -22.7630  -51.9536 H         1 UNK         0.0600 
    214 H214       -6.2956  -21.3850  -52.6360 H         1 UNK         0.0600 
    215 H215       -4.0192  -20.5505  -51.9967 H         1 UNK         0.3000 
    216 H216       -2.6968  -18.8386  -51.8808 H         1 UNK         0.0600 
    217 H217       -1.5614  -18.2600  -49.7817 H         1 UNK         0.0600 
    218 H218       -1.7773  -20.0040  -49.8606 H         1 UNK         0.0600 
    219 H219       -2.8230  -19.0352  -48.8344 H         1 UNK         0.0600 
    220 H220       -5.3641  -18.3237  -49.5905 H         1 UNK         0.3000 
    221 H221       -5.0449  -15.5132  -49.3874 H         1 UNK         0.0600 
    222 H222       -7.4498  -17.2857  -48.7156 H         1 UNK         0.0600 
    223 H223       -6.1219  -16.8709  -47.6344 H         1 UNK         0.0600 
    224 H224       -7.2347  -15.6244  -48.1771 H         1 UNK         0.0600 
    225 H225       -7.3734  -17.4036  -51.3835 H         1 UNK         0.3000 
    226 H226       -7.8490  -15.1171  -53.1501 H         1 UNK         0.0600 
    227 H227       -9.3423  -14.5822  -51.2108 H         1 UNK         0.0600 
    228 H228      -10.2849  -14.9792  -52.6307 H         1 UNK         0.0600 
    229 H229      -10.0974  -16.1685  -51.3462 H         1 UNK         0.0600 
    230 H230       -6.8062  -17.8564  -53.4739 H         1 UNK         0.3000 
    231 H231       -8.2874  -18.5457  -55.8144 H         1 UNK         0.0600 
    232 H232       -9.7716  -19.7351  -54.2073 H         1 UNK         0.0600 
    233 H233       -8.3996  -20.5908  -53.5278 H         1 UNK         0.0600 
    234 H234       -8.9024  -20.8863  -55.1923 H         1 UNK         0.0600 
    235 H235       -6.9736  -21.3830  -55.2396 H         1 UNK         0.3000 
    236 H236       -4.7555  -21.1182  -56.8849 H         1 UNK         0.0600 
    237 H237       -4.1869  -23.4188  -56.0501 H         1 UNK         0.0600 
    238 H238       -5.3540  -23.2355  -54.7463 H         1 UNK         0.0600 
    239 H239       -5.8961  -23.2669  -56.4244 H         1 UNK         0.0600 
    240 H240       -2.7397  -20.3984  -56.6409 H         1 UNK         0.3000 
    241 H241       -0.8153  -19.7001  -55.8510 H         1 UNK         0.0600 
    242 H242       -3.7736  -18.2522  -55.0357 H         1 UNK         0.3800 
    243 H243       -3.0833  -16.8088  -54.3426 H         1 UNK         0.3800 
    244 H244       -1.4265  -20.6386  -53.0142 H         1 UNK         0.0800 
    245 H245       -0.9129  -21.7239  -54.2653 H         1 UNK         0.0800 
    246 H246        0.4535  -18.5357  -52.1058 H         1 UNK         0.0800 
    247 H247        0.0225  -20.0647  -51.3886 H         1 UNK         0.0800 
@<TRIPOS>BOND
     1    1    2 1    
     2    1  127 1    
     3    1  128 1    
     4    1  129 1    
     5    2    3 2    
     6    2    4 am   BACKBONE|DICT|INTERRES
     7    4    5 1    
     8    4  130 1    
     9    5    6 1    
    10    5   65 1    
    11    5  131 1    
    12    6    7 1    
    13    6  132 1    
    14    6  133 1    
    15    7    8 1    
    16    8    9 1    
    17    8  134 1    
    18    8  135 1    
    19    9   10 ar   
    20    9   14 ar   
    21   10   11 ar   
    22   10  136 1    
    23   11   12 ar   
    24   11  126 1    
    25   12   13 ar   
    26   12  137 1    
    27   13   14 ar   
    28   13   15 1    
    29   14  138 1    
    30   15   16 1    
    31   15  139 1    
    32   15  140 1    
    33   16   17 1    
    34   17   18 1    
    35   17  141 1    
    36   17  142 1    
    37   18   19 1    
    38   18   67 1    
    39   18  143 1    
    40   19   20 am   BACKBONE|DICT|INTERRES
    41   19  144 1    
    42   20   21 2    
    43   20   22 1    
    44   22   23 1    
    45   22   24 1    
    46   22  145 1    
    47   23  146 1    
    48   23  147 1    
    49   23  148 1    
    50   24   25 am   BACKBONE|DICT|INTERRES
    51   24  149 1    
    52   25   26 2    
    53   25   27 1    
    54   27   28 1    
    55   27   29 1    
    56   27  150 1    
    57   28  151 1    
    58   28  152 1    
    59   28  153 1    
    60   29   30 am   BACKBONE|DICT|INTERRES
    61   29  154 1    
    62   30   31 2    
    63   30   32 1    
    64   32   33 1    
    65   32   34 1    
    66   32  155 1    
    67   33  156 1    
    68   33  157 1    
    69   33  158 1    
    70   34   35 am   BACKBONE|DICT|INTERRES
    71   34  159 1    
    72   35   36 2    
    73   35   37 1    
    74   37   38 1    
    75   37   39 1    
    76   37  160 1    
    77   38  161 1    
    78   38  162 1    
    79   38  163 1    
    80   39   40 am   BACKBONE|DICT|INTERRES
    81   39  164 1    
    82   40   41 2    
    83   40   42 1    
    84   42   43 1    
    85   42   44 1    
    86   42  165 1    
    87   43  166 1    
    88   43  167 1    
    89   43  168 1    
    90   44   45 am   BACKBONE|DICT|INTERRES
    91   44  169 1    
    92   45   46 2    
    93   45   47 1    
    94   47   48 1    
    95   47   49 1    
    96   47  170 1    
    97   48  171 1    
    98   48  172 1    
    99   48  173 1    
   100   49   50 am   BACKBONE|DICT|INTERRES
   101   49  174 1    
   102   50   51 2    
   103   50   52 1    
   104   52   53 1    
   105   52   54 1    
   106   52  175 1    
   107   53  176 1    
   108   53  177 1    
   109   53  178 1    
   110   54   55 am   BACKBONE|DICT|INTERRES
   111   54  179 1    
   112   55   56 2    
   113   55   57 1    
   114   57   58 1    
   115   57   59 1    
   116   57  180 1    
   117   58  181 1    
   118   58  182 1    
   119   58  183 1    
   120   59   60 am   BACKBONE|DICT|INTERRES
   121   59  184 1    
   122   60   61 2    
   123   60   62 1    
   124   62   63 1    
   125   62   64 1    
   126   62  185 1    
   127   63  186 1    
   128   63  187 1    
   129   63  188 1    
   130   64   65 am   BACKBONE|DICT|INTERRES
   131   64  189 1    
   132   65   66 2    
   133   67   68 2    
   134   67   69 am   BACKBONE|DICT|INTERRES
   135   69   70 1    
   136   69  190 1    
   137   70   71 1    
   138   70   72 1    
   139   70  191 1    
   140   71  192 1    
   141   71  193 1    
   142   71  194 1    
   143   72   73 2    
   144   72   74 am   BACKBONE|DICT|INTERRES
   145   74   75 1    
   146   74  195 1    
   147   75   76 1    
   148   75   77 1    
   149   75  196 1    
   150   76  197 1    
   151   76  198 1    
   152   76  199 1    
   153   77   78 2    
   154   77   79 am   BACKBONE|DICT|INTERRES
   155   79   80 1    
   156   79  200 1    
   157   80   81 1    
   158   80   82 1    
   159   80  201 1    
   160   81  202 1    
   161   81  203 1    
   162   81  204 1    
   163   82   83 2    
   164   82   84 am   BACKBONE|DICT|INTERRES
   165   84   85 1    
   166   84  205 1    
   167   85   86 1    
   168   85   87 1    
   169   85  206 1    
   170   86  207 1    
   171   86  208 1    
   172   86  209 1    
   173   87   88 2    
   174   87   89 am   BACKBONE|DICT|INTERRES
   175   89   90 1    
   176   89  210 1    
   177   90   91 1    
   178   90   92 1    
   179   90  211 1    
   180   91  212 1    
   181   91  213 1    
   182   91  214 1    
   183   92   93 2    
   184   92   94 am   BACKBONE|DICT|INTERRES
   185   94   95 1    
   186   94  215 1    
   187   95   96 1    
   188   95   97 1    
   189   95  216 1    
   190   96  217 1    
   191   96  218 1    
   192   96  219 1    
   193   97   98 2    
   194   97   99 am   BACKBONE|DICT|INTERRES
   195   99  100 1    
   196   99  220 1    
   197  100  101 1    
   198  100  102 1    
   199  100  221 1    
   200  101  222 1    
   201  101  223 1    
   202  101  224 1    
   203  102  103 2    
   204  102  104 am   BACKBONE|DICT|INTERRES
   205  104  105 1    
   206  104  225 1    
   207  105  106 1    
   208  105  107 1    
   209  105  226 1    
   210  106  227 1    
   211  106  228 1    
   212  106  229 1    
   213  107  108 2    
   214  107  109 am   BACKBONE|DICT|INTERRES
   215  109  110 1    
   216  109  230 1    
   217  110  111 1    
   218  110  112 1    
   219  110  231 1    
   220  111  232 1    
   221  111  233 1    
   222  111  234 1    
   223  112  113 2    
   224  112  114 am   BACKBONE|DICT|INTERRES
   225  114  115 1    
   226  114  235 1    
   227  115  116 1    
   228  115  117 1    
   229  115  236 1    
   230  116  237 1    
   231  116  238 1    
   232  116  239 1    
   233  117  118 2    
   234  117  119 am   BACKBONE|DICT|INTERRES
   235  119  120 1    
   236  119  240 1    
   237  120  121 1    
   238  120  124 1    
   239  120  241 1    
   240  121  122 am   BACKBONE|DICT|INTERRES
   241  121  123 2    
   242  122  242 1    
   243  122  243 1    
   244  124  125 1    
   245  124  244 1    
   246  124  245 1    
   247  125  126 1    
   248  126  246 1    
   249  126  247 1    
@<TRIPOS>SUBSTRUCTURE
     1 UNK         1 GROUP             0       ****    0 ROOT    
