@<TRIPOS>MOLECULE
3R540
247   249    1
SMALL
USER_CHARGES


@<TRIPOS>ATOM
      1 CA          2.4517  -17.0548  -48.0896 C.3       0 UNK        -0.1800 
      2 C           2.0224  -15.6923  -47.5723 C.2       0 UNK         0.5000 
      3 O           2.7519  -15.0630  -46.8092 O.2       0 UNK        -0.5000 
      4 N           0.8491  -15.2210  -48.0096 N.am      1 UNK        -0.5000 
      5 CA          0.2059  -13.9661  -47.5939 C.3       1 UNK         0.1400 
      6 C6         -1.2039  -13.8172  -48.2202 C.3       23 UNK        -0.0398 
      7 S7         -1.2806  -13.4058  -50.0061 S.3       23 UNK        -0.2404 
      8 C8         -0.5273  -14.8412  -50.8566 C.3       23 UNK        -0.0205 
      9 C9         -1.1083  -16.2092  -50.4992 C.ar      23 UNK        -0.0193 
     10 C10        -2.4536  -16.3696  -50.1540 C.ar      23 UNK        -0.1150 
     11 C11        -2.9787  -17.6332  -49.8757 C.ar      23 UNK        -0.0193 
     12 C12        -2.1455  -18.7515  -49.9619 C.ar      23 UNK        -0.1150 
     13 C13        -0.7909  -18.6124  -50.2843 C.ar      23 UNK        -0.0193 
     14 C14        -0.2839  -17.3377  -50.5558 C.ar      23 UNK        -0.1150 
     15 C15         0.1185  -19.8342  -50.3796 C.3       23 UNK        -0.0205 
     16 S16         0.6747  -20.4401  -48.7479 S.3       23 UNK        -0.2404 
     17 C17        -0.8526  -21.2168  -48.1413 C.3       23 UNK        -0.0398 
     18 CA         -0.6511  -22.4405  -47.2142 C.3       11 UNK         0.1400 
     19 N          -0.1247  -22.1215  -45.8802 N.am      11 UNK        -0.5000 
     20 C           0.1441  -23.0407  -44.9356 C.2       10 UNK         0.5000 
     21 O           0.0800  -24.2543  -45.1291 O.2       10 UNK        -0.5000 
     22 CA          0.4588  -22.5386  -43.5139 C.3       10 UNK         0.1400 
     23 CB          1.9429  -22.1751  -43.3617 C.3       10 UNK        -0.1800 
     24 N          -0.3927  -21.4150  -43.1198 N.am      10 UNK        -0.5000 
     25 C          -1.7220  -21.5015  -42.9584 C.2       9 UNK         0.5000 
     26 O          -2.3475  -22.5586  -43.0420 O.2       9 UNK        -0.5000 
     27 CA         -2.4901  -20.1861  -42.7236 C.3       9 UNK         0.1400 
     28 CB         -2.5211  -19.8176  -41.2335 C.3       9 UNK        -0.1800 
     29 N          -1.9405  -19.0746  -43.5021 N.am      9 UNK        -0.5000 
     30 C          -1.9698  -19.0082  -44.8408 C.2       8 UNK         0.5000 
     31 O          -2.5561  -19.8321  -45.5426 O.2       8 UNK        -0.5000 
     32 CA         -1.1666  -17.8691  -45.5034 C.3       8 UNK         0.1400 
     33 CB         -2.0018  -16.5836  -45.5714 C.3       8 UNK        -0.1800 
     34 N           0.1007  -17.6092  -44.8102 N.am      8 UNK        -0.5000 
     35 C           1.1147  -18.4864  -44.7630 C.2       7 UNK         0.5000 
     36 O           1.1158  -19.5417  -45.3926 O.2       7 UNK        -0.5000 
     37 CA          2.2800  -18.1895  -43.7996 C.3       7 UNK         0.1400 
     38 CB          3.4161  -17.4101  -44.4724 C.3       7 UNK        -0.1800 
     39 N           1.8332  -17.4759  -42.6060 N.am      7 UNK        -0.5000 
     40 C           1.1971  -18.0605  -41.5822 C.2       6 UNK         0.5000 
     41 O           0.9788  -19.2696  -41.5223 O.2       6 UNK        -0.5000 
     42 CA          0.6846  -17.1368  -40.4604 C.3       6 UNK         0.1400 
     43 CB          1.7699  -16.9334  -39.3932 C.3       6 UNK        -0.1800 
     44 N           0.2499  -15.8310  -40.9602 N.am      6 UNK        -0.5000 
     45 C          -0.7995  -15.6373  -41.7723 C.2       5 UNK         0.5000 
     46 O          -1.5603  -16.5382  -42.1212 O.2       5 UNK        -0.5000 
     47 CA         -0.9907  -14.2146  -42.3368 C.3       5 UNK         0.1400 
     48 CB         -1.9292  -13.3982  -41.4369 C.3       5 UNK        -0.1800 
     49 N           0.2776  -13.4954  -42.4988 N.am      5 UNK        -0.5000 
     50 C           1.2466  -13.8584  -43.3493 C.2       4 UNK         0.5000 
     51 O           1.1386  -14.7961  -44.1413 O.2       4 UNK        -0.5000 
     52 CA          2.5835  -13.1220  -43.2024 C.3       4 UNK         0.1400 
     53 CB          3.3677  -13.7228  -42.0157 C.3       4 UNK        -0.1800 
     54 N           3.3723  -13.2241  -44.4295 N.am      4 UNK        -0.5000 
     55 C           4.4702  -12.4963  -44.6822 C.2       3 UNK         0.5000 
     56 O           4.8984  -11.6208  -43.9285 O.2       3 UNK        -0.5000 
     57 CA          5.2148  -12.7760  -45.9957 C.3       3 UNK         0.1400 
     58 CB          5.8974  -14.1543  -45.9660 C.3       3 UNK        -0.1800 
     59 N           4.3013  -12.6969  -47.1303 N.am      3 UNK        -0.5000 
     60 C           4.0589  -11.5841  -47.8372 C.2       2 UNK         0.5000 
     61 O           4.6364  -10.5132  -47.6449 O.2       2 UNK        -0.5000 
     62 CA          2.9962  -11.6712  -48.9517 C.3       2 UNK         0.1400 
     63 CB          3.6631  -11.9080  -50.3153 C.3       2 UNK        -0.1800 
     64 N           2.0095  -12.7247  -48.7213 N.am      2 UNK        -0.5000 
     65 C           1.0620  -12.6916  -47.7743 C.2       1 UNK         0.5000 
     66 O           0.8644  -11.7218  -47.0410 O.2       1 UNK        -0.5000 
     67 C          -1.9859  -23.2025  -47.1234 C.2       11 UNK         0.5000 
     68 O          -2.1300  -24.2262  -47.7830 O.2       11 UNK        -0.5000 
     69 N          -2.9278  -22.7056  -46.3086 N.am      12 UNK        -0.5000 
     70 CA         -4.2386  -23.3258  -46.1012 C.3       12 UNK         0.1400 
     71 CB         -5.1139  -22.4095  -45.2337 C.3       12 UNK        -0.1800 
     72 C          -4.1514  -24.7455  -45.5073 C.2       12 UNK         0.5000 
     73 O          -4.8934  -25.6281  -45.9393 O.2       12 UNK        -0.5000 
     74 N          -3.2241  -24.9492  -44.5619 N.am      13 UNK        -0.5000 
     75 CA         -2.9307  -26.2462  -43.9519 C.3       13 UNK         0.1400 
     76 CB         -2.0452  -26.0351  -42.7142 C.3       13 UNK        -0.1800 
     77 C          -2.2732  -27.2399  -44.9306 C.2       13 UNK         0.5000 
     78 O          -2.6423  -28.4147  -44.9418 O.2       13 UNK        -0.5000 
     79 N          -1.3171  -26.7553  -45.7339 N.am      14 UNK        -0.5000 
     80 CA         -0.5460  -27.5494  -46.6959 C.3       14 UNK         0.1400 
     81 CB          0.8194  -26.8714  -46.8959 C.3       14 UNK        -0.1800 
     82 C          -1.2460  -27.7424  -48.0571 C.2       14 UNK         0.5000 
     83 O          -0.7007  -28.4368  -48.9165 O.2       14 UNK        -0.5000 
     84 N          -2.3970  -27.0872  -48.2570 N.am      15 UNK        -0.5000 
     85 CA         -3.1515  -26.8933  -49.5019 C.3       15 UNK         0.1400 
     86 CB         -3.5334  -28.2207  -50.1848 C.3       15 UNK        -0.1800 
     87 C          -2.4469  -25.9200  -50.4668 C.2       15 UNK         0.5000 
     88 O          -3.0604  -24.9287  -50.8613 O.2       15 UNK        -0.5000 
     89 N          -1.1684  -26.1924  -50.7744 N.am      16 UNK        -0.5000 
     90 CA         -0.1869  -25.3380  -51.4543 C.3       16 UNK         0.1400 
     91 CB          0.4640  -24.4035  -50.4114 C.3       16 UNK        -0.1800 
     92 C          -0.7534  -24.5869  -52.6801 C.2       16 UNK         0.5000 
     93 O          -0.9958  -25.2118  -53.7140 O.2       16 UNK        -0.5000 
     94 N          -0.9703  -23.2752  -52.5249 N.am      17 UNK        -0.5000 
     95 CA         -1.6205  -22.3907  -53.4880 C.3       17 UNK         0.1400 
     96 CB         -0.5737  -21.4389  -54.0956 C.3       17 UNK        -0.1800 
     97 C          -2.7896  -21.6319  -52.8306 C.2       17 UNK         0.5000 
     98 O          -3.1252  -20.5299  -53.2708 O.2       17 UNK        -0.5000 
     99 N          -3.4079  -22.2141  -51.7920 N.am      18 UNK        -0.5000 
    100 CA        -4.6252  -21.6807  -51.1824 C.3       18 UNK         0.1400 
    101 CB        -4.9347  -22.4293  -49.8791 C.3       18 UNK        -0.1800 
    102 C         -5.7970  -21.7614  -52.1778 C.2       18 UNK         0.5000 
    103 O         -6.0140  -22.8136  -52.7824 O.2       18 UNK        -0.5000 
    104 N         -6.4851  -20.6276  -52.3580 N.am      19 UNK        -0.5000 
    105 CA        -7.5128  -20.3598  -53.3706 C.3       19 UNK         0.1400 
    106 CB        -8.7338  -21.2879  -53.1962 C.3       19 UNK        -0.1800 
    107 C         -6.9716  -20.3401  -54.8202 C.2       19 UNK         0.5000 
    108 O         -7.7615  -20.4509  -55.7602 O.2       19 UNK        -0.5000 
    109 N         -5.6507  -20.1766  -54.9826 N.am      20 UNK        -0.5000 
    110 CA        -4.9791  -19.9699  -56.2649 C.3       20 UNK         0.1400 
    111 CB        -4.1035  -21.1873  -56.6043 C.3       20 UNK        -0.1800 
    112 C         -4.1535  -18.6747  -56.2232 C.2       20 UNK         0.5000 
    113 O         -4.2875  -17.8456  -57.1241 O.2       20 UNK        -0.5000 
    114 N         -3.3338  -18.5080  -55.1747 N.am      21 UNK        -0.5000 
    115 CA        -2.5930  -17.2791  -54.8896 C.3       21 UNK         0.1400 
    116 CB        -1.4552  -17.5846  -53.9035 C.3       21 UNK        -0.1800 
    117 C         -3.5355  -16.1925  -54.3441 C.2       21 UNK         0.5000 
    118 O         -3.5966  -15.0948  -54.8997 O.2       21 UNK        -0.5000 
    119 N         -4.2853  -16.5453  -53.2943 N.am      22 UNK        -0.5000 
    120 CA        -5.4509  -15.8009  -52.8012 C.3       22 UNK         0.1400 
    121 C         -6.6935  -15.9930  -53.7155 C.2       22 UNK         0.5000 
    122 N         -7.5751  -15.0048  -53.7864 N.am      22 UNK        -0.7600 
    123 O         -6.8881  -17.0371  -54.3324 O.2       22 UNK        -0.5000 
    124 C124       -5.7812  -16.1261  -51.3166 C.3       23 UNK        -0.0398 
    125 S125       -5.5913  -17.8842  -50.8402 S.3       23 UNK        -0.2404 
    126 C126       -4.4300  -17.7871  -49.4386 C.3       23 UNK        -0.0205 
    127 H127        3.4618  -17.2928  -47.7574 H         1 UNK         0.0600 
    128 H128        2.4436  -17.0761  -49.1784 H         1 UNK         0.0600 
    129 H129        1.7789  -17.8276  -47.7195 H         1 UNK         0.0600 
    130 H130        0.3038  -15.7913  -48.6406 H         1 UNK         0.3000 
    131 H131        0.0649  -14.0585  -46.5159 H         1 UNK         0.0600 
    132 H132       -1.7438  -13.0294  -47.6922 H         1 UNK         0.0800 
    133 H133       -1.7880  -14.7192  -48.0420 H         1 UNK         0.0800 
    134 H134        0.5493  -14.8242  -50.6855 H         1 UNK         0.0800 
    135 H135       -0.6570  -14.6965  -51.9298 H         1 UNK         0.0800 
    136 H136       -3.0916  -15.5028  -50.0950 H         1 UNK         0.1150 
    137 H137       -2.5563  -19.7294  -49.7665 H         1 UNK         0.1150 
    138 H138        0.7535  -17.2283  -50.8379 H         1 UNK         0.1150 
    139 H139       -0.3927  -20.6317  -50.9179 H         1 UNK         0.0800 
    140 H140        1.0013  -19.5945  -50.9742 H         1 UNK         0.0800 
    141 H141       -1.4179  -21.5280  -49.0215 H         1 UNK         0.0800 
    142 H142       -1.4519  -20.4486  -47.6586 H         1 UNK         0.0800 
    143 H143        0.0718  -23.1098  -47.6840 H         1 UNK         0.0600 
    144 H144        0.0386  -21.1407  -45.6720 H         1 UNK         0.3000 
    145 H145        0.2507  -23.3578  -42.8224 H         1 UNK         0.0600 
    146 H146        2.2618  -21.4375  -44.0957 H         1 UNK         0.0600 
    147 H147        2.1557  -21.7791  -42.3685 H         1 UNK         0.0600 
    148 H148        2.5691  -23.0570  -43.5016 H         1 UNK         0.0600 
    149 H149        0.0614  -20.5231  -42.9666 H         1 UNK         0.3000 
    150 H150       -3.5202  -20.3427  -43.0502 H         1 UNK         0.0600 
    151 H151       -2.9915  -20.6087  -40.6483 H         1 UNK         0.0600 
    152 H152       -3.0918  -18.9041  -41.0650 H         1 UNK         0.0600 
    153 H153       -1.5208  -19.6654  -40.8308 H         1 UNK         0.0600 
    154 H154       -1.5209  -18.3091  -42.9841 H         1 UNK         0.3000 
    155 H155       -0.9296  -18.1714  -46.5262 H         1 UNK         0.0600 
    156 H156       -2.8404  -16.7049  -46.2583 H         1 UNK         0.0600 
    157 H157       -1.4060  -15.7458  -45.9244 H         1 UNK         0.0600 
    158 H158       -2.4131  -16.3109  -44.6001 H         1 UNK         0.0600 
    159 H159        0.1930  -16.7301  -44.3163 H         1 UNK         0.3000 
    160 H160        2.6936  -19.1516  -43.4914 H         1 UNK         0.0600 
    161 H161        3.1281  -16.3844  -44.6885 H         1 UNK         0.0600 
    162 H162        3.7158  -17.8801  -45.4092 H         1 UNK         0.0600 
    163 H163        4.2971  -17.3737  -43.8316 H         1 UNK         0.0600 
    164 H164        1.9288  -16.4714  -42.6177 H         1 UNK         0.3000 
    165 H165       -0.1724  -17.6248  -39.9915 H         1 UNK         0.0600 
    166 H166        1.3961  -16.3400  -38.5586 H         1 UNK         0.0600 
    167 H167        2.1015  -17.8901  -38.9873 H         1 UNK         0.0600 
    168 H168        2.6466  -16.4275  -39.7998 H         1 UNK         0.0600 
    169 H169        0.8139  -15.0348  -40.7046 H         1 UNK         0.3000 
    170 H170       -1.4547  -14.3085  -43.3209 H         1 UNK         0.0600 
    171 H171       -2.8901  -13.9009  -41.3181 H         1 UNK         0.0600 
    172 H172       -1.5090  -13.2534  -40.4408 H         1 UNK         0.0600 
    173 H173       -2.1289  -12.4154  -41.8641 H         1 UNK         0.0600 
    174 H174        0.4370  -12.7190  -41.8725 H         1 UNK         0.3000 
    175 H175        2.3719  -12.0685  -43.0085 H         1 UNK         0.0600 
    176 H176        3.6389  -14.7629  -42.2014 H         1 UNK         0.0600 
    177 H177        4.2870  -13.1717  -41.8190 H         1 UNK         0.0600 
    178 H178        2.7833  -13.6939  -41.0956 H         1 UNK         0.0600 
    179 H179        3.0455  -13.9118  -45.1043 H         1 UNK         0.3000 
    180 H180        6.0009  -12.0257  -46.1050 H         1 UNK         0.0600 
    181 H181        5.1831  -14.9666  -45.8313 H         1 UNK         0.0600 
    182 H182        6.6141  -14.2133  -45.1461 H         1 UNK         0.0600 
    183 H183        6.4443  -14.3414  -46.8901 H         1 UNK         0.0600 
    184 H184        3.7333  -13.5231  -47.2952 H         1 UNK         0.3000 
    185 H185        2.4738  -10.7129  -48.9876 H         1 UNK         0.0600 
    186 H186        2.9274  -11.9077  -51.1198 H         1 UNK         0.0600 
    187 H187        4.3867  -11.1225  -50.5376 H         1 UNK         0.0600 
    188 H188        4.1935  -12.8607  -50.3439 H         1 UNK         0.0600 
    189 H189        2.1057  -13.5652  -49.2703 H         1 UNK         0.3000 
    190 H190       -2.7488  -21.8312  -45.8248 H         1 UNK         0.3000 
    191 H191       -4.7167  -23.4148  -47.0782 H         1 UNK         0.0600 
    192 H192       -5.2116  -21.4195  -45.6798 H         1 UNK         0.0600 
    193 H193       -6.1187  -22.8198  -45.1266 H         1 UNK         0.0600 
    194 H194       -4.7035  -22.2861  -44.2320 H         1 UNK         0.0600 
    195 H195       -2.6937  -24.1518  -44.2244 H         1 UNK         0.3000 
    196 H196       -3.8750  -26.6827  -43.6199 H         1 UNK         0.0600 
    197 H197       -1.8363  -26.9830  -42.2168 H         1 UNK         0.0600 
    198 H198       -2.5330  -25.3856  -41.9870 H         1 UNK         0.0600 
    199 H199       -1.0881  -25.5829  -42.9754 H         1 UNK         0.0600 
    200 H200       -1.0403  -25.7822  -45.6341 H         1 UNK         0.3000 
    201 H201       -0.3717  -28.5430  -46.2783 H         1 UNK         0.0600 
    202 H202        1.3530  -26.7734  -45.9503 H         1 UNK         0.0600 
    203 H203        0.7095  -25.8733  -47.3218 H         1 UNK         0.0600 
    204 H204        1.4552  -27.4487  -47.5681 H         1 UNK         0.0600 
    205 H205       -2.6816  -26.4695  -47.5076 H         1 UNK         0.3000 
    206 H206       -4.0809  -26.4098  -49.1961 H         1 UNK         0.0600 
    207 H207       -2.6668  -28.7462  -50.5858 H         1 UNK         0.0600 
    208 H208       -4.0405  -28.8894  -49.4893 H         1 UNK         0.0600 
    209 H209       -4.2134  -28.0408  -51.0182 H         1 UNK         0.0600 
    210 H210       -0.7979  -27.0543  -50.3880 H         1 UNK         0.3000 
    211 H211        0.5913  -26.0008  -51.8352 H         1 UNK         0.0600 
    212 H212        1.2238  -23.7653  -50.8649 H         1 UNK         0.0600 
    213 H213        0.9573  -24.9790  -49.6284 H         1 UNK         0.0600 
    214 H214       -0.2733  -23.7616  -49.9302 H         1 UNK         0.0600 
    215 H215       -0.7640  -22.8693  -51.6246 H         1 UNK         0.3000 
    216 H216       -2.0593  -22.9764  -54.2979 H         1 UNK         0.0600 
    217 H217       -1.0130  -20.8162  -54.8758 H         1 UNK         0.0600 
    218 H218        0.2450  -21.9952  -54.5521 H         1 UNK         0.0600 
    219 H219       -0.1484  -20.7725  -53.3452 H         1 UNK         0.0600 
    220 H220       -3.1524  -23.1623  -51.5232 H         1 UNK         0.3000 
    221 H221       -4.4399  -20.6357  -50.9307 H         1 UNK         0.0600 
    222 H222       -5.1725  -23.4778  -50.0611 H         1 UNK         0.0600 
    223 H223       -4.0856  -22.3908  -49.1978 H         1 UNK         0.0600 
    224 H224       -5.7873  -21.9828  -49.3665 H         1 UNK         0.0600 
    225 H225       -6.2186  -19.8186  -51.8091 H         1 UNK         0.3000 
    226 H226       -7.8547  -19.3431  -53.1732 H         1 UNK         0.0600 
    227 H227       -9.0851  -21.2889  -52.1644 H         1 UNK         0.0600 
    228 H228       -9.5656  -20.9585  -53.8197 H         1 UNK         0.0600 
    229 H229       -8.5075  -22.3167  -53.4765 H         1 UNK         0.0600 
    230 H230       -5.0682  -20.1055  -54.1587 H         1 UNK         0.3000 
    231 H231       -5.7144  -19.8534  -57.0637 H         1 UNK         0.0600 
    232 H232       -3.3230  -21.3493  -55.8626 H         1 UNK         0.0600 
    233 H233       -3.6144  -21.0563  -57.5702 H         1 UNK         0.0600 
    234 H234       -4.7023  -22.0963  -56.6625 H         1 UNK         0.0600 
    235 H235       -3.2497  -19.2517  -54.4841 H         1 UNK         0.3000 
    236 H236       -2.1483  -16.9105  -55.8163 H         1 UNK         0.0600 
    237 H237       -0.7383  -18.2833  -54.3340 H         1 UNK         0.0600 
    238 H238       -0.9093  -16.6780  -53.6411 H         1 UNK         0.0600 
    239 H239       -1.8313  -18.0233  -52.9791 H         1 UNK         0.0600 
    240 H240       -4.1712  -17.4695  -52.9058 H         1 UNK         0.3000 
    241 H241       -5.1959  -14.7399  -52.8439 H         1 UNK         0.0600 
    242 H242       -8.3916  -15.1223  -54.3663 H         1 UNK         0.3800 
    243 H243       -7.4454  -14.1378  -53.2881 H         1 UNK         0.3800 
    244 H244       -5.1564  -15.5101  -50.6748 H         1 UNK         0.0800 
    245 H245       -6.7982  -15.8192  -51.0656 H         1 UNK         0.0800 
    246 H246       -4.5367  -18.6937  -48.8407 H         1 UNK         0.0800 
    247 H247       -4.7127  -16.9649  -48.7794 H         1 UNK         0.0800 
@<TRIPOS>BOND
     1    1    2 1    
     2    1  127 1    
     3    1  128 1    
     4    1  129 1    
     5    2    3 2    
     6    2    4 am   BACKBONE|DICT|INTERRES
     7    4    5 1    
     8    4  130 1    
     9    5    6 1    
    10    5   65 1    
    11    5  131 1    
    12    6    7 1    
    13    6  132 1    
    14    6  133 1    
    15    7    8 1    
    16    8    9 1    
    17    8  134 1    
    18    8  135 1    
    19    9   10 ar   
    20    9   14 ar   
    21   10   11 ar   
    22   10  136 1    
    23   11   12 ar   
    24   11  126 1    
    25   12   13 ar   
    26   12  137 1    
    27   13   14 ar   
    28   13   15 1    
    29   14  138 1    
    30   15   16 1    
    31   15  139 1    
    32   15  140 1    
    33   16   17 1    
    34   17   18 1    
    35   17  141 1    
    36   17  142 1    
    37   18   19 1    
    38   18   67 1    
    39   18  143 1    
    40   19   20 am   BACKBONE|DICT|INTERRES
    41   19  144 1    
    42   20   21 2    
    43   20   22 1    
    44   22   23 1    
    45   22   24 1    
    46   22  145 1    
    47   23  146 1    
    48   23  147 1    
    49   23  148 1    
    50   24   25 am   BACKBONE|DICT|INTERRES
    51   24  149 1    
    52   25   26 2    
    53   25   27 1    
    54   27   28 1    
    55   27   29 1    
    56   27  150 1    
    57   28  151 1    
    58   28  152 1    
    59   28  153 1    
    60   29   30 am   BACKBONE|DICT|INTERRES
    61   29  154 1    
    62   30   31 2    
    63   30   32 1    
    64   32   33 1    
    65   32   34 1    
    66   32  155 1    
    67   33  156 1    
    68   33  157 1    
    69   33  158 1    
    70   34   35 am   BACKBONE|DICT|INTERRES
    71   34  159 1    
    72   35   36 2    
    73   35   37 1    
    74   37   38 1    
    75   37   39 1    
    76   37  160 1    
    77   38  161 1    
    78   38  162 1    
    79   38  163 1    
    80   39   40 am   BACKBONE|DICT|INTERRES
    81   39  164 1    
    82   40   41 2    
    83   40   42 1    
    84   42   43 1    
    85   42   44 1    
    86   42  165 1    
    87   43  166 1    
    88   43  167 1    
    89   43  168 1    
    90   44   45 am   BACKBONE|DICT|INTERRES
    91   44  169 1    
    92   45   46 2    
    93   45   47 1    
    94   47   48 1    
    95   47   49 1    
    96   47  170 1    
    97   48  171 1    
    98   48  172 1    
    99   48  173 1    
   100   49   50 am   BACKBONE|DICT|INTERRES
   101   49  174 1    
   102   50   51 2    
   103   50   52 1    
   104   52   53 1    
   105   52   54 1    
   106   52  175 1    
   107   53  176 1    
   108   53  177 1    
   109   53  178 1    
   110   54   55 am   BACKBONE|DICT|INTERRES
   111   54  179 1    
   112   55   56 2    
   113   55   57 1    
   114   57   58 1    
   115   57   59 1    
   116   57  180 1    
   117   58  181 1    
   118   58  182 1    
   119   58  183 1    
   120   59   60 am   BACKBONE|DICT|INTERRES
   121   59  184 1    
   122   60   61 2    
   123   60   62 1    
   124   62   63 1    
   125   62   64 1    
   126   62  185 1    
   127   63  186 1    
   128   63  187 1    
   129   63  188 1    
   130   64   65 am   BACKBONE|DICT|INTERRES
   131   64  189 1    
   132   65   66 2    
   133   67   68 2    
   134   67   69 am   BACKBONE|DICT|INTERRES
   135   69   70 1    
   136   69  190 1    
   137   70   71 1    
   138   70   72 1    
   139   70  191 1    
   140   71  192 1    
   141   71  193 1    
   142   71  194 1    
   143   72   73 2    
   144   72   74 am   BACKBONE|DICT|INTERRES
   145   74   75 1    
   146   74  195 1    
   147   75   76 1    
   148   75   77 1    
   149   75  196 1    
   150   76  197 1    
   151   76  198 1    
   152   76  199 1    
   153   77   78 2    
   154   77   79 am   BACKBONE|DICT|INTERRES
   155   79   80 1    
   156   79  200 1    
   157   80   81 1    
   158   80   82 1    
   159   80  201 1    
   160   81  202 1    
   161   81  203 1    
   162   81  204 1    
   163   82   83 2    
   164   82   84 am   BACKBONE|DICT|INTERRES
   165   84   85 1    
   166   84  205 1    
   167   85   86 1    
   168   85   87 1    
   169   85  206 1    
   170   86  207 1    
   171   86  208 1    
   172   86  209 1    
   173   87   88 2    
   174   87   89 am   BACKBONE|DICT|INTERRES
   175   89   90 1    
   176   89  210 1    
   177   90   91 1    
   178   90   92 1    
   179   90  211 1    
   180   91  212 1    
   181   91  213 1    
   182   91  214 1    
   183   92   93 2    
   184   92   94 am   BACKBONE|DICT|INTERRES
   185   94   95 1    
   186   94  215 1    
   187   95   96 1    
   188   95   97 1    
   189   95  216 1    
   190   96  217 1    
   191   96  218 1    
   192   96  219 1    
   193   97   98 2    
   194   97   99 am   BACKBONE|DICT|INTERRES
   195   99  100 1    
   196   99  220 1    
   197  100  101 1    
   198  100  102 1    
   199  100  221 1    
   200  101  222 1    
   201  101  223 1    
   202  101  224 1    
   203  102  103 2    
   204  102  104 am   BACKBONE|DICT|INTERRES
   205  104  105 1    
   206  104  225 1    
   207  105  106 1    
   208  105  107 1    
   209  105  226 1    
   210  106  227 1    
   211  106  228 1    
   212  106  229 1    
   213  107  108 2    
   214  107  109 am   BACKBONE|DICT|INTERRES
   215  109  110 1    
   216  109  230 1    
   217  110  111 1    
   218  110  112 1    
   219  110  231 1    
   220  111  232 1    
   221  111  233 1    
   222  111  234 1    
   223  112  113 2    
   224  112  114 am   BACKBONE|DICT|INTERRES
   225  114  115 1    
   226  114  235 1    
   227  115  116 1    
   228  115  117 1    
   229  115  236 1    
   230  116  237 1    
   231  116  238 1    
   232  116  239 1    
   233  117  118 2    
   234  117  119 am   BACKBONE|DICT|INTERRES
   235  119  120 1    
   236  119  240 1    
   237  120  121 1    
   238  120  124 1    
   239  120  241 1    
   240  121  122 am   BACKBONE|DICT|INTERRES
   241  121  123 2    
   242  122  242 1    
   243  122  243 1    
   244  124  125 1    
   245  124  244 1    
   246  124  245 1    
   247  125  126 1    
   248  126  246 1    
   249  126  247 1    
@<TRIPOS>SUBSTRUCTURE
     1 UNK         1 GROUP             0       ****    0 ROOT    
