@<TRIPOS>MOLECULE
3R540
247   249    1
SMALL
USER_CHARGES


@<TRIPOS>ATOM
      1 CA          1.7158  -20.8582  -45.9242 C.3       0 UNK        -0.1800 
      2 C           2.3589  -19.8548  -46.8727 C.2       0 UNK         0.5000 
      3 O           3.1695  -20.2530  -47.7068 O.2       0 UNK        -0.5000 
      4 N           1.9974  -18.5685  -46.7433 N.am      1 UNK        -0.5000 
      5 CA          2.5617  -17.4225  -47.4708 C.3       1 UNK         0.1400 
      6 C6          2.3081  -17.4872  -49.0011 C.3       23 UNK        -0.0398 
      7 S7          2.7003  -15.9376  -49.8923 S.3       23 UNK        -0.2404 
      8 C8          1.1425  -14.9883  -49.8165 C.3       23 UNK        -0.0205 
      9 C9         -0.0595  -15.7196  -50.4036 C.ar      23 UNK        -0.0193 
     10 C10         0.0079  -16.3420  -51.6543 C.ar      23 UNK        -0.1150 
     11 C11        -1.0840  -17.0560  -52.1601 C.ar      23 UNK        -0.0193 
     12 C12        -2.2605  -17.1304  -51.4048 C.ar      23 UNK        -0.1150 
     13 C13        -2.3467  -16.4939  -50.1628 C.ar      23 UNK        -0.0193 
     14 C14        -1.2479  -15.7824  -49.6749 C.ar      23 UNK        -0.1150 
     15 C15        -3.6001  -16.6152  -49.3083 C.3       23 UNK        -0.0205 
     16 S16        -3.6764  -18.2017  -48.4126 S.3       23 UNK        -0.2404 
     17 C17        -1.9849  -18.3354  -47.7295 C.3       23 UNK        -0.0398 
     18 CA         -1.7068  -19.5713  -46.8417 C.3       11 UNK         0.1400 
     19 N          -2.2964  -19.4576  -45.5020 N.am      11 UNK        -0.5000 
     20 C          -3.5504  -19.6959  -45.0929 C.2       10 UNK         0.5000 
     21 O          -4.4307  -20.2106  -45.7805 O.2       10 UNK        -0.5000 
     22 CA         -3.8610  -19.2947  -43.6425 C.3       10 UNK         0.1400 
     23 CB         -3.1966  -20.2672  -42.6548 C.3       10 UNK        -0.1800 
     24 N          -3.4443  -17.9226  -43.3447 N.am      10 UNK        -0.5000 
     25 C          -4.0642  -16.8319  -43.8203 C.2       9 UNK         0.5000 
     26 O          -5.0412  -16.8715  -44.5689 O.2       9 UNK        -0.5000 
     27 CA         -3.5247  -15.4647  -43.3657 C.3       9 UNK         0.1400 
     28 CB         -3.9448  -15.1701  -41.9171 C.3       9 UNK        -0.1800 
     29 N          -2.0724  -15.3566  -43.4866 N.am      9 UNK        -0.5000 
     30 C          -1.4129  -15.2292  -44.6465 C.2       8 UNK         0.5000 
     31 O          -1.9625  -15.1678  -45.7461 O.2       8 UNK        -0.5000 
     32 CA          0.1251  -15.1699  -44.5679 C.3       8 UNK         0.1400 
     33 CB          0.6062  -13.7415  -44.2748 C.3       8 UNK        -0.1800 
     34 N           0.6750  -16.0823  -43.5658 N.am      8 UNK        -0.5000 
     35 C           0.5986  -17.4166  -43.6404 C.2       7 UNK         0.5000 
     36 O           0.1379  -18.0207  -44.6087 O.2       7 UNK        -0.5000 
     37 CA          1.1075  -18.2123  -42.4295 C.3       7 UNK         0.1400 
     38 CB          2.6256  -18.4175  -42.5223 C.3       7 UNK        -0.1800 
     39 N           0.7686  -17.5648  -41.1621 N.am      7 UNK        -0.5000 
     40 C          -0.4764  -17.4713  -40.6733 C.2       6 UNK         0.5000 
     41 O          -1.4681  -17.9337  -41.2358 O.2       6 UNK        -0.5000 
     42 CA         -0.6465  -16.6895  -39.3587 C.3       6 UNK         0.1400 
     43 CB         -0.2902  -17.5704  -38.1521 C.3       6 UNK        -0.1800 
     44 N           0.1587  -15.4683  -39.3258 N.am      6 UNK        -0.5000 
     45 C          -0.0293  -14.4172  -40.1362 C.2       5 UNK         0.5000 
     46 O          -0.9245  -14.3538  -40.9773 O.2       5 UNK        -0.5000 
     47 CA          0.9846  -13.2649  -40.0220 C.3       5 UNK         0.1400 
     48 CB          0.5538  -12.2725  -38.9319 C.3       5 UNK        -0.1800 
     49 N           2.3553  -13.7135  -39.7589 N.am      5 UNK        -0.5000 
     50 C           3.0650  -14.5074  -40.5711 C.2       4 UNK         0.5000 
     51 O           2.6145  -15.0126  -41.6020 O.2       4 UNK        -0.5000 
     52 CA          4.5075  -14.8228  -40.1402 C.3       4 UNK         0.1400 
     53 CB          4.6110  -16.2639  -39.6172 C.3       4 UNK        -0.1800 
     54 N           5.4323  -14.6490  -41.2577 N.am      4 UNK        -0.5000 
     55 C           5.7685  -13.4656  -41.7901 C.2       3 UNK         0.5000 
     56 O           5.4194  -12.3822  -41.3187 O.2       3 UNK        -0.5000 
     57 CA          6.6442  -13.4885  -43.0601 C.3       3 UNK         0.1400 
     58 CB          8.1187  -13.2494  -42.6995 C.3       3 UNK        -0.1800 
     59 N           6.5396  -14.7293  -43.8350 N.am      3 UNK        -0.5000 
     60 C           5.4412  -15.1294  -44.4889 C.2       2 UNK         0.5000 
     61 O           4.3892  -14.4858  -44.5133 O.2       2 UNK        -0.5000 
     62 CA          5.5418  -16.4674  -45.2405 C.3       2 UNK         0.1400 
     63 CB          5.9627  -17.6241  -44.3145 C.3       2 UNK        -0.1800 
     64 N           4.2439  -16.7778  -45.8318 N.am      2 UNK        -0.5000 
     65 C           4.0430  -17.2265  -47.0745 C.2       1 UNK         0.5000 
     66 O           4.9536  -17.5091  -47.8559 O.2       1 UNK        -0.5000 
     67 C          -1.8577  -20.9139  -47.5967 C.2       11 UNK         0.5000 
     68 O          -1.4568  -20.9856  -48.7594 O.2       11 UNK        -0.5000 
     69 N          -2.3796  -21.9601  -46.9414 N.am      12 UNK        -0.5000 
     70 CA         -2.8124  -23.2246  -47.5449 C.3       12 UNK         0.1400 
     71 CB         -3.3797  -24.1390  -46.4503 C.3       12 UNK        -0.1800 
     72 C          -1.7475  -23.9683  -48.3717 C.2       12 UNK         0.5000 
     73 O          -2.0941  -24.5864  -49.3792 O.2       12 UNK        -0.5000 
     74 N          -0.4786  -23.8715  -47.9540 N.am      13 UNK        -0.5000 
     75 CA          0.6683  -24.4635  -48.6464 C.3       13 UNK         0.1400 
     76 CB          1.9036  -24.3847  -47.7363 C.3       13 UNK        -0.1800 
     77 C           0.9651  -23.8124  -50.0123 C.2       13 UNK         0.5000 
     78 O           1.4568  -24.4970  -50.9100 O.2       13 UNK        -0.5000 
     79 N           0.6579  -22.5157  -50.1479 N.am      14 UNK        -0.5000 
     80 CA          0.8130  -21.7527  -51.3851 C.3       14 UNK         0.1400 
     81 CB          1.2084  -20.3079  -51.0433 C.3       14 UNK        -0.1800 
     82 C          -0.4852  -21.7738  -52.2035 C.2       14 UNK         0.5000 
     83 O          -0.4415  -21.9764  -53.4165 O.2       14 UNK        -0.5000 
     84 N          -1.6185  -21.5800  -51.5163 N.am      15 UNK        -0.5000 
     85 CA         -2.9668  -21.4614  -52.0724 C.3       15 UNK         0.1400 
     86 CB         -3.8739  -20.8559  -50.9938 C.3       15 UNK        -0.1800 
     87 C          -3.5743  -22.7673  -52.6206 C.2       15 UNK         0.5000 
     88 O          -4.6918  -22.7180  -53.1377 O.2       15 UNK        -0.5000 
     89 N          -2.8475  -23.8864  -52.4966 N.am      16 UNK        -0.5000 
     90 CA         -3.1935  -25.2392  -52.9400 C.3       16 UNK         0.1400 
     91 CB         -3.4528  -25.2851  -54.4610 C.3       16 UNK        -0.1800 
     92 C          -4.3498  -25.8191  -52.1077 C.2       16 UNK         0.5000 
     93 O          -5.4506  -26.0220  -52.6198 O.2       16 UNK        -0.5000 
     94 N          -4.0731  -26.0328  -50.8138 N.am      17 UNK        -0.5000 
     95 CA         -4.9910  -26.5298  -49.7814 C.3       17 UNK         0.1400 
     96 CB         -5.4843  -27.9567  -50.1019 C.3       17 UNK        -0.1800 
     97 C          -6.1339  -25.5365  -49.4901 C.2       17 UNK         0.5000 
     98 O          -7.2657  -25.9459  -49.2283 O.2       17 UNK        -0.5000 
     99 N          -5.7940  -24.2399  -49.5488 N.am      18 UNK        -0.5000 
    100 CA        -6.6636  -23.0784  -49.3319 C.3       18 UNK         0.1400 
    101 CB        -7.2145  -23.0531  -47.8909 C.3       18 UNK        -0.1800 
    102 C         -7.7603  -22.9138  -50.4066 C.2       18 UNK         0.5000 
    103 O         -8.7888  -22.2900  -50.1409 O.2       18 UNK        -0.5000 
    104 N         -7.5110  -23.4373  -51.6166 N.am      19 UNK        -0.5000 
    105 CA        -8.3704  -23.2613  -52.7911 C.3       19 UNK         0.1400 
    106 CB        -7.9847  -24.3042  -53.8511 C.3       19 UNK        -0.1800 
    107 C         -8.2868  -21.8427  -53.3902 C.2       19 UNK         0.5000 
    108 O         -9.1904  -21.4447  -54.1257 O.2       19 UNK        -0.5000 
    109 N         -7.1954  -21.1274  -53.0771 N.am      20 UNK        -0.5000 
    110 CA        -6.8039  -19.8071  -53.5827 C.3       20 UNK         0.1400 
    111 CB        -7.8521  -18.7285  -53.2394 C.3       20 UNK        -0.1800 
    112 C         -6.4202  -19.8412  -55.0753 C.2       20 UNK         0.5000 
    113 O         -6.5644  -18.8379  -55.7755 O.2       20 UNK        -0.5000 
    114 N         -5.9197  -20.9988  -55.5309 N.am      21 UNK        -0.5000 
    115 CA        -5.4148  -21.2032  -56.8885 C.3       21 UNK         0.1400 
    116 CB        -5.3648  -22.7103  -57.1814 C.3       21 UNK        -0.1800 
    117 C         -4.0266  -20.5670  -57.0865 C.2       21 UNK         0.5000 
    118 O         -3.7298  -20.0938  -58.1832 O.2       21 UNK        -0.5000 
    119 N         -3.2294  -20.5630  -56.0089 N.am      22 UNK        -0.5000 
    120 CA        -1.8469  -20.0755  -55.9080 C.3       22 UNK         0.1400 
    121 C         -0.8650  -20.8583  -56.8224 C.2       22 UNK         0.5000 
    122 N         -0.1861  -21.8596  -56.2796 N.am      22 UNK        -0.7600 
    123 O         -0.6872  -20.5509  -57.9981 O.2       22 UNK        -0.5000 
    124 C124       -1.7151  -18.5366  -56.0569 C.3       23 UNK        -0.0398 
    125 S125       -2.3733  -17.6548  -54.5983 S.3       23 UNK        -0.2404 
    126 C126       -0.9371  -17.8039  -53.4806 C.3       23 UNK        -0.0205 
    127 H127        1.0071  -21.4839  -46.4648 H         1 UNK         0.0600 
    128 H128        1.1887  -20.3715  -45.1048 H         1 UNK         0.0600 
    129 H129        2.4788  -21.5049  -45.4909 H         1 UNK         0.0600 
    130 H130        1.3208  -18.3301  -46.0224 H         1 UNK         0.3000 
    131 H131        2.0226  -16.5492  -47.1015 H         1 UNK         0.0600 
    132 H132        1.2688  -17.7544  -49.1911 H         1 UNK         0.0800 
    133 H133        2.9029  -18.2821  -49.4515 H         1 UNK         0.0800 
    134 H134        1.2774  -14.0522  -50.3595 H         1 UNK         0.0800 
    135 H135        0.9578  -14.7153  -48.7763 H         1 UNK         0.0800 
    136 H136        0.9282  -16.2965  -52.2195 H         1 UNK         0.1150 
    137 H137       -3.1016  -17.7013  -51.7711 H         1 UNK         0.1150 
    138 H138       -1.3102  -15.3068  -48.7054 H         1 UNK         0.1150 
    139 H139       -3.6463  -15.8004  -48.5835 H         1 UNK         0.0800 
    140 H140       -4.4862  -16.5171  -49.9368 H         1 UNK         0.0800 
    141 H141       -1.7687  -17.4270  -47.1670 H         1 UNK         0.0800 
    142 H142       -1.2785  -18.3426  -48.5606 H         1 UNK         0.0800 
    143 H143       -0.6399  -19.5337  -46.6390 H         1 UNK         0.0600 
    144 H144       -1.6721  -19.0241  -44.8314 H         1 UNK         0.3000 
    145 H145       -4.9420  -19.3614  -43.5013 H         1 UNK         0.0600 
    146 H146       -3.4744  -20.0327  -41.6270 H         1 UNK         0.0600 
    147 H147       -3.5065  -21.2948  -42.8488 H         1 UNK         0.0600 
    148 H148       -2.1084  -20.2330  -42.7205 H         1 UNK         0.0600 
    149 H149       -2.6721  -17.8122  -42.6921 H         1 UNK         0.3000 
    150 H150       -3.9756  -14.7017  -44.0040 H         1 UNK         0.0600 
    151 H151       -5.0263  -15.2478  -41.7992 H         1 UNK         0.0600 
    152 H152       -3.6580  -14.1605  -41.6226 H         1 UNK         0.0600 
    153 H153       -3.4857  -15.8658  -41.2138 H         1 UNK         0.0600 
    154 H154       -1.5471  -15.3225  -42.6192 H         1 UNK         0.3000 
    155 H155        0.5164  -15.4644  -45.5432 H         1 UNK         0.0600 
    156 H156        0.2434  -13.3844  -43.3110 H         1 UNK         0.0600 
    157 H157        0.2532  -13.0466  -45.0375 H         1 UNK         0.0600 
    158 H158        1.6951  -13.6872  -44.2619 H         1 UNK         0.0600 
    159 H159        1.1378  -15.6628  -42.7645 H         1 UNK         0.3000 
    160 H160        0.6288  -19.1937  -42.4510 H         1 UNK         0.0600 
    161 H161        2.9949  -19.0211  -41.6932 H         1 UNK         0.0600 
    162 H162        3.1585  -17.4670  -42.5101 H         1 UNK         0.0600 
    163 H163        2.8957  -18.9325  -43.4453 H         1 UNK         0.0600 
    164 H164        1.5192  -17.1004  -40.6732 H         1 UNK         0.3000 
    165 H165       -1.6975  -16.4046  -39.2750 H         1 UNK         0.0600 
    166 H166       -0.4845  -17.0505  -37.2138 H         1 UNK         0.0600 
    167 H167       -0.8876  -18.4832  -38.1462 H         1 UNK         0.0600 
    168 H168        0.7600  -17.8651  -38.1617 H         1 UNK         0.0600 
    169 H169        0.9205  -15.4369  -38.6647 H         1 UNK         0.3000 
    170 H170        0.9893  -12.7380  -40.9783 H         1 UNK         0.0600 
    171 H171       -0.4579  -11.9074  -39.1144 H         1 UNK         0.0600 
    172 H172        0.5640  -12.7305  -37.9421 H         1 UNK         0.0600 
    173 H173        1.2113  -11.4033  -38.9073 H         1 UNK         0.0600 
    174 H174        2.7950  -13.3453  -38.9276 H         1 UNK         0.3000 
    175 H175        4.8014  -14.1422  -39.3382 H         1 UNK         0.0600 
    176 H176        4.3605  -16.9938  -40.3875 H         1 UNK         0.0600 
    177 H177        5.6193  -16.4829  -39.2654 H         1 UNK         0.0600 
    178 H178        3.9330  -16.4256  -38.7782 H         1 UNK         0.0600 
    179 H179        5.7387  -15.4868  -41.7275 H         1 UNK         0.3000 
    180 H180        6.3121  -12.6659  -43.6971 H         1 UNK         0.0600 
    181 H181        8.5165  -14.0529  -42.0784 H         1 UNK         0.0600 
    182 H182        8.2399  -12.3168  -42.1466 H         1 UNK         0.0600 
    183 H183        8.7377  -13.1768  -43.5940 H         1 UNK         0.0600 
    184 H184        7.3683  -15.3054  -43.8695 H         1 UNK         0.3000 
    185 H185        6.2934  -16.3422  -46.0227 H         1 UNK         0.0600 
    186 H186        6.9831  -17.4930  -43.9536 H         1 UNK         0.0600 
    187 H187        5.3145  -17.7023  -43.4426 H         1 UNK         0.0600 
    188 H188        5.9310  -18.5790  -44.8396 H         1 UNK         0.0600 
    189 H189        3.4531  -16.4876  -45.2732 H         1 UNK         0.3000 
    190 H190       -2.6964  -21.7918  -45.9977 H         1 UNK         0.3000 
    191 H191       -3.6266  -22.9772  -48.2262 H         1 UNK         0.0600 
    192 H192       -3.7508  -25.0740  -46.8718 H         1 UNK         0.0600 
    193 H193       -4.2144  -23.6647  -45.9337 H         1 UNK         0.0600 
    194 H194       -2.6236  -24.3905  -45.7055 H         1 UNK         0.0600 
    195 H195       -0.2888  -23.3473  -47.1135 H         1 UNK         0.3000 
    196 H196        0.4441  -25.5174  -48.8252 H         1 UNK         0.0600 
    197 H197        2.7559  -24.8878  -48.1949 H         1 UNK         0.0600 
    198 H198        1.7213  -24.8673  -46.7761 H         1 UNK         0.0600 
    199 H199        2.1999  -23.3528  -47.5460 H         1 UNK         0.0600 
    200 H200        0.1912  -22.0424  -49.3836 H         1 UNK         0.3000 
    201 H201        1.6085  -22.1847  -51.9960 H         1 UNK         0.0600 
    202 H202        2.1453  -20.2864  -50.4872 H         1 UNK         0.0600 
    203 H203        0.4492  -19.8076  -50.4405 H         1 UNK         0.0600 
    204 H204        1.3528  -19.7152  -51.9473 H         1 UNK         0.0600 
    205 H205       -1.5440  -21.4086  -50.5155 H         1 UNK         0.3000 
    206 H206       -2.9263  -20.7595  -52.9066 H         1 UNK         0.0600 
    207 H207       -3.5385  -19.8528  -50.7390 H         1 UNK         0.0600 
    208 H208       -4.9089  -20.7740  -51.3207 H         1 UNK         0.0600 
    209 H209       -3.8628  -21.4506  -50.0815 H         1 UNK         0.0600 
    210 H210       -1.9612  -23.8004  -52.0196 H         1 UNK         0.3000 
    211 H211       -2.3186  -25.8604  -52.7424 H         1 UNK         0.0600 
    212 H212       -2.6278  -24.8396  -55.0170 H         1 UNK         0.0600 
    213 H213       -4.3669  -24.7603  -54.7373 H         1 UNK         0.0600 
    214 H214       -3.5592  -26.3152  -54.8023 H         1 UNK         0.0600 
    215 H215       -3.1630  -25.7393  -50.4661 H         1 UNK         0.3000 
    216 H216       -4.4051  -26.5892  -48.8633 H         1 UNK         0.0600 
    217 H217       -6.0348  -28.3764  -49.2592 H         1 UNK         0.0600 
    218 H218       -4.6488  -28.6257  -50.3078 H         1 UNK         0.0600 
    219 H219       -6.1501  -27.9746  -50.9651 H         1 UNK         0.0600 
    220 H220       -4.8411  -24.0352  -49.8115 H         1 UNK         0.3000 
    221 H221       -6.0242  -22.2023  -49.4368 H         1 UNK         0.0600 
    222 H222       -7.9341  -23.8529  -47.7152 H         1 UNK         0.0600 
    223 H223       -6.4123  -23.1547  -47.1603 H         1 UNK         0.0600 
    224 H224       -7.7201  -22.1096  -47.6823 H         1 UNK         0.0600 
    225 H225       -6.6568  -23.9587  -51.7631 H         1 UNK         0.3000 
    226 H226       -9.4066  -23.4379  -52.4955 H         1 UNK         0.0600 
    227 H227       -8.6229  -24.2241  -54.7319 H         1 UNK         0.0600 
    228 H228       -6.9523  -24.1793  -54.1810 H         1 UNK         0.0600 
    229 H229       -8.0912  -25.3177  -53.4638 H         1 UNK         0.0600 
    230 H230       -6.4879  -21.6121  -52.5407 H         1 UNK         0.3000 
    231 H231       -5.8881  -19.5392  -53.0555 H         1 UNK         0.0600 
    232 H232       -8.1061  -18.7491  -52.1796 H         1 UNK         0.0600 
    233 H233       -8.7725  -18.8573  -53.8091 H         1 UNK         0.0600 
    234 H234       -7.4708  -17.7312  -53.4615 H         1 UNK         0.0600 
    235 H235       -5.8240  -21.7702  -54.8823 H         1 UNK         0.3000 
    236 H236       -6.1063  -20.7392  -57.5952 H         1 UNK         0.0600 
    237 H237       -6.3455  -23.1704  -57.0581 H         1 UNK         0.0600 
    238 H238       -5.0437  -22.8967  -58.2069 H         1 UNK         0.0600 
    239 H239       -4.6664  -23.2247  -56.5213 H         1 UNK         0.0600 
    240 H240       -3.5959  -20.9951  -55.1757 H         1 UNK         0.3000 
    241 H241       -1.5536  -20.3067  -54.8879 H         1 UNK         0.0600 
    242 H242       -0.2807  -22.0716  -55.2884 H         1 UNK         0.3800 
    243 H243        0.4669  -22.3814  -56.8423 H         1 UNK         0.3800 
    244 H244       -0.6716  -18.2452  -56.1891 H         1 UNK         0.0800 
    245 H245       -2.2343  -18.1857  -56.9494 H         1 UNK         0.0800 
    246 H246       -0.0498  -17.4522  -54.0094 H         1 UNK         0.0800 
    247 H247       -0.7648  -18.8553  -53.2521 H         1 UNK         0.0800 
@<TRIPOS>BOND
     1    1    2 1    
     2    1  127 1    
     3    1  128 1    
     4    1  129 1    
     5    2    3 2    
     6    2    4 am   BACKBONE|DICT|INTERRES
     7    4    5 1    
     8    4  130 1    
     9    5    6 1    
    10    5   65 1    
    11    5  131 1    
    12    6    7 1    
    13    6  132 1    
    14    6  133 1    
    15    7    8 1    
    16    8    9 1    
    17    8  134 1    
    18    8  135 1    
    19    9   10 ar   
    20    9   14 ar   
    21   10   11 ar   
    22   10  136 1    
    23   11   12 ar   
    24   11  126 1    
    25   12   13 ar   
    26   12  137 1    
    27   13   14 ar   
    28   13   15 1    
    29   14  138 1    
    30   15   16 1    
    31   15  139 1    
    32   15  140 1    
    33   16   17 1    
    34   17   18 1    
    35   17  141 1    
    36   17  142 1    
    37   18   19 1    
    38   18   67 1    
    39   18  143 1    
    40   19   20 am   BACKBONE|DICT|INTERRES
    41   19  144 1    
    42   20   21 2    
    43   20   22 1    
    44   22   23 1    
    45   22   24 1    
    46   22  145 1    
    47   23  146 1    
    48   23  147 1    
    49   23  148 1    
    50   24   25 am   BACKBONE|DICT|INTERRES
    51   24  149 1    
    52   25   26 2    
    53   25   27 1    
    54   27   28 1    
    55   27   29 1    
    56   27  150 1    
    57   28  151 1    
    58   28  152 1    
    59   28  153 1    
    60   29   30 am   BACKBONE|DICT|INTERRES
    61   29  154 1    
    62   30   31 2    
    63   30   32 1    
    64   32   33 1    
    65   32   34 1    
    66   32  155 1    
    67   33  156 1    
    68   33  157 1    
    69   33  158 1    
    70   34   35 am   BACKBONE|DICT|INTERRES
    71   34  159 1    
    72   35   36 2    
    73   35   37 1    
    74   37   38 1    
    75   37   39 1    
    76   37  160 1    
    77   38  161 1    
    78   38  162 1    
    79   38  163 1    
    80   39   40 am   BACKBONE|DICT|INTERRES
    81   39  164 1    
    82   40   41 2    
    83   40   42 1    
    84   42   43 1    
    85   42   44 1    
    86   42  165 1    
    87   43  166 1    
    88   43  167 1    
    89   43  168 1    
    90   44   45 am   BACKBONE|DICT|INTERRES
    91   44  169 1    
    92   45   46 2    
    93   45   47 1    
    94   47   48 1    
    95   47   49 1    
    96   47  170 1    
    97   48  171 1    
    98   48  172 1    
    99   48  173 1    
   100   49   50 am   BACKBONE|DICT|INTERRES
   101   49  174 1    
   102   50   51 2    
   103   50   52 1    
   104   52   53 1    
   105   52   54 1    
   106   52  175 1    
   107   53  176 1    
   108   53  177 1    
   109   53  178 1    
   110   54   55 am   BACKBONE|DICT|INTERRES
   111   54  179 1    
   112   55   56 2    
   113   55   57 1    
   114   57   58 1    
   115   57   59 1    
   116   57  180 1    
   117   58  181 1    
   118   58  182 1    
   119   58  183 1    
   120   59   60 am   BACKBONE|DICT|INTERRES
   121   59  184 1    
   122   60   61 2    
   123   60   62 1    
   124   62   63 1    
   125   62   64 1    
   126   62  185 1    
   127   63  186 1    
   128   63  187 1    
   129   63  188 1    
   130   64   65 am   BACKBONE|DICT|INTERRES
   131   64  189 1    
   132   65   66 2    
   133   67   68 2    
   134   67   69 am   BACKBONE|DICT|INTERRES
   135   69   70 1    
   136   69  190 1    
   137   70   71 1    
   138   70   72 1    
   139   70  191 1    
   140   71  192 1    
   141   71  193 1    
   142   71  194 1    
   143   72   73 2    
   144   72   74 am   BACKBONE|DICT|INTERRES
   145   74   75 1    
   146   74  195 1    
   147   75   76 1    
   148   75   77 1    
   149   75  196 1    
   150   76  197 1    
   151   76  198 1    
   152   76  199 1    
   153   77   78 2    
   154   77   79 am   BACKBONE|DICT|INTERRES
   155   79   80 1    
   156   79  200 1    
   157   80   81 1    
   158   80   82 1    
   159   80  201 1    
   160   81  202 1    
   161   81  203 1    
   162   81  204 1    
   163   82   83 2    
   164   82   84 am   BACKBONE|DICT|INTERRES
   165   84   85 1    
   166   84  205 1    
   167   85   86 1    
   168   85   87 1    
   169   85  206 1    
   170   86  207 1    
   171   86  208 1    
   172   86  209 1    
   173   87   88 2    
   174   87   89 am   BACKBONE|DICT|INTERRES
   175   89   90 1    
   176   89  210 1    
   177   90   91 1    
   178   90   92 1    
   179   90  211 1    
   180   91  212 1    
   181   91  213 1    
   182   91  214 1    
   183   92   93 2    
   184   92   94 am   BACKBONE|DICT|INTERRES
   185   94   95 1    
   186   94  215 1    
   187   95   96 1    
   188   95   97 1    
   189   95  216 1    
   190   96  217 1    
   191   96  218 1    
   192   96  219 1    
   193   97   98 2    
   194   97   99 am   BACKBONE|DICT|INTERRES
   195   99  100 1    
   196   99  220 1    
   197  100  101 1    
   198  100  102 1    
   199  100  221 1    
   200  101  222 1    
   201  101  223 1    
   202  101  224 1    
   203  102  103 2    
   204  102  104 am   BACKBONE|DICT|INTERRES
   205  104  105 1    
   206  104  225 1    
   207  105  106 1    
   208  105  107 1    
   209  105  226 1    
   210  106  227 1    
   211  106  228 1    
   212  106  229 1    
   213  107  108 2    
   214  107  109 am   BACKBONE|DICT|INTERRES
   215  109  110 1    
   216  109  230 1    
   217  110  111 1    
   218  110  112 1    
   219  110  231 1    
   220  111  232 1    
   221  111  233 1    
   222  111  234 1    
   223  112  113 2    
   224  112  114 am   BACKBONE|DICT|INTERRES
   225  114  115 1    
   226  114  235 1    
   227  115  116 1    
   228  115  117 1    
   229  115  236 1    
   230  116  237 1    
   231  116  238 1    
   232  116  239 1    
   233  117  118 2    
   234  117  119 am   BACKBONE|DICT|INTERRES
   235  119  120 1    
   236  119  240 1    
   237  120  121 1    
   238  120  124 1    
   239  120  241 1    
   240  121  122 am   BACKBONE|DICT|INTERRES
   241  121  123 2    
   242  122  242 1    
   243  122  243 1    
   244  124  125 1    
   245  124  244 1    
   246  124  245 1    
   247  125  126 1    
   248  126  246 1    
   249  126  247 1    
@<TRIPOS>SUBSTRUCTURE
     1 UNK         1 GROUP             0       ****    0 ROOT    
