@<TRIPOS>MOLECULE
3R540
247   249    1
SMALL
USER_CHARGES


@<TRIPOS>ATOM
      1 CA          5.0644  -13.3637  -51.1963 C.3       0 UNK        -0.1800 
      2 C           4.0387  -13.4956  -50.0792 C.2       0 UNK         0.5000 
      3 O           3.8024  -12.5343  -49.3468 O.2       0 UNK        -0.5000 
      4 N           3.4374  -14.6827  -49.9401 N.am      1 UNK        -0.5000 
      5 CA          2.3665  -14.9776  -48.9851 C.3       1 UNK         0.1400 
      6 C6          2.1951  -16.5061  -48.7758 C.3       23 UNK        -0.0398 
      7 S7          1.8810  -17.4592  -50.3052 S.3       23 UNK        -0.2404 
      8 C8          0.4064  -18.4320  -49.8658 C.3       23 UNK        -0.0205 
      9 C9         -0.8209  -17.5706  -49.6127 C.ar      23 UNK        -0.0193 
     10 C10        -1.5073  -16.9969  -50.6854 C.ar      23 UNK        -0.1150 
     11 C11        -2.6765  -16.2596  -50.4781 C.ar      23 UNK        -0.0193 
     12 C12        -3.1377  -16.0790  -49.1685 C.ar      23 UNK        -0.1150 
     13 C13        -2.4683  -16.6557  -48.0875 C.ar      23 UNK        -0.0193 
     14 C14        -1.3010  -17.3889  -48.3131 C.ar      23 UNK        -0.1150 
     15 C15        -3.0367  -16.5090  -46.6859 C.3       23 UNK        -0.0205 
     16 S16        -3.9736  -17.9961  -46.1982 S.3       23 UNK        -0.2404 
     17 C17        -2.6578  -19.0391  -45.4932 C.3       23 UNK        -0.0398 
     18 CA         -2.2340  -20.2278  -46.3974 C.3       11 UNK         0.1400 
     19 N          -0.7917  -20.4803  -46.2956 N.am      11 UNK        -0.5000 
     20 C          -0.1037  -21.4400  -46.9263 C.2       10 UNK         0.5000 
     21 O          -0.6089  -22.2073  -47.7418 O.2       10 UNK        -0.5000 
     22 CA          1.3797  -21.6000  -46.5524 C.3       10 UNK         0.1400 
     23 CB          2.2716  -20.6942  -47.4130 C.3       10 UNK        -0.1800 
     24 N           1.6080  -21.3018  -45.1394 N.am      10 UNK        -0.5000 
     25 C           1.4363  -22.1801  -44.1426 C.2       9 UNK         0.5000 
     26 O           1.1321  -23.3601  -44.3146 O.2       9 UNK        -0.5000 
     27 CA          1.6130  -21.6444  -42.7079 C.3       9 UNK         0.1400 
     28 CB          3.0878  -21.7126  -42.2843 C.3       9 UNK        -0.1800 
     29 N           1.1271  -20.2740  -42.5324 N.am      9 UNK        -0.5000 
     30 C          -0.1520  -19.8981  -42.6626 C.2       8 UNK         0.5000 
     31 O          -1.0685  -20.6678  -42.9537 O.2       8 UNK        -0.5000 
     32 CA         -0.4517  -18.3973  -42.4906 C.3       8 UNK         0.1400 
     33 CB         -0.5969  -18.0505  -41.0024 C.3       8 UNK        -0.1800 
     34 N           0.5200  -17.4871  -43.1096 N.am      8 UNK        -0.5000 
     35 C           0.9920  -17.5498  -44.3644 C.2       7 UNK         0.5000 
     36 O           0.7624  -18.4709  -45.1447 O.2       7 UNK        -0.5000 
     37 CA          1.8427  -16.3733  -44.8534 C.3       7 UNK         0.1400 
     38 CB          0.9218  -15.2997  -45.4429 C.3       7 UNK        -0.1800 
     39 N           2.6442  -15.7936  -43.7793 N.am      7 UNK        -0.5000 
     40 C           3.8747  -16.2124  -43.4517 C.2       6 UNK         0.5000 
     41 O           4.4787  -17.0990  -44.0561 O.2       6 UNK        -0.5000 
     42 CA          4.5436  -15.5366  -42.2387 C.3       6 UNK         0.1400 
     43 CB          5.3479  -14.3063  -42.6850 C.3       6 UNK        -0.1800 
     44 N           3.5857  -15.1328  -41.2096 N.am      6 UNK        -0.5000 
     45 C           2.8651  -15.9802  -40.4624 C.2       5 UNK         0.5000 
     46 O           2.9784  -17.2052  -40.5134 O.2       5 UNK        -0.5000 
     47 CA          1.8163  -15.3545  -39.5224 C.3       5 UNK         0.1400 
     48 CB          2.4011  -15.1766  -38.1131 C.3       5 UNK        -0.1800 
     49 N           1.2741  -14.0696  -39.9808 N.am      5 UNK        -0.5000 
     50 C           0.6260  -13.8588  -41.1354 C.2       4 UNK         0.5000 
     51 O           0.4686  -14.7323  -41.9927 O.2       4 UNK        -0.5000 
     52 CA          0.0566  -12.4390  -41.3347 C.3       4 UNK         0.1400 
     53 CB          1.1575  -11.3574  -41.2744 C.3       4 UNK        -0.1800 
     54 N          -0.7670  -12.3087  -42.5441 N.am      4 UNK        -0.5000 
     55 C          -0.3682  -12.2687  -43.8233 C.2       3 UNK         0.5000 
     56 O           0.8084  -12.2722  -44.1956 O.2       3 UNK        -0.5000 
     57 CA         -1.4944  -12.1963  -44.8665 C.3       3 UNK         0.1400 
     58 CB         -2.1798  -10.8155  -44.8444 C.3       3 UNK        -0.1800 
     59 N          -0.9557  -12.4595  -46.1998 N.am      3 UNK        -0.5000 
     60 C          -1.6809  -12.8519  -47.2560 C.2       2 UNK         0.5000 
     61 O          -2.8904  -13.0736  -47.2063 O.2       2 UNK        -0.5000 
     62 CA         -0.9396  -13.0233  -48.5897 C.3       2 UNK         0.1400 
     63 CB         -0.7239  -11.6521  -49.2608 C.3       2 UNK        -0.1800 
     64 N           0.3305  -13.7269  -48.4040 N.am      2 UNK        -0.5000 
     65 C           1.0537  -14.2679  -49.3930 C.2       1 UNK         0.5000 
     66 O           0.7329  -14.2134  -50.5830 O.2       1 UNK        -0.5000 
     67 C          -3.0527  -21.4960  -46.0787 C.2       11 UNK         0.5000 
     68 O          -3.9017  -21.9019  -46.8749 O.2       11 UNK        -0.5000 
     69 N          -2.7167  -22.1177  -44.9397 N.am      12 UNK        -0.5000 
     70 CA         -3.3285  -23.3348  -44.4130 C.3       12 UNK         0.1400 
     71 CB         -3.0331  -23.4071  -42.9063 C.3       12 UNK        -0.1800 
     72 C          -2.8748  -24.6328  -45.1105 C.2       12 UNK         0.5000 
     73 O          -3.4605  -25.6825  -44.8375 O.2       12 UNK        -0.5000 
     74 N          -1.8550  -24.5733  -45.9808 N.am      13 UNK        -0.5000 
     75 CA         -1.3662  -25.7132  -46.7589 C.3       13 UNK         0.1400 
     76 CB          0.0714  -25.4475  -47.2355 C.3       13 UNK        -0.1800 
     77 C          -2.3313  -26.0011  -47.9220 C.2       13 UNK         0.5000 
     78 O          -2.1202  -25.5233  -49.0397 O.2       13 UNK        -0.5000 
     79 N          -3.4130  -26.7232  -47.5985 N.am      14 UNK        -0.5000 
     80 CA         -4.5878  -27.0543  -48.4111 C.3       14 UNK         0.1400 
     81 CB         -4.2104  -27.8804  -49.6568 C.3       14 UNK        -0.1800 
     82 C          -5.4290  -25.8139  -48.7641 C.2       14 UNK         0.5000 
     83 O          -6.5753  -25.7111  -48.3265 O.2       14 UNK        -0.5000 
     84 N          -4.8243  -24.8925  -49.5161 N.am      15 UNK        -0.5000 
     85 CA         -5.3456  -23.5998  -49.9321 C.3       15 UNK         0.1400 
     86 CB         -6.5858  -23.7549  -50.8388 C.3       15 UNK        -0.1800 
     87 C          -4.2082  -22.8870  -50.6700 C.2       15 UNK         0.5000 
     88 O          -3.9853  -23.1806  -51.8464 O.2       15 UNK        -0.5000 
     89 N          -3.4940  -21.9963  -49.9664 N.am      16 UNK        -0.5000 
     90 CA         -2.4533  -21.1042  -50.4967 C.3       16 UNK         0.1400 
     91 CB         -3.1042  -20.0204  -51.3804 C.3       16 UNK        -0.1800 
     92 C          -1.3292  -21.8597  -51.2348 C.2       16 UNK         0.5000 
     93 O          -1.2256  -21.7726  -52.4592 O.2       16 UNK        -0.5000 
     94 N          -0.5448  -22.6364  -50.4750 N.am      17 UNK        -0.5000 
     95 CA          0.5461  -23.5092  -50.9338 C.3       17 UNK         0.1400 
     96 CB          1.7250  -22.6652  -51.4609 C.3       17 UNK        -0.1800 
     97 C           0.0744  -24.5799  -51.9434 C.2       17 UNK         0.5000 
     98 O           0.8187  -24.9526  -52.8517 O.2       17 UNK        -0.5000 
     99 N          -1.1804  -25.0185  -51.7722 N.am      18 UNK        -0.5000 
    100 CA        -1.9660  -25.9119  -52.6267 C.3       18 UNK         0.1400 
    101 CB        -1.3723  -27.3348  -52.6117 C.3       18 UNK        -0.1800 
    102 C         -2.2144  -25.3850  -54.0588 C.2       18 UNK         0.5000 
    103 O         -2.6348  -26.1613  -54.9187 O.2       18 UNK        -0.5000 
    104 N         -1.9761  -24.0880  -54.3022 N.am      19 UNK        -0.5000 
    105 CA        -2.1856  -23.4418  -55.5980 C.3       19 UNK         0.1400 
    106 CB        -1.1882  -22.2821  -55.7504 C.3       19 UNK        -0.1800 
    107 C         -3.6267  -22.9321  -55.7758 C.2       19 UNK         0.5000 
    108 O         -4.0268  -22.6660  -56.9097 O.2       19 UNK        -0.5000 
    109 N         -4.3678  -22.7818  -54.6655 N.am      20 UNK        -0.5000 
    110 CA        -5.7290  -22.2417  -54.5716 C.3       20 UNK         0.1400 
    111 CB        -6.7436  -23.1726  -55.2667 C.3       20 UNK        -0.1800 
    112 C         -5.8342  -20.7717  -55.0327 C.2       20 UNK         0.5000 
    113 O         -6.8869  -20.3464  -55.5113 O.2       20 UNK        -0.5000 
    114 N         -4.7374  -20.0161  -54.8681 N.am      21 UNK        -0.5000 
    115 CA        -4.6347  -18.5903  -55.1922 C.3       21 UNK         0.1400 
    116 CB        -3.1598  -18.1673  -55.1071 C.3       21 UNK        -0.1800 
    117 C         -5.5081  -17.7031  -54.2835 C.2       21 UNK         0.5000 
    118 O         -5.9830  -16.6564  -54.7251 O.2       21 UNK        -0.5000 
    119 N         -5.7143  -18.1615  -53.0461 N.am      22 UNK        -0.5000 
    120 CA        -6.6427  -17.6188  -52.0530 C.3       22 UNK         0.1400 
    121 C         -7.4779  -18.7860  -51.4636 C.2       22 UNK         0.5000 
    122 N         -8.7058  -18.5240  -51.0385 N.am      22 UNK        -0.7600 
    123 O         -7.0149  -19.9213  -51.3620 O.2       22 UNK        -0.5000 
    124 C124       -5.9022  -16.8624  -50.9223 C.3       23 UNK        -0.0398 
    125 S125       -5.1730  -15.2734  -51.4554 S.3       23 UNK        -0.2404 
    126 C126       -3.4083  -15.6935  -51.6961 C.3       23 UNK        -0.0205 
    127 H127        5.1760  -14.2928  -51.7559 H         1 UNK         0.0600 
    128 H128        6.0372  -13.0965  -50.7835 H         1 UNK         0.0600 
    129 H129        4.7617  -12.5818  -51.8928 H         1 UNK         0.0600 
    130 H130        3.6391  -15.4239  -50.5963 H         1 UNK         0.3000 
    131 H131        2.6777  -14.5609  -48.0247 H         1 UNK         0.0600 
    132 H132        1.4098  -16.7064  -48.0497 H         1 UNK         0.0800 
    133 H133        3.1045  -16.9082  -48.3271 H         1 UNK         0.0800 
    134 H134        0.6216  -19.0481  -48.9948 H         1 UNK         0.0800 
    135 H135        0.1949  -19.1258  -50.6805 H         1 UNK         0.0800 
    136 H136       -1.1356  -17.1420  -51.6902 H         1 UNK         0.1150 
    137 H137       -4.0340  -15.5066  -48.9802 H         1 UNK         0.1150 
    138 H138       -0.7811  -17.8391  -47.4799 H         1 UNK         0.1150 
    139 H139       -2.2423  -16.2880  -45.9720 H         1 UNK         0.0800 
    140 H140       -3.7127  -15.6535  -46.6471 H         1 UNK         0.0800 
    141 H141       -2.9808  -19.3721  -44.5053 H         1 UNK         0.0800 
    142 H142       -1.8041  -18.3943  -45.2994 H         1 UNK         0.0800 
    143 H143       -2.4263  -19.9637  -47.4381 H         1 UNK         0.0600 
    144 H144       -0.2674  -19.8543  -45.6893 H         1 UNK         0.3000 
    145 H145        1.6617  -22.6356  -46.7541 H         1 UNK         0.0600 
    146 H146        3.3263  -20.8735  -47.2043 H         1 UNK         0.0600 
    147 H147        2.1161  -20.8867  -48.4749 H         1 UNK         0.0600 
    148 H148        2.0742  -19.6374  -47.2316 H         1 UNK         0.0600 
    149 H149        1.7862  -20.3328  -44.9076 H         1 UNK         0.3000 
    150 H150        1.0361  -22.2906  -42.0428 H         1 UNK         0.0600 
    151 H151        3.4765  -22.7269  -42.3840 H         1 UNK         0.0600 
    152 H152        3.2128  -21.4185  -41.2420 H         1 UNK         0.0600 
    153 H153        3.7127  -21.0594  -42.8949 H         1 UNK         0.0600 
    154 H154        1.8131  -19.5684  -42.3040 H         1 UNK         0.3000 
    155 H155       -1.4131  -18.2004  -42.9653 H         1 UNK         0.0600 
    156 H156        0.3385  -18.2015  -40.4632 H         1 UNK         0.0600 
    157 H157       -1.3536  -18.6761  -40.5271 H         1 UNK         0.0600 
    158 H158       -0.9032  -17.0131  -40.8665 H         1 UNK         0.0600 
    159 H159        0.7243  -16.6446  -42.5833 H         1 UNK         0.3000 
    160 H160        2.4977  -16.7351  -45.6486 H         1 UNK         0.0600 
    161 H161        0.2072  -14.9433  -44.7020 H         1 UNK         0.0600 
    162 H162        0.3397  -15.6923  -46.2762 H         1 UNK         0.0600 
    163 H163        1.4954  -14.4447  -45.7986 H         1 UNK         0.0600 
    164 H164        2.1911  -15.0910  -43.2075 H         1 UNK         0.3000 
    165 H165        5.2349  -16.2570  -41.7963 H         1 UNK         0.0600 
    166 H166        5.8855  -13.8611  -41.8476 H         1 UNK         0.0600 
    167 H167        6.0888  -14.5766  -43.4386 H         1 UNK         0.0600 
    168 H168        4.7041  -13.5393  -43.1178 H         1 UNK         0.0600 
    169 H169        3.4272  -14.1425  -41.0966 H         1 UNK         0.3000 
    170 H170        0.9820  -16.0540  -39.4548 H         1 UNK         0.0600 
    171 H171        2.7905  -16.1206  -37.7290 H         1 UNK         0.0600 
    172 H172        3.2200  -14.4562  -38.1054 H         1 UNK         0.0600 
    173 H173        1.6421  -14.8315  -37.4108 H         1 UNK         0.0600 
    174 H174        1.3603  -13.3012  -39.3313 H         1 UNK         0.3000 
    175 H175       -0.6245  -12.2623  -40.5010 H         1 UNK         0.0600 
    176 H176        1.9656  -11.5551  -41.9792 H         1 UNK         0.0600 
    177 H177        0.7529  -10.3700  -41.4972 H         1 UNK         0.0600 
    178 H178        1.6036  -11.3020  -40.2812 H         1 UNK         0.0600 
    179 H179       -1.7620  -12.3212  -42.3700 H         1 UNK         0.3000 
    180 H180       -2.2243  -12.9706  -44.6200 H         1 UNK         0.0600 
    181 H181       -1.4797  -10.0189  -45.0991 H         1 UNK         0.0600 
    182 H182       -2.5898  -10.5901  -43.8594 H         1 UNK         0.0600 
    183 H183       -3.0079  -10.7702  -45.5519 H         1 UNK         0.0600 
    184 H184        0.0365  -12.2805  -46.2820 H         1 UNK         0.3000 
    185 H185       -1.5748  -13.6302  -49.2383 H         1 UNK         0.0600 
    186 H186       -1.6634  -11.1034  -49.3387 H         1 UNK         0.0600 
    187 H187       -0.0270  -11.0331  -48.6947 H         1 UNK         0.0600 
    188 H188       -0.3314  -11.7567  -50.2720 H         1 UNK         0.0600 
    189 H189        0.6362  -13.8329  -47.4486 H         1 UNK         0.3000 
    190 H190       -2.0042  -21.6940  -44.3512 H         1 UNK         0.3000 
    191 H191       -4.4097  -23.2593  -44.5460 H         1 UNK         0.0600 
    192 H192       -1.9618  -23.4791  -42.7124 H         1 UNK         0.0600 
    193 H193       -3.5099  -24.2760  -42.4509 H         1 UNK         0.0600 
    194 H194       -3.4071  -22.5239  -42.3880 H         1 UNK         0.0600 
    195 H195       -1.4544  -23.6723  -46.2034 H         1 UNK         0.3000 
    196 H196       -1.3333  -26.5942  -46.1142 H         1 UNK         0.0600 
    197 H197        0.4705  -26.3163  -47.7598 H         1 UNK         0.0600 
    198 H198        0.7342  -25.2403  -46.3953 H         1 UNK         0.0600 
    199 H199        0.1267  -24.6054  -47.9209 H         1 UNK         0.0600 
    200 H200       -3.5108  -26.9510  -46.6157 H         1 UNK         0.3000 
    201 H201       -5.2145  -27.6888  -47.7823 H         1 UNK         0.0600 
    202 H202       -3.7073  -28.8052  -49.3748 H         1 UNK         0.0600 
    203 H203       -3.5498  -27.3373  -50.3306 H         1 UNK         0.0600 
    204 H204       -5.1001  -28.1544  -50.2249 H         1 UNK         0.0600 
    205 H205       -3.8445  -25.0543  -49.7320 H         1 UNK         0.3000 
    206 H206       -5.6182  -23.0227  -49.0462 H         1 UNK         0.0600 
    207 H207       -6.9020  -22.7870  -51.2294 H         1 UNK         0.0600 
    208 H208       -6.3851  -24.4045  -51.6918 H         1 UNK         0.0600 
    209 H209       -7.4344  -24.1692  -50.2957 H         1 UNK         0.0600 
    210 H210       -3.7003  -21.8941  -48.9781 H         1 UNK         0.3000 
    211 H211       -1.9882  -20.6031  -49.6479 H         1 UNK         0.0600 
    212 H212       -3.6778  -20.4544  -52.1984 H         1 UNK         0.0600 
    213 H213       -2.3507  -19.3710  -51.8245 H         1 UNK         0.0600 
    214 H214       -3.7745  -19.3929  -50.7947 H         1 UNK         0.0600 
    215 H215       -0.7050  -22.6336  -49.4678 H         1 UNK         0.3000 
    216 H216        0.8974  -24.0529  -50.0570 H         1 UNK         0.0600 
    217 H217        2.5926  -23.2920  -51.6695 H         1 UNK         0.0600 
    218 H218        2.0339  -21.9182  -50.7302 H         1 UNK         0.0600 
    219 H219        1.4687  -22.1443  -52.3840 H         1 UNK         0.0600 
    220 H220       -1.6656  -24.6843  -50.9483 H         1 UNK         0.3000 
    221 H221       -2.9528  -25.9613  -52.1657 H         1 UNK         0.0600 
    222 H222       -0.4078  -27.3754  -53.1182 H         1 UNK         0.0600 
    223 H223       -1.2316  -27.6907  -51.5909 H         1 UNK         0.0600 
    224 H224       -2.0346  -28.0427  -53.1112 H         1 UNK         0.0600 
    225 H225       -1.6616  -23.4901  -53.5443 H         1 UNK         0.3000 
    226 H226       -1.9858  -24.1598  -56.3961 H         1 UNK         0.0600 
    227 H227       -0.1635  -22.6167  -55.5873 H         1 UNK         0.0600 
    228 H228       -1.2370  -21.8577  -56.7538 H         1 UNK         0.0600 
    229 H229       -1.3939  -21.4747  -55.0475 H         1 UNK         0.0600 
    230 H230       -3.9521  -23.0291  -53.7701 H         1 UNK         0.3000 
    231 H231       -5.9744  -22.2319  -53.5092 H         1 UNK         0.0600 
    232 H232       -6.6471  -24.1969  -54.9066 H         1 UNK         0.0600 
    233 H233       -6.6117  -23.1822  -56.3488 H         1 UNK         0.0600 
    234 H234       -7.7671  -22.8549  -55.0652 H         1 UNK         0.0600 
    235 H235       -3.9113  -20.4575  -54.4922 H         1 UNK         0.3000 
    236 H236       -4.9752  -18.4503  -56.2202 H         1 UNK         0.0600 
    237 H237       -3.0416  -17.1108  -55.3512 H         1 UNK         0.0600 
    238 H238       -2.7526  -18.3208  -54.1072 H         1 UNK         0.0600 
    239 H239       -2.5464  -18.7332  -55.8086 H         1 UNK         0.0600 
    240 H240       -5.3388  -19.0672  -52.8044 H         1 UNK         0.3000 
    241 H241       -7.3392  -16.9346  -52.5418 H         1 UNK         0.0600 
    242 H242       -9.2541  -19.2727  -50.6445 H         1 UNK         0.3800 
    243 H243       -9.1076  -17.6014  -51.1061 H         1 UNK         0.3800 
    244 H244       -5.1399  -17.5003  -50.4760 H         1 UNK         0.0800 
    245 H245       -6.5945  -16.6235  -50.1131 H         1 UNK         0.0800 
    246 H246       -3.3413  -16.4039  -52.5204 H         1 UNK         0.0800 
    247 H247       -2.8830  -14.7949  -52.0215 H         1 UNK         0.0800 
@<TRIPOS>BOND
     1    1    2 1    
     2    1  127 1    
     3    1  128 1    
     4    1  129 1    
     5    2    3 2    
     6    2    4 am   BACKBONE|DICT|INTERRES
     7    4    5 1    
     8    4  130 1    
     9    5    6 1    
    10    5   65 1    
    11    5  131 1    
    12    6    7 1    
    13    6  132 1    
    14    6  133 1    
    15    7    8 1    
    16    8    9 1    
    17    8  134 1    
    18    8  135 1    
    19    9   10 ar   
    20    9   14 ar   
    21   10   11 ar   
    22   10  136 1    
    23   11   12 ar   
    24   11  126 1    
    25   12   13 ar   
    26   12  137 1    
    27   13   14 ar   
    28   13   15 1    
    29   14  138 1    
    30   15   16 1    
    31   15  139 1    
    32   15  140 1    
    33   16   17 1    
    34   17   18 1    
    35   17  141 1    
    36   17  142 1    
    37   18   19 1    
    38   18   67 1    
    39   18  143 1    
    40   19   20 am   BACKBONE|DICT|INTERRES
    41   19  144 1    
    42   20   21 2    
    43   20   22 1    
    44   22   23 1    
    45   22   24 1    
    46   22  145 1    
    47   23  146 1    
    48   23  147 1    
    49   23  148 1    
    50   24   25 am   BACKBONE|DICT|INTERRES
    51   24  149 1    
    52   25   26 2    
    53   25   27 1    
    54   27   28 1    
    55   27   29 1    
    56   27  150 1    
    57   28  151 1    
    58   28  152 1    
    59   28  153 1    
    60   29   30 am   BACKBONE|DICT|INTERRES
    61   29  154 1    
    62   30   31 2    
    63   30   32 1    
    64   32   33 1    
    65   32   34 1    
    66   32  155 1    
    67   33  156 1    
    68   33  157 1    
    69   33  158 1    
    70   34   35 am   BACKBONE|DICT|INTERRES
    71   34  159 1    
    72   35   36 2    
    73   35   37 1    
    74   37   38 1    
    75   37   39 1    
    76   37  160 1    
    77   38  161 1    
    78   38  162 1    
    79   38  163 1    
    80   39   40 am   BACKBONE|DICT|INTERRES
    81   39  164 1    
    82   40   41 2    
    83   40   42 1    
    84   42   43 1    
    85   42   44 1    
    86   42  165 1    
    87   43  166 1    
    88   43  167 1    
    89   43  168 1    
    90   44   45 am   BACKBONE|DICT|INTERRES
    91   44  169 1    
    92   45   46 2    
    93   45   47 1    
    94   47   48 1    
    95   47   49 1    
    96   47  170 1    
    97   48  171 1    
    98   48  172 1    
    99   48  173 1    
   100   49   50 am   BACKBONE|DICT|INTERRES
   101   49  174 1    
   102   50   51 2    
   103   50   52 1    
   104   52   53 1    
   105   52   54 1    
   106   52  175 1    
   107   53  176 1    
   108   53  177 1    
   109   53  178 1    
   110   54   55 am   BACKBONE|DICT|INTERRES
   111   54  179 1    
   112   55   56 2    
   113   55   57 1    
   114   57   58 1    
   115   57   59 1    
   116   57  180 1    
   117   58  181 1    
   118   58  182 1    
   119   58  183 1    
   120   59   60 am   BACKBONE|DICT|INTERRES
   121   59  184 1    
   122   60   61 2    
   123   60   62 1    
   124   62   63 1    
   125   62   64 1    
   126   62  185 1    
   127   63  186 1    
   128   63  187 1    
   129   63  188 1    
   130   64   65 am   BACKBONE|DICT|INTERRES
   131   64  189 1    
   132   65   66 2    
   133   67   68 2    
   134   67   69 am   BACKBONE|DICT|INTERRES
   135   69   70 1    
   136   69  190 1    
   137   70   71 1    
   138   70   72 1    
   139   70  191 1    
   140   71  192 1    
   141   71  193 1    
   142   71  194 1    
   143   72   73 2    
   144   72   74 am   BACKBONE|DICT|INTERRES
   145   74   75 1    
   146   74  195 1    
   147   75   76 1    
   148   75   77 1    
   149   75  196 1    
   150   76  197 1    
   151   76  198 1    
   152   76  199 1    
   153   77   78 2    
   154   77   79 am   BACKBONE|DICT|INTERRES
   155   79   80 1    
   156   79  200 1    
   157   80   81 1    
   158   80   82 1    
   159   80  201 1    
   160   81  202 1    
   161   81  203 1    
   162   81  204 1    
   163   82   83 2    
   164   82   84 am   BACKBONE|DICT|INTERRES
   165   84   85 1    
   166   84  205 1    
   167   85   86 1    
   168   85   87 1    
   169   85  206 1    
   170   86  207 1    
   171   86  208 1    
   172   86  209 1    
   173   87   88 2    
   174   87   89 am   BACKBONE|DICT|INTERRES
   175   89   90 1    
   176   89  210 1    
   177   90   91 1    
   178   90   92 1    
   179   90  211 1    
   180   91  212 1    
   181   91  213 1    
   182   91  214 1    
   183   92   93 2    
   184   92   94 am   BACKBONE|DICT|INTERRES
   185   94   95 1    
   186   94  215 1    
   187   95   96 1    
   188   95   97 1    
   189   95  216 1    
   190   96  217 1    
   191   96  218 1    
   192   96  219 1    
   193   97   98 2    
   194   97   99 am   BACKBONE|DICT|INTERRES
   195   99  100 1    
   196   99  220 1    
   197  100  101 1    
   198  100  102 1    
   199  100  221 1    
   200  101  222 1    
   201  101  223 1    
   202  101  224 1    
   203  102  103 2    
   204  102  104 am   BACKBONE|DICT|INTERRES
   205  104  105 1    
   206  104  225 1    
   207  105  106 1    
   208  105  107 1    
   209  105  226 1    
   210  106  227 1    
   211  106  228 1    
   212  106  229 1    
   213  107  108 2    
   214  107  109 am   BACKBONE|DICT|INTERRES
   215  109  110 1    
   216  109  230 1    
   217  110  111 1    
   218  110  112 1    
   219  110  231 1    
   220  111  232 1    
   221  111  233 1    
   222  111  234 1    
   223  112  113 2    
   224  112  114 am   BACKBONE|DICT|INTERRES
   225  114  115 1    
   226  114  235 1    
   227  115  116 1    
   228  115  117 1    
   229  115  236 1    
   230  116  237 1    
   231  116  238 1    
   232  116  239 1    
   233  117  118 2    
   234  117  119 am   BACKBONE|DICT|INTERRES
   235  119  120 1    
   236  119  240 1    
   237  120  121 1    
   238  120  124 1    
   239  120  241 1    
   240  121  122 am   BACKBONE|DICT|INTERRES
   241  121  123 2    
   242  122  242 1    
   243  122  243 1    
   244  124  125 1    
   245  124  244 1    
   246  124  245 1    
   247  125  126 1    
   248  126  246 1    
   249  126  247 1    
@<TRIPOS>SUBSTRUCTURE
     1 UNK         1 GROUP             0       ****    0 ROOT    
