@<TRIPOS>MOLECULE
3R540
247   249    1
SMALL
USER_CHARGES


@<TRIPOS>ATOM
      1 CA          2.9552   -9.9694  -47.9713 C.3       0 UNK        -0.1800 
      2 C           3.2046  -11.4041  -47.5304 C.2       0 UNK         0.5000 
      3 O           2.3262  -12.0197  -46.9306 O.2       0 UNK        -0.5000 
      4 N           4.4036  -11.9324  -47.8083 N.am      1 UNK        -0.5000 
      5 CA          4.8856  -13.2943  -47.5128 C.3       1 UNK         0.1400 
      6 C6          3.9737  -14.4394  -48.0391 C.3       23 UNK        -0.0398 
      7 S7          3.6384  -14.2727  -49.8261 S.3       23 UNK        -0.2404 
      8 C8          4.4843  -15.7210  -50.5415 C.3       23 UNK        -0.0205 
      9 C9          3.5355  -16.8822  -50.8155 C.ar      23 UNK        -0.0193 
     10 C10         2.3862  -16.6796  -51.5851 C.ar      23 UNK        -0.1150 
     11 C11         1.5342  -17.7413  -51.8989 C.ar      23 UNK        -0.0193 
     12 C12         1.8563  -19.0283  -51.4580 C.ar      23 UNK        -0.1150 
     13 C13         3.0154  -19.2533  -50.7063 C.ar      23 UNK        -0.0193 
     14 C14         3.8402  -18.1730  -50.3722 C.ar      23 UNK        -0.1150 
     15 C15         3.4186  -20.6702  -50.3173 C.3       23 UNK        -0.0205 
     16 S16         2.7466  -21.1777  -48.7054 S.3       23 UNK        -0.2404 
     17 C17         0.9913  -21.4280  -49.1200 C.3       23 UNK        -0.0398 
     18 CA          0.2553  -22.3457  -48.1152 C.3       11 UNK         0.1400 
     19 N           0.1540  -21.7666  -46.7699 N.am      11 UNK        -0.5000 
     20 C          -0.3536  -22.4008  -45.7020 C.2       10 UNK         0.5000 
     21 O          -0.7322  -23.5714  -45.7193 O.2       10 UNK        -0.5000 
     22 CA         -0.5218  -21.5851  -44.4078 C.3       10 UNK         0.1400 
     23 CB          0.7952  -21.5179  -43.6208 C.3       10 UNK        -0.1800 
     24 N          -1.0376  -20.2375  -44.6520 N.am      10 UNK        -0.5000 
     25 C          -2.2516  -19.9733  -45.1574 C.2       9 UNK         0.5000 
     26 O          -3.0819  -20.8418  -45.4220 O.2       9 UNK        -0.5000 
     27 CA         -2.5822  -18.5007  -45.4642 C.3       9 UNK         0.1400 
     28 CB         -3.0092  -17.7542  -44.1920 C.3       9 UNK        -0.1800 
     29 N          -1.4704  -17.7947  -46.0989 N.am      9 UNK        -0.5000 
     30 C          -0.9463  -18.1151  -47.2910 C.2       8 UNK         0.5000 
     31 O          -1.3881  -19.0071  -48.0154 O.2       8 UNK        -0.5000 
     32 CA          0.3255  -17.3527  -47.7065 C.3       8 UNK         0.1400 
     33 CB         -0.0205  -15.9827  -48.3062 C.3       8 UNK        -0.1800 
     34 N           1.2520  -17.1743  -46.5868 N.am      8 UNK        -0.5000 
     35 C           1.8626  -18.1826  -45.9496 C.2       7 UNK         0.5000 
     36 O           1.7182  -19.3653  -46.2471 O.2       7 UNK        -0.5000 
     37 CA          2.7341  -17.8130  -44.7394 C.3       7 UNK         0.1400 
     38 CB          4.0887  -17.2483  -45.1896 C.3       7 UNK        -0.1800 
     39 N           2.0690  -16.8640  -43.8465 N.am      7 UNK        -0.5000 
     40 C           0.9898  -17.1560  -43.1080 C.2       6 UNK         0.5000 
     41 O           0.4581  -18.2648  -43.0871 O.2       6 UNK        -0.5000 
     42 CA          0.3795  -16.0115  -42.2777 C.3       6 UNK         0.1400 
     43 CB          1.0832  -15.9005  -40.9175 C.3       6 UNK        -0.1800 
     44 N           0.3960  -14.7034  -42.9387 N.am      6 UNK        -0.5000 
     45 C          -0.1692  -14.4279  -44.1253 C.2       5 UNK         0.5000 
     46 O          -0.6817  -15.2853  -44.8466 O.2       5 UNK        -0.5000 
     47 CA         -0.1438  -12.9543  -44.5840 C.3       5 UNK         0.1400 
     48 CB         -1.2375  -12.6244  -45.6203 C.3       5 UNK        -0.1800 
     49 N          -0.1639  -11.9943  -43.4757 N.am      5 UNK        -0.5000 
     50 C          -1.1187  -11.8395  -42.5430 C.2       4 UNK         0.5000 
     51 O          -2.1802  -12.4646  -42.5444 O.2       4 UNK        -0.5000 
     52 CA         -0.8369  -10.8193  -41.4129 C.3       4 UNK         0.1400 
     53 CB         -1.4608  -11.2480  -40.0679 C.3       4 UNK        -0.1800 
     54 N           0.5863  -10.4923  -41.2385 N.am      4 UNK        -0.5000 
     55 C           1.5761  -11.3444  -40.9375 C.2       3 UNK         0.5000 
     56 O           1.4146  -12.5491  -40.7280 O.2       3 UNK        -0.5000 
     57 CA          3.0017  -10.7611  -40.9417 C.3       3 UNK         0.1400 
     58 CB          3.5526  -10.6601  -39.5114 C.3       3 UNK        -0.1800 
     59 N           3.9044  -11.5815  -41.7518 N.am      3 UNK        -0.5000 
     60 C           3.7312  -11.8481  -43.0530 C.2       2 UNK         0.5000 
     61 O           2.8437  -11.3381  -43.7442 O.2       2 UNK        -0.5000 
     62 CA          4.6795  -12.8885  -43.6664 C.3       2 UNK         0.1400 
     63 CB          4.4414  -14.2743  -43.0380 C.3       2 UNK        -0.1800 
     64 N           4.4579  -12.9338  -45.1089 N.am      2 UNK        -0.5000 
     65 C           5.2540  -13.4938  -46.0255 C.2       1 UNK         0.5000 
     66 O           6.2742  -14.1223  -45.7420 O.2       1 UNK        -0.5000 
     67 C          -1.1289  -22.7358  -48.6703 C.2       11 UNK         0.5000 
     68 O          -1.2948  -23.8617  -49.1410 O.2       11 UNK        -0.5000 
     69 N          -2.1013  -21.8179  -48.5677 N.am      12 UNK        -0.5000 
     70 CA         -3.4907  -22.0359  -48.9700 C.3       12 UNK         0.1400 
     71 CB         -4.2814  -20.7279  -48.8223 C.3       12 UNK        -0.1800 
     72 C          -4.1637  -23.1705  -48.1776 C.2       12 UNK         0.5000 
     73 O          -4.8279  -24.0133  -48.7789 O.2       12 UNK        -0.5000 
     74 N          -3.9539  -23.1923  -46.8534 N.am      13 UNK        -0.5000 
     75 CA         -4.4581  -24.2222  -45.9450 C.3       13 UNK         0.1400 
     76 CB         -4.2031  -23.8033  -44.4897 C.3       13 UNK        -0.1800 
     77 C          -3.8630  -25.6130  -46.2258 C.2       13 UNK         0.5000 
     78 O          -4.6118  -26.5892  -46.2672 O.2       13 UNK        -0.5000 
     79 N          -2.5438  -25.6799  -46.4576 N.am      14 UNK        -0.5000 
     80 CA         -1.8210  -26.9041  -46.8178 C.3       14 UNK         0.1400 
     81 CB         -0.3106  -26.6247  -46.8260 C.3       14 UNK        -0.1800 
     82 C          -2.2707  -27.4917  -48.1689 C.2       14 UNK         0.5000 
     83 O          -2.3413  -28.7126  -48.3121 O.2       14 UNK        -0.5000 
     84 N          -2.6063  -26.6088  -49.1167 N.am      15 UNK        -0.5000 
     85 CA         -3.1765  -26.9415  -50.4215 C.3       15 UNK         0.1400 
     86 CB         -2.8053  -25.8199  -51.4006 C.3       15 UNK        -0.1800 
     87 C          -4.7054  -27.1623  -50.3882 C.2       15 UNK         0.5000 
     88 O          -5.2962  -27.4010  -51.4424 O.2       15 UNK        -0.5000 
     89 N          -5.3302  -27.0531  -49.2041 N.am      16 UNK        -0.5000 
     90 CA         -6.7654  -27.2046  -48.9280 C.3       16 UNK         0.1400 
     91 CB         -7.1861  -28.6793  -49.0939 C.3       16 UNK        -0.1800 
     92 C          -7.6590  -26.2361  -49.7354 C.2       16 UNK         0.5000 
     93 O          -8.7955  -26.5765  -50.0677 O.2       16 UNK        -0.5000 
     94 N          -7.1084  -25.0577  -50.0621 N.am      17 UNK        -0.5000 
     95 CA         -7.6599  -23.9946  -50.9079 C.3       17 UNK         0.1400 
     96 CB         -8.9020  -23.3613  -50.2496 C.3       17 UNK        -0.1800 
     97 C          -7.9154  -24.3995  -52.3786 C.2       17 UNK         0.5000 
     98 O          -8.5264  -23.6238  -53.1153 O.2       17 UNK        -0.5000 
     99 N          -7.4287  -25.5755  -52.8048 N.am      18 UNK        -0.5000 
    100 CA        -7.5043  -26.0521  -54.1899 C.3       18 UNK         0.1400 
    101 CB        -7.3611  -27.5816  -54.2036 C.3       18 UNK        -0.1800 
    102 C         -6.4357  -25.3981  -55.0875 C.2       18 UNK         0.5000 
    103 O         -6.5866  -25.3784  -56.3096 O.2       18 UNK        -0.5000 
    104 N         -5.3876  -24.8638  -54.4569 N.am      19 UNK        -0.5000 
    105 CA        -4.3093  -24.0784  -55.0339 C.3       19 UNK         0.1400 
    106 CB        -3.2123  -25.0167  -55.5692 C.3       19 UNK        -0.1800 
    107 C         -3.7811  -23.1499  -53.9288 C.2       19 UNK         0.5000 
    108 O         -4.2180  -23.2577  -52.7794 O.2       19 UNK        -0.5000 
    109 N         -2.8594  -22.2492  -54.2955 N.am      20 UNK        -0.5000 
    110 CA        -2.1092  -21.3408  -53.4133 C.3       20 UNK         0.1400 
    111 CB        -1.1781  -22.1451  -52.4832 C.3       20 UNK        -0.1800 
    112 C         -2.9621  -20.3211  -52.6247 C.2       20 UNK         0.5000 
    113 O         -2.4375  -19.6564  -51.7317 O.2       20 UNK        -0.5000 
    114 N         -4.2451  -20.1761  -52.9801 N.am      21 UNK        -0.5000 
    115 CA        -5.2167  -19.2766  -52.3574 C.3       21 UNK         0.1400 
    116 CB        -6.6292  -19.8401  -52.5972 C.3       21 UNK        -0.1800 
    117 C         -5.0498  -17.8246  -52.8522 C.2       21 UNK         0.5000 
    118 O         -5.9912  -17.2324  -53.3829 O.2       21 UNK        -0.5000 
    119 N         -3.8355  -17.2891  -52.6921 N.am      22 UNK        -0.5000 
    120 CA        -3.4342  -15.9357  -53.1016 C.3       22 UNK         0.1400 
    121 C         -3.8993  -14.7908  -52.1522 C.2       22 UNK         0.5000 
    122 N         -4.4615  -15.0781  -50.9841 N.am      22 UNK        -0.7600 
    123 O         -3.7649  -13.6183  -52.4920 O.2       22 UNK        -0.5000 
    124 C124       -1.9159  -15.8669  -53.4088 C.3       23 UNK        -0.0398 
    125 S125       -0.8467  -16.3153  -51.9948 S.3       23 UNK        -0.2404 
    126 C126        0.3063  -17.4955  -52.7659 C.3       23 UNK        -0.0205 
    127 H127        3.8208   -9.5443  -48.4800 H         1 UNK         0.0600 
    128 H128        2.1060   -9.9304  -48.6534 H         1 UNK         0.0600 
    129 H129        2.7281   -9.3468  -47.1059 H         1 UNK         0.0600 
    130 H130        5.0787  -11.3503  -48.2841 H         1 UNK         0.3000 
    131 H131        5.8283  -13.3737  -48.0571 H         1 UNK         0.0600 
    132 H132        4.4331  -15.4105  -47.8498 H         1 UNK         0.0800 
    133 H133        3.0188  -14.4552  -47.5126 H         1 UNK         0.0800 
    134 H134        4.9296  -15.4200  -51.4906 H         1 UNK         0.0800 
    135 H135        5.3152  -16.0277  -49.9048 H         1 UNK         0.0800 
    136 H136        2.1548  -15.6885  -51.9496 H         1 UNK         0.1150 
    137 H137        1.2206  -19.8597  -51.7248 H         1 UNK         0.1150 
    138 H138        4.7408  -18.3463  -49.8000 H         1 UNK         0.1150 
    139 H139        3.1077  -21.3777  -51.0875 H         1 UNK         0.0800 
    140 H140        4.5065  -20.7402  -50.2734 H         1 UNK         0.0800 
    141 H141        0.9512  -21.8667  -50.1180 H         1 UNK         0.0800 
    142 H142        0.5053  -20.4541  -49.1895 H         1 UNK         0.0800 
    143 H143        0.8303  -23.2696  -48.0220 H         1 UNK         0.0600 
    144 H144        0.5110  -20.8215  -46.6547 H         1 UNK         0.3000 
    145 H145       -1.2518  -22.1061  -43.7853 H         1 UNK         0.0600 
    146 H146        0.6558  -21.0176  -42.6625 H         1 UNK         0.0600 
    147 H147        1.1753  -22.5187  -43.4122 H         1 UNK         0.0600 
    148 H148        1.5695  -20.9818  -44.1684 H         1 UNK         0.0600 
    149 H149       -0.4243  -19.4661  -44.4090 H         1 UNK         0.3000 
    150 H150       -3.4215  -18.4883  -46.1625 H         1 UNK         0.0600 
    151 H151       -3.8683  -18.2384  -43.7260 H         1 UNK         0.0600 
    152 H152       -3.2946  -16.7259  -44.4150 H         1 UNK         0.0600 
    153 H153       -2.2084  -17.7250  -43.4535 H         1 UNK         0.0600 
    154 H154       -1.0694  -17.0145  -45.5848 H         1 UNK         0.3000 
    155 H155        0.8299  -17.9426  -48.4755 H         1 UNK         0.0600 
    156 H156        0.8568  -15.5162  -48.7548 H         1 UNK         0.0600 
    157 H157       -0.4204  -15.3013  -47.5562 H         1 UNK         0.0600 
    158 H158       -0.7730  -16.0800  -49.0882 H         1 UNK         0.0600 
    159 H159        1.3570  -16.2368  -46.2311 H         1 UNK         0.3000 
    160 H160        2.9239  -18.7316  -44.1799 H         1 UNK         0.0600 
    161 H161        3.9868  -16.2539  -45.6219 H         1 UNK         0.0600 
    162 H162        4.5531  -17.8895  -45.9403 H         1 UNK         0.0600 
    163 H163        4.7818  -17.1828  -44.3515 H         1 UNK         0.0600 
    164 H164        2.4358  -15.9261  -43.8117 H         1 UNK         0.3000 
    165 H165       -0.6664  -16.2663  -42.0964 H         1 UNK         0.0600 
    166 H166        2.1183  -15.5737  -41.0243 H         1 UNK         0.0600 
    167 H167        0.5736  -15.1879  -40.2686 H         1 UNK         0.0600 
    168 H168        1.0915  -16.8606  -40.3996 H         1 UNK         0.0600 
    169 H169        0.7674  -13.9346  -42.3934 H         1 UNK         0.3000 
    170 H170        0.8209  -12.8223  -45.0696 H         1 UNK         0.0600 
    171 H171       -2.2376  -12.8121  -45.2290 H         1 UNK         0.0600 
    172 H172       -1.1196  -13.2290  -46.5196 H         1 UNK         0.0600 
    173 H173       -1.1853  -11.5800  -45.9278 H         1 UNK         0.0600 
    174 H174        0.6842  -11.4473  -43.3809 H         1 UNK         0.3000 
    175 H175       -1.3245   -9.8932  -41.7205 H         1 UNK         0.0600 
    176 H176       -1.2559  -10.5161  -39.2866 H         1 UNK         0.0600 
    177 H177       -2.5447  -11.3378  -40.1484 H         1 UNK         0.0600 
    178 H178       -1.0782  -12.2127  -39.7330 H         1 UNK         0.0600 
    179 H179        0.8283   -9.5280  -41.4216 H         1 UNK         0.3000 
    180 H180        2.9795   -9.7595  -41.3761 H         1 UNK         0.0600 
    181 H181        3.6204  -11.6397  -39.0362 H         1 UNK         0.0600 
    182 H182        2.9087  -10.0374  -38.8889 H         1 UNK         0.0600 
    183 H183        4.5462  -10.2115  -39.5010 H         1 UNK         0.0600 
    184 H184        4.6374  -12.0608  -41.2500 H         1 UNK         0.3000 
    185 H185        5.7059  -12.5680  -43.4771 H         1 UNK         0.0600 
    186 H186        5.1147  -15.0228  -43.4526 H         1 UNK         0.0600 
    187 H187        4.6135  -14.2596  -41.9613 H         1 UNK         0.0600 
    188 H188        3.4173  -14.6051  -43.1983 H         1 UNK         0.0600 
    189 H189        3.6411  -12.4144  -45.4235 H         1 UNK         0.3000 
    190 H190       -1.8738  -20.8973  -48.2011 H         1 UNK         0.3000 
    191 H191       -3.4903  -22.3167  -50.0253 H         1 UNK         0.0600 
    192 H192       -3.8000  -19.9147  -49.3645 H         1 UNK         0.0600 
    193 H193       -5.2915  -20.8377  -49.2185 H         1 UNK         0.0600 
    194 H194       -4.3671  -20.4212  -47.7798 H         1 UNK         0.0600 
    195 H195       -3.4350  -22.4281  -46.4284 H         1 UNK         0.3000 
    196 H196       -5.5381  -24.2900  -46.0917 H         1 UNK         0.0600 
    197 H197       -4.5893  -24.5496  -43.7944 H         1 UNK         0.0600 
    198 H198       -4.6963  -22.8587  -44.2597 H         1 UNK         0.0600 
    199 H199       -3.1391  -23.6830  -44.2857 H         1 UNK         0.0600 
    200 H200       -1.9839  -24.8354  -46.3646 H         1 UNK         0.3000 
    201 H201       -2.0256  -27.6508  -46.0480 H         1 UNK         0.0600 
    202 H202        0.0340  -26.2961  -45.8455 H         1 UNK         0.0600 
    203 H203       -0.0493  -25.8507  -47.5486 H         1 UNK         0.0600 
    204 H204        0.2529  -27.5219  -47.0850 H         1 UNK         0.0600 
    205 H205       -2.4675  -25.6214  -48.9286 H         1 UNK         0.3000 
    206 H206       -2.7274  -27.8684  -50.7833 H         1 UNK         0.0600 
    207 H207       -1.7243  -25.7275  -51.5061 H         1 UNK         0.0600 
    208 H208       -3.2152  -26.0040  -52.3936 H         1 UNK         0.0600 
    209 H209       -3.1868  -24.8596  -51.0540 H         1 UNK         0.0600 
    210 H210       -4.7666  -26.8210  -48.3954 H         1 UNK         0.3000 
    211 H211       -6.9031  -26.9366  -47.8798 H         1 UNK         0.0600 
    212 H212       -7.1293  -29.0007  -50.1344 H         1 UNK         0.0600 
    213 H213       -8.2117  -28.8358  -48.7579 H         1 UNK         0.0600 
    214 H214       -6.5494  -29.3385  -48.5037 H         1 UNK         0.0600 
    215 H215       -6.1790  -24.8608  -49.6925 H         1 UNK         0.3000 
    216 H216       -6.8849  -23.2274  -50.9476 H         1 UNK         0.0600 
    217 H217       -8.6915  -23.0561  -49.2246 H         1 UNK         0.0600 
    218 H218       -9.7459  -24.0512  -50.2291 H         1 UNK         0.0600 
    219 H219       -9.2220  -22.4706  -50.7915 H         1 UNK         0.0600 
    220 H220       -6.9161  -26.1606  -52.1544 H         1 UNK         0.3000 
    221 H221       -8.4848  -25.7990  -54.5985 H         1 UNK         0.0600 
    222 H222       -6.3783  -27.8979  -53.8526 H         1 UNK         0.0600 
    223 H223       -8.1120  -28.0548  -53.5706 H         1 UNK         0.0600 
    224 H224       -7.4898  -27.9754  -55.2126 H         1 UNK         0.0600 
    225 H225       -5.3784  -24.8702  -53.4440 H         1 UNK         0.3000 
    226 H226       -4.7011  -23.4607  -55.8444 H         1 UNK         0.0600 
    227 H227       -3.6076  -25.6941  -56.3263 H         1 UNK         0.0600 
    228 H228       -2.4016  -24.4545  -56.0333 H         1 UNK         0.0600 
    229 H229       -2.7783  -25.6234  -54.7739 H         1 UNK         0.0600 
    230 H230       -2.5917  -22.2145  -55.2696 H         1 UNK         0.3000 
    231 H231       -1.4753  -20.7424  -54.0690 H         1 UNK         0.0600 
    232 H232       -0.5374  -21.4817  -51.9039 H         1 UNK         0.0600 
    233 H233       -0.5270  -22.8084  -53.0522 H         1 UNK         0.0600 
    234 H234       -1.7398  -22.7545  -51.7752 H         1 UNK         0.0600 
    235 H235       -4.5870  -20.7456  -53.7390 H         1 UNK         0.3000 
    236 H236       -5.0478  -19.2649  -51.2801 H         1 UNK         0.0600 
    237 H237       -7.3852  -19.2246  -52.1081 H         1 UNK         0.0600 
    238 H238       -6.8727  -19.8804  -53.6595 H         1 UNK         0.0600 
    239 H239       -6.7240  -20.8489  -52.1942 H         1 UNK         0.0600 
    240 H240       -3.1201  -17.8532  -52.2426 H         1 UNK         0.3000 
    241 H241       -3.9420  -15.7303  -54.0460 H         1 UNK         0.0600 
    242 H242       -4.7660  -14.3296  -50.3821 H         1 UNK         0.3800 
    243 H243       -4.5722  -16.0353  -50.6927 H         1 UNK         0.3800 
    244 H244       -1.6969  -16.5302  -54.2464 H         1 UNK         0.0800 
    245 H245       -1.6365  -14.8685  -53.7495 H         1 UNK         0.0800 
    246 H246        0.6373  -17.1055  -53.7294 H         1 UNK         0.0800 
    247 H247       -0.2221  -18.4280  -52.9684 H         1 UNK         0.0800 
@<TRIPOS>BOND
     1    1    2 1    
     2    1  127 1    
     3    1  128 1    
     4    1  129 1    
     5    2    3 2    
     6    2    4 am   BACKBONE|DICT|INTERRES
     7    4    5 1    
     8    4  130 1    
     9    5    6 1    
    10    5   65 1    
    11    5  131 1    
    12    6    7 1    
    13    6  132 1    
    14    6  133 1    
    15    7    8 1    
    16    8    9 1    
    17    8  134 1    
    18    8  135 1    
    19    9   10 ar   
    20    9   14 ar   
    21   10   11 ar   
    22   10  136 1    
    23   11   12 ar   
    24   11  126 1    
    25   12   13 ar   
    26   12  137 1    
    27   13   14 ar   
    28   13   15 1    
    29   14  138 1    
    30   15   16 1    
    31   15  139 1    
    32   15  140 1    
    33   16   17 1    
    34   17   18 1    
    35   17  141 1    
    36   17  142 1    
    37   18   19 1    
    38   18   67 1    
    39   18  143 1    
    40   19   20 am   BACKBONE|DICT|INTERRES
    41   19  144 1    
    42   20   21 2    
    43   20   22 1    
    44   22   23 1    
    45   22   24 1    
    46   22  145 1    
    47   23  146 1    
    48   23  147 1    
    49   23  148 1    
    50   24   25 am   BACKBONE|DICT|INTERRES
    51   24  149 1    
    52   25   26 2    
    53   25   27 1    
    54   27   28 1    
    55   27   29 1    
    56   27  150 1    
    57   28  151 1    
    58   28  152 1    
    59   28  153 1    
    60   29   30 am   BACKBONE|DICT|INTERRES
    61   29  154 1    
    62   30   31 2    
    63   30   32 1    
    64   32   33 1    
    65   32   34 1    
    66   32  155 1    
    67   33  156 1    
    68   33  157 1    
    69   33  158 1    
    70   34   35 am   BACKBONE|DICT|INTERRES
    71   34  159 1    
    72   35   36 2    
    73   35   37 1    
    74   37   38 1    
    75   37   39 1    
    76   37  160 1    
    77   38  161 1    
    78   38  162 1    
    79   38  163 1    
    80   39   40 am   BACKBONE|DICT|INTERRES
    81   39  164 1    
    82   40   41 2    
    83   40   42 1    
    84   42   43 1    
    85   42   44 1    
    86   42  165 1    
    87   43  166 1    
    88   43  167 1    
    89   43  168 1    
    90   44   45 am   BACKBONE|DICT|INTERRES
    91   44  169 1    
    92   45   46 2    
    93   45   47 1    
    94   47   48 1    
    95   47   49 1    
    96   47  170 1    
    97   48  171 1    
    98   48  172 1    
    99   48  173 1    
   100   49   50 am   BACKBONE|DICT|INTERRES
   101   49  174 1    
   102   50   51 2    
   103   50   52 1    
   104   52   53 1    
   105   52   54 1    
   106   52  175 1    
   107   53  176 1    
   108   53  177 1    
   109   53  178 1    
   110   54   55 am   BACKBONE|DICT|INTERRES
   111   54  179 1    
   112   55   56 2    
   113   55   57 1    
   114   57   58 1    
   115   57   59 1    
   116   57  180 1    
   117   58  181 1    
   118   58  182 1    
   119   58  183 1    
   120   59   60 am   BACKBONE|DICT|INTERRES
   121   59  184 1    
   122   60   61 2    
   123   60   62 1    
   124   62   63 1    
   125   62   64 1    
   126   62  185 1    
   127   63  186 1    
   128   63  187 1    
   129   63  188 1    
   130   64   65 am   BACKBONE|DICT|INTERRES
   131   64  189 1    
   132   65   66 2    
   133   67   68 2    
   134   67   69 am   BACKBONE|DICT|INTERRES
   135   69   70 1    
   136   69  190 1    
   137   70   71 1    
   138   70   72 1    
   139   70  191 1    
   140   71  192 1    
   141   71  193 1    
   142   71  194 1    
   143   72   73 2    
   144   72   74 am   BACKBONE|DICT|INTERRES
   145   74   75 1    
   146   74  195 1    
   147   75   76 1    
   148   75   77 1    
   149   75  196 1    
   150   76  197 1    
   151   76  198 1    
   152   76  199 1    
   153   77   78 2    
   154   77   79 am   BACKBONE|DICT|INTERRES
   155   79   80 1    
   156   79  200 1    
   157   80   81 1    
   158   80   82 1    
   159   80  201 1    
   160   81  202 1    
   161   81  203 1    
   162   81  204 1    
   163   82   83 2    
   164   82   84 am   BACKBONE|DICT|INTERRES
   165   84   85 1    
   166   84  205 1    
   167   85   86 1    
   168   85   87 1    
   169   85  206 1    
   170   86  207 1    
   171   86  208 1    
   172   86  209 1    
   173   87   88 2    
   174   87   89 am   BACKBONE|DICT|INTERRES
   175   89   90 1    
   176   89  210 1    
   177   90   91 1    
   178   90   92 1    
   179   90  211 1    
   180   91  212 1    
   181   91  213 1    
   182   91  214 1    
   183   92   93 2    
   184   92   94 am   BACKBONE|DICT|INTERRES
   185   94   95 1    
   186   94  215 1    
   187   95   96 1    
   188   95   97 1    
   189   95  216 1    
   190   96  217 1    
   191   96  218 1    
   192   96  219 1    
   193   97   98 2    
   194   97   99 am   BACKBONE|DICT|INTERRES
   195   99  100 1    
   196   99  220 1    
   197  100  101 1    
   198  100  102 1    
   199  100  221 1    
   200  101  222 1    
   201  101  223 1    
   202  101  224 1    
   203  102  103 2    
   204  102  104 am   BACKBONE|DICT|INTERRES
   205  104  105 1    
   206  104  225 1    
   207  105  106 1    
   208  105  107 1    
   209  105  226 1    
   210  106  227 1    
   211  106  228 1    
   212  106  229 1    
   213  107  108 2    
   214  107  109 am   BACKBONE|DICT|INTERRES
   215  109  110 1    
   216  109  230 1    
   217  110  111 1    
   218  110  112 1    
   219  110  231 1    
   220  111  232 1    
   221  111  233 1    
   222  111  234 1    
   223  112  113 2    
   224  112  114 am   BACKBONE|DICT|INTERRES
   225  114  115 1    
   226  114  235 1    
   227  115  116 1    
   228  115  117 1    
   229  115  236 1    
   230  116  237 1    
   231  116  238 1    
   232  116  239 1    
   233  117  118 2    
   234  117  119 am   BACKBONE|DICT|INTERRES
   235  119  120 1    
   236  119  240 1    
   237  120  121 1    
   238  120  124 1    
   239  120  241 1    
   240  121  122 am   BACKBONE|DICT|INTERRES
   241  121  123 2    
   242  122  242 1    
   243  122  243 1    
   244  124  125 1    
   245  124  244 1    
   246  124  245 1    
   247  125  126 1    
   248  126  246 1    
   249  126  247 1    
@<TRIPOS>SUBSTRUCTURE
     1 UNK         1 GROUP             0       ****    0 ROOT    
