@<TRIPOS>MOLECULE
3R540
247   249    1
SMALL
USER_CHARGES


@<TRIPOS>ATOM
      1 CA          4.7830   -9.2359  -49.7557 C.3       0 UNK        -0.1800 
      2 C           4.6978   -9.9938  -48.4389 C.2       0 UNK         0.5000 
      3 O           4.3987   -9.3963  -47.4044 O.2       0 UNK        -0.5000 
      4 N           4.9433  -11.3110  -48.4719 N.am      1 UNK        -0.5000 
      5 CA          4.9183  -12.2046  -47.3050 C.3       1 UNK         0.1400 
      6 C6          5.5313  -13.5937  -47.6111 C.3       23 UNK        -0.0398 
      7 S7          4.6994  -14.5047  -48.9603 S.3       23 UNK        -0.2404 
      8 C8          3.6505  -15.6498  -48.0112 C.3       23 UNK        -0.0205 
      9 C9          2.8968  -16.5861  -48.9383 C.ar      23 UNK        -0.0193 
     10 C10         1.6445  -16.2239  -49.4457 C.ar      23 UNK        -0.1150 
     11 C11         0.9465  -17.0937  -50.2888 C.ar      23 UNK        -0.0193 
     12 C12         1.5325  -18.3075  -50.6558 C.ar      23 UNK        -0.1150 
     13 C13         2.7642  -18.6980  -50.1261 C.ar      23 UNK        -0.0193 
     14 C14         3.4464  -17.8268  -49.2733 C.ar      23 UNK        -0.1150 
     15 C15         3.3380  -20.0759  -50.4374 C.3       23 UNK        -0.0205 
     16 S16         2.1390  -21.4293  -50.1676 S.3       23 UNK        -0.2404 
     17 C17         1.4606  -20.9979  -48.5275 C.3       23 UNK        -0.0398 
     18 CA          0.8005  -22.1896  -47.8005 C.3       11 UNK         0.1400 
     19 N           0.6340  -21.9105  -46.3723 N.am      11 UNK        -0.5000 
     20 C           0.2810  -22.8189  -45.4536 C.2       10 UNK         0.5000 
     21 O           0.0892  -24.0075  -45.7067 O.2       10 UNK        -0.5000 
     22 CA          0.0643  -22.3073  -44.0185 C.3       10 UNK         0.1400 
     23 CB          1.4068  -22.1352  -43.2928 C.3       10 UNK        -0.1800 
     24 N          -0.6883  -21.0527  -43.9749 N.am      10 UNK        -0.5000 
     25 C          -1.9549  -20.9175  -44.3950 C.2       9 UNK         0.5000 
     26 O          -2.6355  -21.8490  -44.8220 O.2       9 UNK        -0.5000 
     27 CA         -2.5485  -19.4978  -44.3868 C.3       9 UNK         0.1400 
     28 CB         -2.9993  -19.1021  -42.9734 C.3       9 UNK        -0.1800 
     29 N          -1.6248  -18.4924  -44.9124 N.am      9 UNK        -0.5000 
     30 C          -1.1179  -18.4965  -46.1537 C.2       8 UNK         0.5000 
     31 O          -1.3913  -19.3445  -46.9998 O.2       8 UNK        -0.5000 
     32 CA         -0.0807  -17.4118  -46.4837 C.3       8 UNK         0.1400 
     33 CB         -0.7544  -16.0622  -46.7748 C.3       8 UNK        -0.1800 
     34 N           0.8996  -17.2557  -45.4113 N.am      8 UNK        -0.5000 
     35 C           1.7873  -18.1961  -45.0592 C.2       7 UNK         0.5000 
     36 O           1.9081  -19.2791  -45.6327 O.2       7 UNK        -0.5000 
     37 CA          2.6471  -17.8876  -43.8230 C.3       7 UNK         0.1400 
     38 CB          3.8225  -16.9698  -44.1951 C.3       7 UNK        -0.1800 
     39 N           1.8574  -17.2760  -42.7518 N.am      7 UNK        -0.5000 
     40 C           0.9281  -17.9308  -42.0377 C.2       6 UNK         0.5000 
     41 O           0.6667  -19.1229  -42.1954 O.2       6 UNK        -0.5000 
     42 CA          0.1256  -17.1196  -40.9998 C.3       6 UNK         0.1400 
     43 CB          0.8507  -17.1143  -39.6462 C.3       6 UNK        -0.1800 
     44 N          -0.1337  -15.7398  -41.4108 N.am      6 UNK        -0.5000 
     45 C          -0.8093  -15.3796  -42.5101 C.2       5 UNK         0.5000 
     46 O          -1.3663  -16.1821  -43.2580 O.2       5 UNK        -0.5000 
     47 CA         -0.8284  -13.8819  -42.8715 C.3       5 UNK         0.1400 
     48 CB         -2.1480  -13.2393  -42.4210 C.3       5 UNK        -0.1800 
     49 N           0.2908  -13.0853  -42.3534 N.am      5 UNK        -0.5000 
     50 C           1.5952  -13.3367  -42.5324 C.2       4 UNK         0.5000 
     51 O           2.0306  -14.3695  -43.0438 O.2       4 UNK        -0.5000 
     52 CA          2.5526  -12.2071  -42.1210 C.3       4 UNK         0.1400 
     53 CB          4.0126  -12.6798  -42.0035 C.3       4 UNK        -0.1800 
     54 N           2.4634  -11.1800  -43.1520 N.am      4 UNK        -0.5000 
     55 C           1.6952  -10.0835  -43.0922 C.2       3 UNK         0.5000 
     56 O           1.1056   -9.7187  -42.0745 O.2       3 UNK        -0.5000 
     57 CA          1.5082   -9.2910  -44.4042 C.3       3 UNK         0.1400 
     58 CB          2.5733   -8.1917  -44.5284 C.3       3 UNK        -0.1800 
     59 N           1.5614  -10.1457  -45.5927 N.am      3 UNK        -0.5000 
     60 C           0.6886  -11.1272  -45.8703 C.2       2 UNK         0.5000 
     61 O          -0.3585  -11.2995  -45.2466 O.2       2 UNK        -0.5000 
     62 CA          1.0562  -12.1109  -47.0017 C.3       2 UNK         0.1400 
     63 CB          0.1586  -11.8982  -48.2295 C.3       2 UNK        -0.1800 
     64 N           2.4581  -12.0597  -47.4256 N.am      2 UNK        -0.5000 
     65 C           3.5231  -12.3401  -46.6592 C.2       1 UNK         0.5000 
     66 O           3.4398  -12.6709  -45.4785 O.2       1 UNK        -0.5000 
     67 C          -0.5304  -22.6163  -48.4603 C.2       11 UNK         0.5000 
     68 O          -0.5600  -23.6172  -49.1760 O.2       11 UNK        -0.5000 
     69 N          -1.6184  -21.8914  -48.1647 N.am      12 UNK        -0.5000 
     70 CA         -2.9750  -22.1955  -48.6207 C.3       12 UNK         0.1400 
     71 CB         -3.9141  -21.0476  -48.2213 C.3       12 UNK        -0.1800 
     72 C          -3.4960  -23.5468  -48.0946 C.2       12 UNK         0.5000 
     73 O          -4.1243  -24.2869  -48.8519 O.2       12 UNK        -0.5000 
     74 N          -3.1951  -23.8614  -46.8263 N.am      13 UNK        -0.5000 
     75 CA         -3.4958  -25.1471  -46.1966 C.3       13 UNK         0.1400 
     76 CB         -3.2568  -25.0574  -44.6822 C.3       13 UNK        -0.1800 
     77 C          -2.6921  -26.3071  -46.8104 C.2       13 UNK         0.5000 
     78 O          -3.2631  -27.3695  -47.0536 O.2       13 UNK        -0.5000 
     79 N          -1.4007  -26.0796  -47.0928 N.am      14 UNK        -0.5000 
     80 CA         -0.5179  -27.0315  -47.7748 C.3       14 UNK         0.1400 
     81 CB          0.9314  -26.5254  -47.7202 C.3       14 UNK        -0.1800 
     82 C          -0.9465  -27.3126  -49.2285 C.2       14 UNK         0.5000 
     83 O          -0.8086  -28.4438  -49.6951 O.2       14 UNK        -0.5000 
     84 N          -1.5008  -26.2936  -49.8999 N.am      15 UNK        -0.5000 
     85 CA         -2.1126  -26.3879  -51.2274 C.3       15 UNK         0.1400 
     86 CB         -2.2302  -24.9763  -51.8230 C.3       15 UNK        -0.1800 
     87 C          -3.4842  -27.1001  -51.2286 C.2       15 UNK         0.5000 
     88 O          -4.0023  -27.3971  -52.3059 O.2       15 UNK        -0.5000 
     89 N          -4.0482  -27.3556  -50.0384 N.am      16 UNK        -0.5000 
     90 CA         -5.2799  -28.0856  -49.7137 C.3       16 UNK         0.1400 
     91 CB         -5.2228  -29.5374  -50.2248 C.3       16 UNK        -0.1800 
     92 C          -6.5845  -27.3928  -50.1464 C.2       16 UNK         0.5000 
     93 O          -7.5225  -27.3271  -49.3509 O.2       16 UNK        -0.5000 
     94 N          -6.6332  -26.8960  -51.3871 N.am      17 UNK        -0.5000 
     95 CA         -7.7887  -26.2127  -51.9701 C.3       17 UNK         0.1400 
     96 CB         -7.6132  -26.1513  -53.4947 C.3       17 UNK        -0.1800 
     97 C          -8.0215  -24.8057  -51.3866 C.2       17 UNK         0.5000 
     98 O          -9.1698  -24.3626  -51.3298 O.2       17 UNK        -0.5000 
     99 N          -6.9322  -24.1501  -50.9563 N.am      18 UNK        -0.5000 
    100 CA        -6.8650  -22.7976  -50.3931 C.3       18 UNK         0.1400 
    101 CB        -7.5434  -22.7650  -49.0061 C.3       18 UNK        -0.1800 
    102 C         -7.3802  -21.6977  -51.3514 C.2       18 UNK         0.5000 
    103 O         -7.5126  -21.9371  -52.5546 O.2       18 UNK        -0.5000 
    104 N         -7.6159  -20.4923  -50.8101 N.am      19 UNK        -0.5000 
    105 CA        -8.0842  -19.2879  -51.5062 C.3       19 UNK         0.1400 
    106 CB        -9.5705  -19.4425  -51.9002 C.3       19 UNK        -0.1800 
    107 C         -7.1576  -18.9128  -52.6822 C.2       19 UNK         0.5000 
    108 O         -6.0212  -18.5017  -52.4443 O.2       19 UNK        -0.5000 
    109 N         -7.6290  -19.1061  -53.9217 N.am      20 UNK        -0.5000 
    110 CA        -6.8772  -18.8943  -55.1610 C.3       20 UNK         0.1400 
    111 CB        -7.8179  -19.1055  -56.3567 C.3       20 UNK        -0.1800 
    112 C         -5.6247  -19.7845  -55.2979 C.2       20 UNK         0.5000 
    113 O         -4.6827  -19.3926  -55.9890 O.2       20 UNK        -0.5000 
    114 N         -5.6030  -20.9365  -54.6081 N.am      21 UNK        -0.5000 
    115 CA        -4.4726  -21.8699  -54.5693 C.3       21 UNK         0.1400 
    116 CB        -4.9231  -23.1926  -53.9342 C.3       21 UNK        -0.1800 
    117 C         -3.2207  -21.3138  -53.8572 C.2       21 UNK         0.5000 
    118 O         -2.1516  -21.9113  -53.9828 O.2       21 UNK        -0.5000 
    119 N         -3.3540  -20.1744  -53.1599 N.am      22 UNK        -0.5000 
    120 CA        -2.2255  -19.3520  -52.6931 C.3       22 UNK         0.1400 
    121 C         -1.3673  -18.7617  -53.8568 C.2       22 UNK         0.5000 
    122 N         -1.9093  -18.5775  -55.0571 N.am      22 UNK        -0.7600 
    123 O         -0.1856  -18.4864  -53.6799 O.2       22 UNK        -0.5000 
    124 C124       -2.7031  -18.2323  -51.7210 C.3       23 UNK        -0.0398 
    125 S125       -1.6437  -18.0363  -50.2510 S.3       23 UNK        -0.2404 
    126 C126       -0.4541  -16.7566  -50.7790 C.3       23 UNK        -0.0205 
    127 H127        5.5454   -8.4595  -49.6922 H         1 UNK         0.0600 
    128 H128        5.0360   -9.8946  -50.5869 H         1 UNK         0.0600 
    129 H129        3.8277   -8.7600  -49.9770 H         1 UNK         0.0600 
    130 H130        5.1689  -11.7542  -49.3518 H         1 UNK         0.3000 
    131 H131        5.5520  -11.7404  -46.5462 H         1 UNK         0.0600 
    132 H132        5.5574  -14.2093  -46.7098 H         1 UNK         0.0800 
    133 H133        6.5756  -13.4663  -47.8991 H         1 UNK         0.0800 
    134 H134        2.9431  -15.0921  -47.3965 H         1 UNK         0.0800 
    135 H135        4.2690  -16.2267  -47.3220 H         1 UNK         0.0800 
    136 H136        1.2094  -15.2739  -49.1700 H         1 UNK         0.1150 
    137 H137        0.9957  -18.9806  -51.3095 H         1 UNK         0.1150 
    138 H138        4.4036  -18.1154  -48.8622 H         1 UNK         0.1150 
    139 H139        3.6696  -20.0963  -51.4762 H         1 UNK         0.0800 
    140 H140        4.2204  -20.2706  -49.8259 H         1 UNK         0.0800 
    141 H141        0.7585  -20.1682  -48.6289 H         1 UNK         0.0800 
    142 H142        2.2883  -20.6199  -47.9258 H         1 UNK         0.0800 
    143 H143        1.4826  -23.0396  -47.8711 H         1 UNK         0.0600 
    144 H144        0.8000  -20.9543  -46.0757 H         1 UNK         0.3000 
    145 H145       -0.5152  -23.0618  -43.4826 H         1 UNK         0.0600 
    146 H146        1.2565  -21.8723  -42.2456 H         1 UNK         0.0600 
    147 H147        1.9855  -23.0595  -43.3158 H         1 UNK         0.0600 
    148 H148        2.0151  -21.3537  -43.7492 H         1 UNK         0.0600 
    149 H149       -0.2058  -20.2466  -43.5900 H         1 UNK         0.3000 
    150 H150       -3.4281  -19.5029  -45.0335 H         1 UNK         0.0600 
    151 H151       -3.7244  -19.8162  -42.5813 H         1 UNK         0.0600 
    152 H152       -3.4739  -18.1207  -42.9704 H         1 UNK         0.0600 
    153 H153       -2.1607  -19.0710  -42.2782 H         1 UNK         0.0600 
    154 H154       -1.3808  -17.7283  -44.2866 H         1 UNK         0.3000 
    155 H155        0.4512  -17.7309  -47.3818 H         1 UNK         0.0600 
    156 H156       -1.3132  -15.6907  -45.9158 H         1 UNK         0.0600 
    157 H157       -1.4532  -16.1512  -47.6074 H         1 UNK         0.0600 
    158 H158       -0.0192  -15.3069  -47.0483 H         1 UNK         0.0600 
    159 H159        0.8446  -16.4150  -44.8554 H         1 UNK         0.3000 
    160 H160        3.0554  -18.8303  -43.4523 H         1 UNK         0.0600 
    161 H161        4.4471  -16.7570  -43.3275 H         1 UNK         0.0600 
    162 H162        3.4820  -16.0171  -44.6030 H         1 UNK         0.0600 
    163 H163        4.4579  -17.4388  -44.9474 H         1 UNK         0.0600 
    164 H164        1.9732  -16.2750  -42.6195 H         1 UNK         0.3000 
    165 H165       -0.8393  -17.6125  -40.8677 H         1 UNK         0.0600 
    166 H166        0.2543  -16.6178  -38.8805 H         1 UNK         0.0600 
    167 H167        1.0394  -18.1316  -39.3006 H         1 UNK         0.0600 
    168 H168        1.8129  -16.6042  -39.7071 H         1 UNK         0.0600 
    169 H169        0.3011  -15.0128  -40.8627 H         1 UNK         0.3000 
    170 H170       -0.7792  -13.8232  -43.9606 H         1 UNK         0.0600 
    171 H171       -3.0057  -13.7902  -42.8099 H         1 UNK         0.0600 
    172 H172       -2.2346  -13.2194  -41.3340 H         1 UNK         0.0600 
    173 H173       -2.2309  -12.2150  -42.7855 H         1 UNK         0.0600 
    174 H174        0.0394  -12.1966  -41.9433 H         1 UNK         0.3000 
    175 H175        2.2394  -11.8189  -41.1497 H         1 UNK         0.0600 
    176 H176        4.3898  -13.0784  -42.9461 H         1 UNK         0.0600 
    177 H177        4.6665  -11.8612  -41.7032 H         1 UNK         0.0600 
    178 H178        4.1074  -13.4660  -41.2537 H         1 UNK         0.0600 
    179 H179        2.8488  -11.4549  -44.0507 H         1 UNK         0.3000 
    180 H180        0.5249   -8.8176  -44.3710 H         1 UNK         0.0600 
    181 H181        3.5786   -8.6111  -44.5888 H         1 UNK         0.0600 
    182 H182        2.5465   -7.5219  -43.6680 H         1 UNK         0.0600 
    183 H183        2.4111   -7.5841  -45.4190 H         1 UNK         0.0600 
    184 H184        2.3877  -10.0620  -46.1701 H         1 UNK         0.3000 
    185 H185        0.8717  -13.1140  -46.6133 H         1 UNK         0.0600 
    186 H186       -0.8964  -11.9671  -47.9604 H         1 UNK         0.0600 
    187 H187        0.3202  -10.9179  -48.6792 H         1 UNK         0.0600 
    188 H188        0.3466  -12.6547  -48.9918 H         1 UNK         0.0600 
    189 H189        2.6290  -11.7871  -48.3825 H         1 UNK         0.3000 
    190 H190       -1.5114  -21.0489  -47.6015 H         1 UNK         0.3000 
    191 H191       -2.9525  -22.2517  -49.7110 H         1 UNK         0.0600 
    192 H192       -3.9333  -20.9033  -47.1408 H         1 UNK         0.0600 
    193 H193       -4.9365  -21.2383  -48.5429 H         1 UNK         0.0600 
    194 H194       -3.6004  -20.1081  -48.6771 H         1 UNK         0.0600 
    195 H195       -2.7348  -23.1676  -46.2437 H         1 UNK         0.3000 
    196 H196       -4.5552  -25.3573  -46.3581 H         1 UNK         0.0600 
    197 H197       -3.4861  -26.0049  -44.1933 H         1 UNK         0.0600 
    198 H198       -3.8913  -24.2959  -44.2286 H         1 UNK         0.0600 
    199 H199       -2.2207  -24.8100  -44.4506 H         1 UNK         0.0600 
    200 H200       -0.9833  -25.1979  -46.8080 H         1 UNK         0.3000 
    201 H201       -0.5656  -27.9767  -47.2301 H         1 UNK         0.0600 
    202 H202        1.2654  -26.3973  -46.6905 H         1 UNK         0.0600 
    203 H203        1.0447  -25.5687  -48.2299 H         1 UNK         0.0600 
    204 H204        1.6105  -27.2335  -48.1966 H         1 UNK         0.0600 
    205 H205       -1.4917  -25.3736  -49.4701 H         1 UNK         0.3000 
    206 H206       -1.4458  -26.9691  -51.8673 H         1 UNK         0.0600 
    207 H207       -1.2697  -24.4605  -51.8166 H         1 UNK         0.0600 
    208 H208       -2.5610  -25.0224  -52.8600 H         1 UNK         0.0600 
    209 H209       -2.9435  -24.3610  -51.2749 H         1 UNK         0.0600 
    210 H210       -3.5476  -27.0237  -49.2235 H         1 UNK         0.3000 
    211 H211       -5.3080  -28.1318  -48.6243 H         1 UNK         0.0600 
    212 H212       -5.2061  -29.5883  -51.3138 H         1 UNK         0.0600 
    213 H213       -6.0924  -30.1023  -49.8869 H         1 UNK         0.0600 
    214 H214       -4.3366  -30.0506  -49.8511 H         1 UNK         0.0600 
    215 H215       -5.8078  -27.0105  -51.9699 H         1 UNK         0.3000 
    216 H216       -8.6807  -26.8055  -51.7568 H         1 UNK         0.0600 
    217 H217       -8.4313  -25.6033  -53.9642 H         1 UNK         0.0600 
    218 H218       -7.6004  -27.1514  -53.9282 H         1 UNK         0.0600 
    219 H219       -6.6822  -25.6575  -53.7712 H         1 UNK         0.0600 
    220 H220       -6.0467  -24.6279  -51.0369 H         1 UNK         0.3000 
    221 H221       -5.8033  -22.5950  -50.2552 H         1 UNK         0.0600 
    222 H222       -8.6257  -22.8735  -49.0832 H         1 UNK         0.0600 
    223 H223       -7.1723  -23.5721  -48.3736 H         1 UNK         0.0600 
    224 H224       -7.3428  -21.8334  -48.4772 H         1 UNK         0.0600 
    225 H225       -7.4446  -20.3746  -49.8221 H         1 UNK         0.3000 
    226 H226       -8.0165  -18.4657  -50.7923 H         1 UNK         0.0600 
    227 H227      -10.1894  -19.5998  -51.0168 H         1 UNK         0.0600 
    228 H228       -9.9430  -18.5444  -52.3947 H         1 UNK         0.0600 
    229 H229       -9.7381  -20.2874  -52.5691 H         1 UNK         0.0600 
    230 H230       -8.5586  -19.4875  -54.0204 H         1 UNK         0.3000 
    231 H231       -6.5394  -17.8560  -55.1694 H         1 UNK         0.0600 
    232 H232       -8.6642  -18.4194  -56.3199 H         1 UNK         0.0600 
    233 H233       -8.2098  -20.1231  -56.3844 H         1 UNK         0.0600 
    234 H234       -7.2983  -18.9278  -57.2994 H         1 UNK         0.0600 
    235 H235       -6.4051  -21.1810  -54.0340 H         1 UNK         0.3000 
    236 H236       -4.1891  -22.0763  -55.6034 H         1 UNK         0.0600 
    237 H237       -4.1955  -23.9804  -54.1262 H         1 UNK         0.0600 
    238 H238       -5.0345  -23.1035  -52.8542 H         1 UNK         0.0600 
    239 H239       -5.8748  -23.5246  -54.3482 H         1 UNK         0.0600 
    240 H240       -4.2710  -19.7503  -53.0960 H         1 UNK         0.3000 
    241 H241       -1.5704  -20.0299  -52.1419 H         1 UNK         0.0600 
    242 H242       -1.3374  -18.2058  -55.7987 H         1 UNK         0.3800 
    243 H243       -2.8714  -18.8315  -55.2520 H         1 UNK         0.3800 
    244 H244       -2.8375  -17.2725  -52.2236 H         1 UNK         0.0800 
    245 H245       -3.6857  -18.4812  -51.3204 H         1 UNK         0.0800 
    246 H246       -0.4355  -16.6624  -51.8638 H         1 UNK         0.0800 
    247 H247       -0.7825  -15.7912  -50.3913 H         1 UNK         0.0800 
@<TRIPOS>BOND
     1    1    2 1    
     2    1  127 1    
     3    1  128 1    
     4    1  129 1    
     5    2    3 2    
     6    2    4 am   BACKBONE|DICT|INTERRES
     7    4    5 1    
     8    4  130 1    
     9    5    6 1    
    10    5   65 1    
    11    5  131 1    
    12    6    7 1    
    13    6  132 1    
    14    6  133 1    
    15    7    8 1    
    16    8    9 1    
    17    8  134 1    
    18    8  135 1    
    19    9   10 ar   
    20    9   14 ar   
    21   10   11 ar   
    22   10  136 1    
    23   11   12 ar   
    24   11  126 1    
    25   12   13 ar   
    26   12  137 1    
    27   13   14 ar   
    28   13   15 1    
    29   14  138 1    
    30   15   16 1    
    31   15  139 1    
    32   15  140 1    
    33   16   17 1    
    34   17   18 1    
    35   17  141 1    
    36   17  142 1    
    37   18   19 1    
    38   18   67 1    
    39   18  143 1    
    40   19   20 am   BACKBONE|DICT|INTERRES
    41   19  144 1    
    42   20   21 2    
    43   20   22 1    
    44   22   23 1    
    45   22   24 1    
    46   22  145 1    
    47   23  146 1    
    48   23  147 1    
    49   23  148 1    
    50   24   25 am   BACKBONE|DICT|INTERRES
    51   24  149 1    
    52   25   26 2    
    53   25   27 1    
    54   27   28 1    
    55   27   29 1    
    56   27  150 1    
    57   28  151 1    
    58   28  152 1    
    59   28  153 1    
    60   29   30 am   BACKBONE|DICT|INTERRES
    61   29  154 1    
    62   30   31 2    
    63   30   32 1    
    64   32   33 1    
    65   32   34 1    
    66   32  155 1    
    67   33  156 1    
    68   33  157 1    
    69   33  158 1    
    70   34   35 am   BACKBONE|DICT|INTERRES
    71   34  159 1    
    72   35   36 2    
    73   35   37 1    
    74   37   38 1    
    75   37   39 1    
    76   37  160 1    
    77   38  161 1    
    78   38  162 1    
    79   38  163 1    
    80   39   40 am   BACKBONE|DICT|INTERRES
    81   39  164 1    
    82   40   41 2    
    83   40   42 1    
    84   42   43 1    
    85   42   44 1    
    86   42  165 1    
    87   43  166 1    
    88   43  167 1    
    89   43  168 1    
    90   44   45 am   BACKBONE|DICT|INTERRES
    91   44  169 1    
    92   45   46 2    
    93   45   47 1    
    94   47   48 1    
    95   47   49 1    
    96   47  170 1    
    97   48  171 1    
    98   48  172 1    
    99   48  173 1    
   100   49   50 am   BACKBONE|DICT|INTERRES
   101   49  174 1    
   102   50   51 2    
   103   50   52 1    
   104   52   53 1    
   105   52   54 1    
   106   52  175 1    
   107   53  176 1    
   108   53  177 1    
   109   53  178 1    
   110   54   55 am   BACKBONE|DICT|INTERRES
   111   54  179 1    
   112   55   56 2    
   113   55   57 1    
   114   57   58 1    
   115   57   59 1    
   116   57  180 1    
   117   58  181 1    
   118   58  182 1    
   119   58  183 1    
   120   59   60 am   BACKBONE|DICT|INTERRES
   121   59  184 1    
   122   60   61 2    
   123   60   62 1    
   124   62   63 1    
   125   62   64 1    
   126   62  185 1    
   127   63  186 1    
   128   63  187 1    
   129   63  188 1    
   130   64   65 am   BACKBONE|DICT|INTERRES
   131   64  189 1    
   132   65   66 2    
   133   67   68 2    
   134   67   69 am   BACKBONE|DICT|INTERRES
   135   69   70 1    
   136   69  190 1    
   137   70   71 1    
   138   70   72 1    
   139   70  191 1    
   140   71  192 1    
   141   71  193 1    
   142   71  194 1    
   143   72   73 2    
   144   72   74 am   BACKBONE|DICT|INTERRES
   145   74   75 1    
   146   74  195 1    
   147   75   76 1    
   148   75   77 1    
   149   75  196 1    
   150   76  197 1    
   151   76  198 1    
   152   76  199 1    
   153   77   78 2    
   154   77   79 am   BACKBONE|DICT|INTERRES
   155   79   80 1    
   156   79  200 1    
   157   80   81 1    
   158   80   82 1    
   159   80  201 1    
   160   81  202 1    
   161   81  203 1    
   162   81  204 1    
   163   82   83 2    
   164   82   84 am   BACKBONE|DICT|INTERRES
   165   84   85 1    
   166   84  205 1    
   167   85   86 1    
   168   85   87 1    
   169   85  206 1    
   170   86  207 1    
   171   86  208 1    
   172   86  209 1    
   173   87   88 2    
   174   87   89 am   BACKBONE|DICT|INTERRES
   175   89   90 1    
   176   89  210 1    
   177   90   91 1    
   178   90   92 1    
   179   90  211 1    
   180   91  212 1    
   181   91  213 1    
   182   91  214 1    
   183   92   93 2    
   184   92   94 am   BACKBONE|DICT|INTERRES
   185   94   95 1    
   186   94  215 1    
   187   95   96 1    
   188   95   97 1    
   189   95  216 1    
   190   96  217 1    
   191   96  218 1    
   192   96  219 1    
   193   97   98 2    
   194   97   99 am   BACKBONE|DICT|INTERRES
   195   99  100 1    
   196   99  220 1    
   197  100  101 1    
   198  100  102 1    
   199  100  221 1    
   200  101  222 1    
   201  101  223 1    
   202  101  224 1    
   203  102  103 2    
   204  102  104 am   BACKBONE|DICT|INTERRES
   205  104  105 1    
   206  104  225 1    
   207  105  106 1    
   208  105  107 1    
   209  105  226 1    
   210  106  227 1    
   211  106  228 1    
   212  106  229 1    
   213  107  108 2    
   214  107  109 am   BACKBONE|DICT|INTERRES
   215  109  110 1    
   216  109  230 1    
   217  110  111 1    
   218  110  112 1    
   219  110  231 1    
   220  111  232 1    
   221  111  233 1    
   222  111  234 1    
   223  112  113 2    
   224  112  114 am   BACKBONE|DICT|INTERRES
   225  114  115 1    
   226  114  235 1    
   227  115  116 1    
   228  115  117 1    
   229  115  236 1    
   230  116  237 1    
   231  116  238 1    
   232  116  239 1    
   233  117  118 2    
   234  117  119 am   BACKBONE|DICT|INTERRES
   235  119  120 1    
   236  119  240 1    
   237  120  121 1    
   238  120  124 1    
   239  120  241 1    
   240  121  122 am   BACKBONE|DICT|INTERRES
   241  121  123 2    
   242  122  242 1    
   243  122  243 1    
   244  124  125 1    
   245  124  244 1    
   246  124  245 1    
   247  125  126 1    
   248  126  246 1    
   249  126  247 1    
@<TRIPOS>SUBSTRUCTURE
     1 UNK         1 GROUP             0       ****    0 ROOT    
