@<TRIPOS>MOLECULE
3R540
247   249    1
SMALL
USER_CHARGES


@<TRIPOS>ATOM
      1 CA         -1.4657  -12.5438  -44.7794 C.3       0 UNK        -0.1800 
      2 C          -0.5035  -12.8613  -45.9142 C.2       0 UNK         0.5000 
      3 O          -0.0249  -13.9899  -46.0178 O.2       0 UNK        -0.5000 
      4 N          -0.2062  -11.8644  -46.7565 N.am      1 UNK        -0.5000 
      5 CA          0.6733  -11.9185  -47.9316 C.3       1 UNK         0.1400 
      6 C6          0.2228  -12.9606  -48.9925 C.3       23 UNK        -0.0398 
      7 S7          0.5194  -12.3983  -50.7037 S.3       23 UNK        -0.2404 
      8 C8          1.9998  -13.3441  -51.1828 C.3       23 UNK        -0.0205 
      9 C9          1.7411  -14.8430  -51.2274 C.ar      23 UNK        -0.0193 
     10 C10         0.9349  -15.3965  -52.2283 C.ar      23 UNK        -0.1150 
     11 C11         0.6987  -16.7747  -52.2671 C.ar      23 UNK        -0.0193 
     12 C12         1.2789  -17.5974  -51.2980 C.ar      23 UNK        -0.1150 
     13 C13         2.0761  -17.0549  -50.2890 C.ar      23 UNK        -0.0193 
     14 C14         2.3149  -15.6787  -50.2660 C.ar      23 UNK        -0.1150 
     15 C15         2.6666  -17.9579  -49.2193 C.3       23 UNK        -0.0205 
     16 S16         2.0619  -17.5450  -47.5536 S.3       23 UNK        -0.2404 
     17 C17         0.2546  -17.7376  -47.7059 C.3       23 UNK        -0.0398 
     18 CA         -0.2192  -19.2083  -47.6309 C.3       11 UNK         0.1400 
     19 N           0.2369  -19.9072  -46.4233 N.am      11 UNK        -0.5000 
     20 C           0.0882  -21.2214  -46.2039 C.2       10 UNK         0.5000 
     21 O          -0.4078  -21.9967  -47.0213 O.2       10 UNK        -0.5000 
     22 CA          0.5137  -21.7541  -44.8237 C.3       10 UNK         0.1400 
     23 CB          2.0231  -22.0352  -44.7742 C.3       10 UNK        -0.1800 
     24 N           0.1368  -20.8434  -43.7421 N.am      10 UNK        -0.5000 
     25 C          -1.1278  -20.6237  -43.3553 C.2       9 UNK         0.5000 
     26 O          -2.0985  -21.2050  -43.8405 O.2       9 UNK        -0.5000 
     27 CA         -1.3547  -19.5446  -42.2795 C.3       9 UNK         0.1400 
     28 CB         -1.1280  -20.1211  -40.8743 C.3       9 UNK        -0.1800 
     29 N          -0.5128  -18.3624  -42.4668 N.am      9 UNK        -0.5000 
     30 C          -0.5586  -17.5620  -43.5409 C.2       8 UNK         0.5000 
     31 O          -1.3569  -17.7070  -44.4652 O.2       8 UNK        -0.5000 
     32 CA          0.4906  -16.4397  -43.6252 C.3       8 UNK         0.1400 
     33 CB          0.0217  -15.2152  -42.8276 C.3       8 UNK        -0.1800 
     34 N           1.8292  -16.8361  -43.1810 N.am      8 UNK        -0.5000 
     35 C           2.5221  -17.8806  -43.6583 C.2       7 UNK         0.5000 
     36 O           2.1059  -18.6363  -44.5332 O.2       7 UNK        -0.5000 
     37 CA          3.8679  -18.1878  -42.9841 C.3       7 UNK         0.1400 
     38 CB          4.9677  -17.2057  -43.4141 C.3       7 UNK        -0.1800 
     39 N           3.7312  -18.2058  -41.5280 N.am      7 UNK        -0.5000 
     40 C           3.0834  -19.1731  -40.8613 C.2       6 UNK         0.5000 
     41 O           2.5920  -20.1656  -41.4006 O.2       6 UNK        -0.5000 
     42 CA          2.9359  -18.9908  -39.3415 C.3       6 UNK         0.1400 
     43 CB          4.1998  -19.4687  -38.6113 C.3       6 UNK        -0.1800 
     44 N           2.6473  -17.6112  -38.9521 N.am      6 UNK        -0.5000 
     45 C           1.5274  -16.9405  -39.2455 C.2       5 UNK         0.5000 
     46 O           0.6195  -17.4016  -39.9364 O.2       5 UNK        -0.5000 
     47 CA          1.4008  -15.5123  -38.6808 C.3       5 UNK         0.1400 
     48 CB          1.3116  -15.5126  -37.1423 C.3       5 UNK        -0.1800 
     49 N           2.4386  -14.5947  -39.1639 N.am      5 UNK        -0.5000 
     50 C           3.7658  -14.6358  -38.9761 C.2       4 UNK         0.5000 
     51 O           4.3256  -15.4597  -38.2502 O.2       4 UNK        -0.5000 
     52 CA          4.6196  -13.5857  -39.7253 C.3       4 UNK         0.1400 
     53 CB          5.8924  -14.2184  -40.3263 C.3       4 UNK        -0.1800 
     54 N           3.9094  -12.8054  -40.7532 N.am      4 UNK        -0.5000 
     55 C           3.3217  -13.2667  -41.8675 C.2       3 UNK         0.5000 
     56 O           3.1940  -14.4669  -42.1167 O.2       3 UNK        -0.5000 
     57 CA          2.7249  -12.2261  -42.8424 C.3       3 UNK         0.1400 
     58 CB          3.2644  -10.7910  -42.6495 C.3       3 UNK        -0.1800 
     59 N           2.8566  -12.6524  -44.2392 N.am      3 UNK        -0.5000 
     60 C           3.9950  -12.8651  -44.9186 C.2       2 UNK         0.5000 
     61 O           5.1203  -12.6468  -44.4682 O.2       2 UNK        -0.5000 
     62 CA          3.8571  -13.4235  -46.3478 C.3       2 UNK         0.1400 
     63 CB          4.1347  -14.9327  -46.3465 C.3       2 UNK        -0.1800 
     64 N           2.5309  -13.1794  -46.9205 N.am      2 UNK        -0.5000 
     65 C           2.1631  -12.0522  -47.5433 C.2       1 UNK         0.5000 
     66 O           2.9357  -11.1223  -47.7786 O.2       1 UNK        -0.5000 
     67 C          -1.7518  -19.2846  -47.7841 C.2       11 UNK         0.5000 
     68 O          -2.2398  -19.5820  -48.8738 O.2       11 UNK        -0.5000 
     69 N          -2.4810  -19.0618  -46.6810 N.am      12 UNK        -0.5000 
     70 CA         -3.9356  -19.1867  -46.6029 C.3       12 UNK         0.1400 
     71 CB         -4.4280  -18.6845  -45.2377 C.3       12 UNK        -0.1800 
     72 C          -4.4207  -20.6220  -46.8666 C.2       12 UNK         0.5000 
     73 O          -5.3857  -20.8022  -47.6073 O.2       12 UNK        -0.5000 
     74 N          -3.7240  -21.6173  -46.2986 N.am      13 UNK        -0.5000 
     75 CA         -3.9836  -23.0396  -46.5298 C.3       13 UNK         0.1400 
     76 CB         -3.1254  -23.8880  -45.5800 C.3       13 UNK        -0.1800 
     77 C          -3.7603  -23.4581  -47.9951 C.2       13 UNK         0.5000 
     78 O          -4.5525  -24.2367  -48.5247 O.2       13 UNK        -0.5000 
     79 N          -2.7148  -22.9106  -48.6317 N.am      14 UNK        -0.5000 
     80 CA         -2.4254  -23.0921  -50.0540 C.3       14 UNK         0.1400 
     81 CB         -1.0170  -22.5648  -50.3692 C.3       14 UNK        -0.1800 
     82 C          -3.4888  -22.4296  -50.9491 C.2       14 UNK         0.5000 
     83 O          -3.9819  -23.0654  -51.8779 O.2       14 UNK        -0.5000 
     84 N          -3.8714  -21.1852  -50.6318 N.am      15 UNK        -0.5000 
     85 CA         -4.9270  -20.4448  -51.3290 C.3       15 UNK         0.1400 
     86 CB         -4.9889  -19.0106  -50.7837 C.3       15 UNK        -0.1800 
     87 C          -6.3118  -21.1189  -51.2366 C.2       15 UNK         0.5000 
     88 O          -7.0857  -21.0486  -52.1907 O.2       15 UNK        -0.5000 
     89 N          -6.5865  -21.7729  -50.1011 N.am      16 UNK        -0.5000 
     90 CA         -7.8110  -22.5256  -49.8301 C.3       16 UNK         0.1400 
     91 CB         -8.0199  -22.5850  -48.3078 C.3       16 UNK        -0.1800 
     92 C          -7.8242  -23.9473  -50.4311 C.2       16 UNK         0.5000 
     93 O          -8.8585  -24.6128  -50.3463 O.2       16 UNK        -0.5000 
     94 N          -6.7012  -24.4110  -50.9998 N.am      17 UNK        -0.5000 
     95 CA         -6.5698  -25.7339  -51.6159 C.3       17 UNK         0.1400 
     96 CB         -5.0810  -26.0404  -51.8471 C.3       17 UNK        -0.1800 
     97 C          -7.3579  -25.8554  -52.9353 C.2       17 UNK         0.5000 
     98 O          -7.8136  -24.8509  -53.4898 O.2       17 UNK        -0.5000 
     99 N          -7.4819  -27.0957  -53.4284 N.am      18 UNK        -0.5000 
    100 CA        -8.1385  -27.4479  -54.6896 C.3       18 UNK         0.1400 
    101 CB        -8.0238  -28.9633  -54.9138 C.3       18 UNK        -0.1800 
    102 C         -7.5552  -26.6745  -55.8876 C.2       18 UNK         0.5000 
    103 O         -6.3338  -26.6340  -56.0499 O.2       18 UNK        -0.5000 
    104 N         -8.4458  -26.0440  -56.6654 N.am      19 UNK        -0.5000 
    105 CA        -8.1631  -25.1522  -57.7984 C.3       19 UNK         0.1400 
    106 CB        -7.4648  -25.9192  -58.9416 C.3       19 UNK        -0.1800 
    107 C         -7.4145  -23.8533  -57.4148 C.2       19 UNK         0.5000 
    108 O         -6.8651  -23.1946  -58.2993 O.2       19 UNK        -0.5000 
    109 N         -7.4189  -23.4986  -56.1183 N.am      20 UNK        -0.5000 
    110 CA        -6.7448  -22.3498  -55.5039 C.3       20 UNK         0.1400 
    111 CB        -7.4083  -21.0263  -55.9372 C.3       20 UNK        -0.1800 
    112 C         -5.2211  -22.3734  -55.7377 C.2       20 UNK         0.5000 
    113 O         -4.6395  -21.3744  -56.1685 O.2       20 UNK        -0.5000 
    114 N         -4.6083  -23.5367  -55.4780 N.am      21 UNK        -0.5000 
    115 CA        -3.1903  -23.8447  -55.6823 C.3       21 UNK         0.1400 
    116 CB        -3.0156  -25.3737  -55.6484 C.3       21 UNK        -0.1800 
    117 C         -2.2469  -23.1155  -54.6970 C.2       21 UNK         0.5000 
    118 O         -1.5132  -23.7588  -53.9444 O.2       21 UNK        -0.5000 
    119 N         -2.2857  -21.7788  -54.7308 N.am      22 UNK        -0.5000 
    120 CA        -1.4736  -20.8588  -53.9218 C.3       22 UNK         0.1400 
    121 C          0.0617  -20.9771  -54.1604 C.2       22 UNK         0.5000 
    122 N          0.5119  -21.3335  -55.3579 N.am      22 UNK        -0.7600 
    123 O          0.8526  -20.7604  -53.2476 O.2       22 UNK        -0.5000 
    124 C124       -1.9749  -19.4003  -54.1002 C.3       23 UNK        -0.0398 
    125 S125       -1.5727  -18.3163  -52.6902 S.3       23 UNK        -0.2404 
    126 C126       -0.1549  -17.3896  -53.3659 C.3       23 UNK        -0.0205 
    127 H127       -1.9823  -11.5976  -44.9416 H         1 UNK         0.0600 
    128 H128       -0.9264  -12.4801  -43.8349 H         1 UNK         0.0600 
    129 H129       -2.2176  -13.3284  -44.6944 H         1 UNK         0.0600 
    130 H130       -0.6168  -10.9565  -46.5861 H         1 UNK         0.3000 
    131 H131        0.5646  -10.9278  -48.3768 H         1 UNK         0.0600 
    132 H132        0.6602  -13.9434  -48.8151 H         1 UNK         0.0800 
    133 H133       -0.8542  -13.1162  -48.9176 H         1 UNK         0.0800 
    134 H134        2.8148  -13.1084  -50.4964 H         1 UNK         0.0800 
    135 H135        2.3265  -13.0105  -52.1686 H         1 UNK         0.0800 
    136 H136        0.4928  -14.7509  -52.9743 H         1 UNK         0.1150 
    137 H137        1.0967  -18.6630  -51.3282 H         1 UNK         0.1150 
    138 H138        2.9334  -15.2585  -49.4856 H         1 UNK         0.1150 
    139 H139        3.7528  -17.8611  -49.2329 H         1 UNK         0.0800 
    140 H140        2.4491  -19.0067  -49.4263 H         1 UNK         0.0800 
    141 H141       -0.0778  -17.2730  -48.6355 H         1 UNK         0.0800 
    142 H142       -0.1993  -17.1514  -46.9053 H         1 UNK         0.0800 
    143 H143        0.2103  -19.7362  -48.4849 H         1 UNK         0.0600 
    144 H144        0.7160  -19.3466  -45.7236 H         1 UNK         0.3000 
    145 H145       -0.0048  -22.7010  -44.6596 H         1 UNK         0.0600 
    146 H146        2.3028  -22.7765  -45.5236 H         1 UNK         0.0600 
    147 H147        2.3197  -22.4268  -43.8010 H         1 UNK         0.0600 
    148 H148        2.6132  -21.1398  -44.9677 H         1 UNK         0.0600 
    149 H149        0.8793  -20.2930  -43.3297 H         1 UNK         0.3000 
    150 H150       -2.3958  -19.2233  -42.3499 H         1 UNK         0.0600 
    151 H151       -0.0898  -20.4184  -40.7235 H         1 UNK         0.0600 
    152 H152       -1.7506  -21.0010  -40.7072 H         1 UNK         0.0600 
    153 H153       -1.3820  -19.3925  -40.1043 H         1 UNK         0.0600 
    154 H154        0.1296  -18.1343  -41.7141 H         1 UNK         0.3000 
    155 H155        0.5740  -16.1573  -44.6756 H         1 UNK         0.0600 
    156 H156        0.6338  -14.3463  -43.0580 H         1 UNK         0.0600 
    157 H157        0.0683  -15.3885  -41.7526 H         1 UNK         0.0600 
    158 H158       -1.0086  -14.9576  -43.0749 H         1 UNK         0.0600 
    159 H159        2.2778  -16.2237  -42.5083 H         1 UNK         0.3000 
    160 H160        4.1780  -19.1842  -43.3074 H         1 UNK         0.0600 
    161 H161        4.7320  -16.1769  -43.1495 H         1 UNK         0.0600 
    162 H162        5.1098  -17.2394  -44.4947 H         1 UNK         0.0600 
    163 H163        5.9229  -17.4583  -42.9539 H         1 UNK         0.0600 
    164 H164        4.0824  -17.4091  -41.0177 H         1 UNK         0.3000 
    165 H165        2.0984  -19.6112  -39.0153 H         1 UNK         0.0600 
    166 H166        4.4351  -20.5015  -38.8718 H         1 UNK         0.0600 
    167 H167        5.0672  -18.8585  -38.8661 H         1 UNK         0.0600 
    168 H168        4.0683  -19.4287  -37.5298 H         1 UNK         0.0600 
    169 H169        3.3677  -17.1098  -38.4401 H         1 UNK         0.3000 
    170 H170        0.4573  -15.1134  -39.0570 H         1 UNK         0.0600 
    171 H171        1.1354  -14.5073  -36.7599 H         1 UNK         0.0600 
    172 H172        2.2197  -15.8927  -36.6742 H         1 UNK         0.0600 
    173 H173        0.4855  -16.1385  -36.8026 H         1 UNK         0.0600 
    174 H174        2.1094  -13.8877  -39.8048 H         1 UNK         0.3000 
    175 H175        4.9358  -12.8673  -38.9679 H         1 UNK         0.0600 
    176 H176        5.6541  -14.9999  -41.0482 H         1 UNK         0.0600 
    177 H177        6.5136  -14.6690  -39.5513 H         1 UNK         0.0600 
    178 H178        6.5026  -13.4708  -40.8330 H         1 UNK         0.0600 
    179 H179        3.9318  -11.8040  -40.6195 H         1 UNK         0.3000 
    180 H180        1.6546  -12.1992  -42.6353 H         1 UNK         0.0600 
    181 H181        4.3511  -10.7468  -42.7301 H         1 UNK         0.0600 
    182 H182        2.9862  -10.3892  -41.6747 H         1 UNK         0.0600 
    183 H183        2.8506  -10.1157  -43.3986 H         1 UNK         0.0600 
    184 H184        1.9962  -12.9057  -44.7011 H         1 UNK         0.3000 
    185 H185        4.6145  -12.9403  -46.9687 H         1 UNK         0.0600 
    186 H186        5.1204  -15.1483  -45.9326 H         1 UNK         0.0600 
    187 H187        3.4016  -15.4751  -45.7478 H         1 UNK         0.0600 
    188 H188        4.1156  -15.3375  -47.3576 H         1 UNK         0.0600 
    189 H189        1.8051  -13.8596  -46.7136 H         1 UNK         0.3000 
    190 H190       -2.0068  -18.7652  -45.8303 H         1 UNK         0.3000 
    191 H191       -4.3645  -18.5445  -47.3746 H         1 UNK         0.0600 
    192 H192       -4.1565  -17.6404  -45.0813 H         1 UNK         0.0600 
    193 H193       -5.5141  -18.7533  -45.1646 H         1 UNK         0.0600 
    194 H194       -4.0053  -19.2655  -44.4178 H         1 UNK         0.0600 
    195 H195       -2.9725  -21.3889  -45.6559 H         1 UNK         0.3000 
    196 H196       -5.0328  -23.2256  -46.2911 H         1 UNK         0.0600 
    197 H197       -3.3264  -24.9511  -45.7177 H         1 UNK         0.0600 
    198 H198       -3.3376  -23.6495  -44.5377 H         1 UNK         0.0600 
    199 H199       -2.0603  -23.7312  -45.7491 H         1 UNK         0.0600 
    200 H200       -2.0749  -22.3239  -48.1054 H         1 UNK         0.3000 
    201 H201       -2.4355  -24.1639  -50.2627 H         1 UNK         0.0600 
    202 H202       -0.7396  -22.7928  -51.3987 H         1 UNK         0.0600 
    203 H203       -0.2691  -23.0272  -49.7249 H         1 UNK         0.0600 
    204 H204       -0.9458  -21.4847  -50.2411 H         1 UNK         0.0600 
    205 H205       -3.3916  -20.6984  -49.8780 H         1 UNK         0.3000 
    206 H206       -4.6528  -20.3977  -52.3849 H         1 UNK         0.0600 
    207 H207       -4.0296  -18.5046  -50.8899 H         1 UNK         0.0600 
    208 H208       -5.7306  -18.4197  -51.3223 H         1 UNK         0.0600 
    209 H209       -5.2583  -18.9944  -49.7275 H         1 UNK         0.0600 
    210 H210       -5.9194  -21.7130  -49.3385 H         1 UNK         0.3000 
    211 H211       -8.6548  -21.9859  -50.2647 H         1 UNK         0.0600 
    212 H212       -8.0826  -21.5846  -47.8792 H         1 UNK         0.0600 
    213 H213       -8.9458  -23.1029  -48.0551 H         1 UNK         0.0600 
    214 H214       -7.2025  -23.1108  -47.8130 H         1 UNK         0.0600 
    215 H215       -5.8934  -23.8037  -51.0585 H         1 UNK         0.3000 
    216 H216       -6.9669  -26.4698  -50.9137 H         1 UNK         0.0600 
    217 H217       -4.6646  -25.4257  -52.6452 H         1 UNK         0.0600 
    218 H218       -4.9324  -27.0822  -52.1324 H         1 UNK         0.0600 
    219 H219       -4.4936  -25.8659  -50.9453 H         1 UNK         0.0600 
    220 H220       -7.0540  -27.8598  -52.9266 H         1 UNK         0.3000 
    221 H221       -9.1960  -27.1963  -54.5858 H         1 UNK         0.0600 
    222 H222       -6.9827  -29.2811  -54.9855 H         1 UNK         0.0600 
    223 H223       -8.4907  -29.5205  -54.1014 H         1 UNK         0.0600 
    224 H224       -8.5215  -29.2597  -55.8381 H         1 UNK         0.0600 
    225 H225       -9.4249  -26.1309  -56.4291 H         1 UNK         0.3000 
    226 H226       -9.1361  -24.8298  -58.1718 H         1 UNK         0.0600 
    227 H227       -8.0072  -26.8299  -59.1954 H         1 UNK         0.0600 
    228 H228       -7.4134  -25.3126  -59.8464 H         1 UNK         0.0600 
    229 H229       -6.4437  -26.1978  -58.6798 H         1 UNK         0.0600 
    230 H230       -7.8642  -24.1230  -55.4544 H         1 UNK         0.3000 
    231 H231       -6.8873  -22.4520  -54.4281 H         1 UNK         0.0600 
    232 H232       -7.2747  -20.8321  -57.0017 H         1 UNK         0.0600 
    233 H233       -6.9811  -20.1829  -55.3934 H         1 UNK         0.0600 
    234 H234       -8.4780  -21.0365  -55.7283 H         1 UNK         0.0600 
    235 H235       -5.1768  -24.3013  -55.1423 H         1 UNK         0.3000 
    236 H236       -2.9178  -23.5083  -56.6846 H         1 UNK         0.0600 
    237 H237       -3.2969  -25.7899  -54.6806 H         1 UNK         0.0600 
    238 H238       -3.6273  -25.8571  -56.4105 H         1 UNK         0.0600 
    239 H239       -1.9796  -25.6555  -55.8404 H         1 UNK         0.0600 
    240 H240       -2.9681  -21.3579  -55.3560 H         1 UNK         0.3000 
    241 H241       -1.6492  -21.1425  -52.8842 H         1 UNK         0.0600 
    242 H242       -0.1256  -21.5266  -56.1137 H         1 UNK         0.3800 
    243 H243        1.5049  -21.4203  -55.5063 H         1 UNK         0.3800 
    244 H244       -1.6106  -18.9670  -55.0334 H         1 UNK         0.0800 
    245 H245       -3.0629  -19.3923  -54.1815 H         1 UNK         0.0800 
    246 H246        0.4785  -18.0523  -53.9561 H         1 UNK         0.0800 
    247 H247       -0.5256  -16.6241  -54.0492 H         1 UNK         0.0800 
@<TRIPOS>BOND
     1    1    2 1    
     2    1  127 1    
     3    1  128 1    
     4    1  129 1    
     5    2    3 2    
     6    2    4 am   BACKBONE|DICT|INTERRES
     7    4    5 1    
     8    4  130 1    
     9    5    6 1    
    10    5   65 1    
    11    5  131 1    
    12    6    7 1    
    13    6  132 1    
    14    6  133 1    
    15    7    8 1    
    16    8    9 1    
    17    8  134 1    
    18    8  135 1    
    19    9   10 ar   
    20    9   14 ar   
    21   10   11 ar   
    22   10  136 1    
    23   11   12 ar   
    24   11  126 1    
    25   12   13 ar   
    26   12  137 1    
    27   13   14 ar   
    28   13   15 1    
    29   14  138 1    
    30   15   16 1    
    31   15  139 1    
    32   15  140 1    
    33   16   17 1    
    34   17   18 1    
    35   17  141 1    
    36   17  142 1    
    37   18   19 1    
    38   18   67 1    
    39   18  143 1    
    40   19   20 am   BACKBONE|DICT|INTERRES
    41   19  144 1    
    42   20   21 2    
    43   20   22 1    
    44   22   23 1    
    45   22   24 1    
    46   22  145 1    
    47   23  146 1    
    48   23  147 1    
    49   23  148 1    
    50   24   25 am   BACKBONE|DICT|INTERRES
    51   24  149 1    
    52   25   26 2    
    53   25   27 1    
    54   27   28 1    
    55   27   29 1    
    56   27  150 1    
    57   28  151 1    
    58   28  152 1    
    59   28  153 1    
    60   29   30 am   BACKBONE|DICT|INTERRES
    61   29  154 1    
    62   30   31 2    
    63   30   32 1    
    64   32   33 1    
    65   32   34 1    
    66   32  155 1    
    67   33  156 1    
    68   33  157 1    
    69   33  158 1    
    70   34   35 am   BACKBONE|DICT|INTERRES
    71   34  159 1    
    72   35   36 2    
    73   35   37 1    
    74   37   38 1    
    75   37   39 1    
    76   37  160 1    
    77   38  161 1    
    78   38  162 1    
    79   38  163 1    
    80   39   40 am   BACKBONE|DICT|INTERRES
    81   39  164 1    
    82   40   41 2    
    83   40   42 1    
    84   42   43 1    
    85   42   44 1    
    86   42  165 1    
    87   43  166 1    
    88   43  167 1    
    89   43  168 1    
    90   44   45 am   BACKBONE|DICT|INTERRES
    91   44  169 1    
    92   45   46 2    
    93   45   47 1    
    94   47   48 1    
    95   47   49 1    
    96   47  170 1    
    97   48  171 1    
    98   48  172 1    
    99   48  173 1    
   100   49   50 am   BACKBONE|DICT|INTERRES
   101   49  174 1    
   102   50   51 2    
   103   50   52 1    
   104   52   53 1    
   105   52   54 1    
   106   52  175 1    
   107   53  176 1    
   108   53  177 1    
   109   53  178 1    
   110   54   55 am   BACKBONE|DICT|INTERRES
   111   54  179 1    
   112   55   56 2    
   113   55   57 1    
   114   57   58 1    
   115   57   59 1    
   116   57  180 1    
   117   58  181 1    
   118   58  182 1    
   119   58  183 1    
   120   59   60 am   BACKBONE|DICT|INTERRES
   121   59  184 1    
   122   60   61 2    
   123   60   62 1    
   124   62   63 1    
   125   62   64 1    
   126   62  185 1    
   127   63  186 1    
   128   63  187 1    
   129   63  188 1    
   130   64   65 am   BACKBONE|DICT|INTERRES
   131   64  189 1    
   132   65   66 2    
   133   67   68 2    
   134   67   69 am   BACKBONE|DICT|INTERRES
   135   69   70 1    
   136   69  190 1    
   137   70   71 1    
   138   70   72 1    
   139   70  191 1    
   140   71  192 1    
   141   71  193 1    
   142   71  194 1    
   143   72   73 2    
   144   72   74 am   BACKBONE|DICT|INTERRES
   145   74   75 1    
   146   74  195 1    
   147   75   76 1    
   148   75   77 1    
   149   75  196 1    
   150   76  197 1    
   151   76  198 1    
   152   76  199 1    
   153   77   78 2    
   154   77   79 am   BACKBONE|DICT|INTERRES
   155   79   80 1    
   156   79  200 1    
   157   80   81 1    
   158   80   82 1    
   159   80  201 1    
   160   81  202 1    
   161   81  203 1    
   162   81  204 1    
   163   82   83 2    
   164   82   84 am   BACKBONE|DICT|INTERRES
   165   84   85 1    
   166   84  205 1    
   167   85   86 1    
   168   85   87 1    
   169   85  206 1    
   170   86  207 1    
   171   86  208 1    
   172   86  209 1    
   173   87   88 2    
   174   87   89 am   BACKBONE|DICT|INTERRES
   175   89   90 1    
   176   89  210 1    
   177   90   91 1    
   178   90   92 1    
   179   90  211 1    
   180   91  212 1    
   181   91  213 1    
   182   91  214 1    
   183   92   93 2    
   184   92   94 am   BACKBONE|DICT|INTERRES
   185   94   95 1    
   186   94  215 1    
   187   95   96 1    
   188   95   97 1    
   189   95  216 1    
   190   96  217 1    
   191   96  218 1    
   192   96  219 1    
   193   97   98 2    
   194   97   99 am   BACKBONE|DICT|INTERRES
   195   99  100 1    
   196   99  220 1    
   197  100  101 1    
   198  100  102 1    
   199  100  221 1    
   200  101  222 1    
   201  101  223 1    
   202  101  224 1    
   203  102  103 2    
   204  102  104 am   BACKBONE|DICT|INTERRES
   205  104  105 1    
   206  104  225 1    
   207  105  106 1    
   208  105  107 1    
   209  105  226 1    
   210  106  227 1    
   211  106  228 1    
   212  106  229 1    
   213  107  108 2    
   214  107  109 am   BACKBONE|DICT|INTERRES
   215  109  110 1    
   216  109  230 1    
   217  110  111 1    
   218  110  112 1    
   219  110  231 1    
   220  111  232 1    
   221  111  233 1    
   222  111  234 1    
   223  112  113 2    
   224  112  114 am   BACKBONE|DICT|INTERRES
   225  114  115 1    
   226  114  235 1    
   227  115  116 1    
   228  115  117 1    
   229  115  236 1    
   230  116  237 1    
   231  116  238 1    
   232  116  239 1    
   233  117  118 2    
   234  117  119 am   BACKBONE|DICT|INTERRES
   235  119  120 1    
   236  119  240 1    
   237  120  121 1    
   238  120  124 1    
   239  120  241 1    
   240  121  122 am   BACKBONE|DICT|INTERRES
   241  121  123 2    
   242  122  242 1    
   243  122  243 1    
   244  124  125 1    
   245  124  244 1    
   246  124  245 1    
   247  125  126 1    
   248  126  246 1    
   249  126  247 1    
@<TRIPOS>SUBSTRUCTURE
     1 UNK         1 GROUP             0       ****    0 ROOT    
