@<TRIPOS>MOLECULE
3R540
247   249    1
SMALL
USER_CHARGES


@<TRIPOS>ATOM
      1 CA         -1.8339  -11.6405  -47.3130 C.3       0 UNK        -0.1800 
      2 C          -0.6800  -11.8977  -48.2727 C.2       0 UNK         0.5000 
      3 O          -0.4976  -11.1413  -49.2265 O.2       0 UNK        -0.5000 
      4 N           0.0986  -12.9521  -48.0106 N.am      1 UNK        -0.5000 
      5 CA          1.2840  -13.3571  -48.7780 C.3       1 UNK         0.1400 
      6 C6          1.1122  -14.7761  -49.3800 C.3       23 UNK        -0.0398 
      7 S7         -0.1243  -14.8137  -50.7262 S.3       23 UNK        -0.2404 
      8 C8          0.8266  -15.5487  -52.1003 C.3       23 UNK        -0.0205 
      9 C9          0.8719  -17.0655  -51.9882 C.ar      23 UNK        -0.0193 
     10 C10        -0.0745  -17.8480  -52.6559 C.ar      23 UNK        -0.1150 
     11 C11        -0.0903  -19.2360  -52.4947 C.ar      23 UNK        -0.0193 
     12 C12         0.8552  -19.8434  -51.6648 C.ar      23 UNK        -0.1150 
     13 C13         1.8147  -19.0726  -51.0026 C.ar      23 UNK        -0.0193 
     14 C14         1.8340  -17.6883  -51.1888 C.ar      23 UNK        -0.1150 
     15 C15         2.7781  -19.7260  -50.0225 C.3       23 UNK        -0.0205 
     16 S16         2.5404  -19.1220  -48.3148 S.3       23 UNK        -0.2404 
     17 C17         0.7527  -19.3880  -48.0541 C.3       23 UNK        -0.0398 
     18 CA          0.4576  -20.7579  -47.3928 C.3       11 UNK         0.1400 
     19 N           0.2276  -20.6265  -45.9539 N.am      11 UNK        -0.5000 
     20 C           0.1796  -21.6428  -45.0837 C.2       10 UNK         0.5000 
     21 O           0.3828  -22.8186  -45.3871 O.2       10 UNK        -0.5000 
     22 CA         -0.2155  -21.2752  -43.6414 C.3       10 UNK         0.1400 
     23 CB          1.0086  -20.7977  -42.8454 C.3       10 UNK        -0.1800 
     24 N          -1.2595  -20.2461  -43.6014 N.am      10 UNK        -0.5000 
     25 C          -2.5232  -20.4488  -44.0011 C.2       9 UNK         0.5000 
     26 O          -2.9453  -21.5371  -44.3904 O.2       9 UNK        -0.5000 
     27 CA         -3.4578  -19.2244  -44.0268 C.3       9 UNK         0.1400 
     28 CB         -4.1918  -19.0571  -42.6884 C.3       9 UNK        -0.1800 
     29 N          -2.7871  -17.9697  -44.3848 N.am      9 UNK        -0.5000 
     30 C          -2.2468  -17.7303  -45.5921 C.2       8 UNK         0.5000 
     31 O          -2.1677  -18.5880  -46.4695 O.2       8 UNK        -0.5000 
     32 CA         -1.6896  -16.3298  -45.8933 C.3       8 UNK         0.1400 
     33 CB         -2.6097  -15.5718  -46.8652 C.3       8 UNK        -0.1800 
     34 N          -1.4798  -15.5471  -44.6801 N.am      8 UNK        -0.5000 
     35 C          -0.5772  -14.5812  -44.5186 C.2       7 UNK         0.5000 
     36 O           0.1686  -14.1920  -45.4180 O.2       7 UNK        -0.5000 
     37 CA         -0.4667  -13.9582  -43.1153 C.3       7 UNK         0.1400 
     38 CB         -1.6215  -12.9735  -42.8591 C.3       7 UNK        -0.1800 
     39 N          -0.3366  -14.9247  -42.0151 N.am      7 UNK        -0.5000 
     40 C          -1.2032  -15.8535  -41.5755 C.2       6 UNK         0.5000 
     41 O          -2.2853  -16.0933  -42.1162 O.2       6 UNK        -0.5000 
     42 CA         -0.7972  -16.6744  -40.3333 C.3       6 UNK         0.1400 
     43 CB         -0.5060  -18.1338  -40.7128 C.3       6 UNK        -0.1800 
     44 N           0.3714  -16.1321  -39.6410 N.am      6 UNK        -0.5000 
     45 C           0.3572  -15.0697  -38.8234 C.2       5 UNK         0.5000 
     46 O          -0.6690  -14.4657  -38.5099 O.2       5 UNK        -0.5000 
     47 CA          1.7170  -14.5881  -38.2749 C.3       5 UNK         0.1400 
     48 CB          1.8947  -15.0309  -36.8144 C.3       5 UNK        -0.1800 
     49 N           2.8697  -15.0532  -39.0536 N.am      5 UNK        -0.5000 
     50 C           3.1427  -14.6977  -40.3163 C.2       4 UNK         0.5000 
     51 O           2.4490  -13.9043  -40.9582 O.2       4 UNK        -0.5000 
     52 CA          4.3791  -15.3458  -40.9806 C.3       4 UNK         0.1400 
     53 CB          4.8500  -16.6477  -40.2931 C.3       4 UNK        -0.1800 
     54 N           4.1735  -15.5749  -42.4133 N.am      4 UNK        -0.5000 
     55 C           3.2101  -16.3050  -42.9915 C.2       3 UNK         0.5000 
     56 O           2.3674  -16.9471  -42.3623 O.2       3 UNK        -0.5000 
     57 CA          3.1706  -16.2691  -44.5339 C.3       3 UNK         0.1400 
     58 CB          2.0765  -17.1805  -45.1199 C.3       3 UNK        -0.1800 
     59 N           2.9671  -14.9067  -45.0321 N.am      3 UNK        -0.5000 
     60 C           3.9030  -13.9495  -45.1071 C.2       2 UNK         0.5000 
     61 O           5.0727  -14.1198  -44.7559 O.2       2 UNK        -0.5000 
     62 CA          3.4421  -12.5762  -45.6409 C.3       2 UNK         0.1400 
     63 CB          4.6110  -11.6727  -46.0864 C.3       2 UNK        -0.1800 
     64 N           2.4271  -12.6885  -46.6937 N.am      2 UNK        -0.5000 
     65 C           2.5550  -13.2637  -47.9010 C.2       1 UNK         0.5000 
     66 O           3.6182  -13.7147  -48.3289 O.2       1 UNK        -0.5000 
     67 C          -0.7215  -21.4731  -48.0800 C.2       11 UNK         0.5000 
     68 O          -0.4924  -22.3681  -48.8910 O.2       11 UNK        -0.5000 
     69 N          -1.9561  -21.0988  -47.7151 N.am      12 UNK        -0.5000 
     70 CA         -3.1898  -21.7312  -48.1794 C.3       12 UNK         0.1400 
     71 CB         -4.4048  -20.9651  -47.6392 C.3       12 UNK        -0.1800 
     72 C          -3.2715  -23.2142  -47.7847 C.2       12 UNK         0.5000 
     73 O          -3.6310  -24.0380  -48.6227 O.2       12 UNK        -0.5000 
     74 N          -2.8992  -23.5358  -46.5374 N.am      13 UNK        -0.5000 
     75 CA         -2.8112  -24.9046  -46.0271 C.3       13 UNK         0.1400 
     76 CB         -2.5072  -24.8816  -44.5218 C.3       13 UNK        -0.1800 
     77 C          -1.7763  -25.7525  -46.7889 C.2       13 UNK         0.5000 
     78 O          -2.0914  -26.8742  -47.1885 O.2       13 UNK        -0.5000 
     79 N          -0.5857  -25.1831  -47.0303 N.am      14 UNK        -0.5000 
     80 CA          0.4808  -25.7929  -47.8310 C.3       14 UNK         0.1400 
     81 CB          1.7491  -24.9316  -47.7341 C.3       14 UNK        -0.1800 
     82 C           0.0813  -26.0153  -49.3042 C.2       14 UNK         0.5000 
     83 O           0.4706  -27.0221  -49.8963 O.2       14 UNK        -0.5000 
     84 N          -0.7220  -25.0947  -49.8514 N.am      15 UNK        -0.5000 
     85 CA         -1.2966  -25.1474  -51.1960 C.3       15 UNK         0.1400 
     86 CB         -1.5680  -23.7101  -51.6683 C.3       15 UNK        -0.1800 
     87 C          -2.5691  -26.0183  -51.2980 C.2       15 UNK         0.5000 
     88 O          -3.1966  -26.0285  -52.3568 O.2       15 UNK        -0.5000 
     89 N          -2.9373  -26.7266  -50.2191 N.am      16 UNK        -0.5000 
     90 CA         -4.0835  -27.6351  -50.1032 C.3       16 UNK         0.1400 
     91 CB         -3.9206  -28.8539  -51.0362 C.3       16 UNK        -0.1800 
     92 C          -5.4392  -26.9157  -50.2654 C.2       16 UNK         0.5000 
     93 O          -6.3048  -27.3712  -51.0143 O.2       16 UNK        -0.5000 
     94 N          -5.5815  -25.7979  -49.5416 N.am      17 UNK        -0.5000 
     95 CA         -6.7433  -24.9090  -49.4300 C.3       17 UNK         0.1400 
     96 CB         -8.0373  -25.6744  -49.0828 C.3       17 UNK        -0.1800 
     97 C          -6.9222  -23.9431  -50.6169 C.2       17 UNK         0.5000 
     98 O          -7.9021  -23.1957  -50.6389 O.2       17 UNK        -0.5000 
     99 N          -5.9668  -23.9160  -51.5559 N.am      18 UNK        -0.5000 
    100 CA        -5.9068  -22.9488  -52.6516 C.3       18 UNK         0.1400 
    101 CB        -5.1179  -23.5549  -53.8239 C.3       18 UNK        -0.1800 
    102 C         -5.3066  -21.6196  -52.1538 C.2       18 UNK         0.5000 
    103 O         -4.1562  -21.3027  -52.4564 O.2       18 UNK        -0.5000 
    104 N         -6.0877  -20.8840  -51.3535 N.am      19 UNK        -0.5000 
    105 CA        -5.7302  -19.5793  -50.8015 C.3       19 UNK         0.1400 
    106 CB        -6.8020  -19.1470  -49.7878 C.3       19 UNK        -0.1800 
    107 C         -5.5739  -18.5268  -51.9123 C.2       19 UNK         0.5000 
    108 O         -6.5337  -18.2766  -52.6455 O.2       19 UNK        -0.5000 
    109 N         -4.3698  -17.9473  -52.0133 N.am      20 UNK        -0.5000 
    110 CA        -3.9123  -16.9279  -52.9675 C.3       20 UNK         0.1400 
    111 CB        -4.7115  -15.6192  -52.8198 C.3       20 UNK        -0.1800 
    112 C         -3.8711  -17.3960  -54.4373 C.2       20 UNK         0.5000 
    113 O         -2.8298  -17.2841  -55.0837 O.2       20 UNK        -0.5000 
    114 N         -4.9904  -17.9236  -54.9398 N.am      21 UNK        -0.5000 
    115 CA        -5.2101  -18.3462  -56.3216 C.3       21 UNK         0.1400 
    116 CB        -6.7039  -18.1658  -56.6485 C.3       21 UNK        -0.1800 
    117 C         -4.7107  -19.7810  -56.5977 C.2       21 UNK         0.5000 
    118 O         -5.4309  -20.5746  -57.2065 O.2       21 UNK        -0.5000 
    119 N         -3.4872  -20.0952  -56.1557 N.am      22 UNK        -0.5000 
    120 CA        -2.8061  -21.3733  -56.4292 C.3       22 UNK         0.1400 
    121 C         -2.0681  -21.4350  -57.8002 C.2       22 UNK         0.5000 
    122 N         -1.9724  -20.3487  -58.5580 N.am      22 UNK        -0.7600 
    123 O         -1.5908  -22.4954  -58.1950 O.2       22 UNK        -0.5000 
    124 C124       -1.9019  -21.8186  -55.2526 C.3       23 UNK        -0.0398 
    125 S125       -0.5781  -20.6374  -54.8186 S.3       23 UNK        -0.2404 
    126 C126       -1.1462  -20.0801  -53.1857 C.3       23 UNK        -0.0205 
    127 H127       -1.7831  -12.2834  -46.4340 H         1 UNK         0.0600 
    128 H128       -2.7849  -11.8217  -47.8138 H         1 UNK         0.0600 
    129 H129       -1.8174  -10.6048  -46.9734 H         1 UNK         0.0600 
    130 H130       -0.0823  -13.5114  -47.1808 H         1 UNK         0.3000 
    131 H131        1.4558  -12.6625  -49.6026 H         1 UNK         0.0600 
    132 H132        2.0617  -15.1323  -49.7770 H         1 UNK         0.0800 
    133 H133        0.8186  -15.4924  -48.6106 H         1 UNK         0.0800 
    134 H134        0.3553  -15.2622  -53.0417 H         1 UNK         0.0800 
    135 H135        1.8356  -15.1348  -52.1307 H         1 UNK         0.0800 
    136 H136       -0.8066  -17.3753  -53.2931 H         1 UNK         0.1150 
    137 H137        0.8271  -20.9142  -51.5170 H         1 UNK         0.1150 
    138 H138        2.5728  -17.0982  -50.6675 H         1 UNK         0.1150 
    139 H139        2.6631  -20.8111  -50.0308 H         1 UNK         0.0800 
    140 H140        3.8027  -19.5207  -50.3347 H         1 UNK         0.0800 
    141 H141        0.2189  -19.2605  -48.9953 H         1 UNK         0.0800 
    142 H142        0.3860  -18.5695  -47.4350 H         1 UNK         0.0800 
    143 H143        1.3221  -21.4126  -47.5245 H         1 UNK         0.0600 
    144 H144       -0.0047  -19.7045  -45.6204 H         1 UNK         0.3000 
    145 H145       -0.6018  -22.1779  -43.1632 H         1 UNK         0.0600 
    146 H146        0.7621  -20.6593  -41.7929 H         1 UNK         0.0600 
    147 H147        1.8154  -21.5303  -42.8926 H         1 UNK         0.0600 
    148 H148        1.3997  -19.8535  -43.2262 H         1 UNK         0.0600 
    149 H149       -0.9886  -19.3224  -43.3015 H         1 UNK         0.3000 
    150 H150       -4.2139  -19.4170  -44.7903 H         1 UNK         0.0600 
    151 H151       -4.7066  -19.9768  -42.4073 H         1 UNK         0.0600 
    152 H152       -4.9446  -18.2712  -42.7503 H         1 UNK         0.0600 
    153 H153       -3.5120  -18.8008  -41.8776 H         1 UNK         0.0600 
    154 H154       -2.8056  -17.2455  -43.6772 H         1 UNK         0.3000 
    155 H155       -0.7261  -16.4823  -46.3836 H         1 UNK         0.0600 
    156 H156       -3.5736  -15.3447  -46.4087 H         1 UNK         0.0600 
    157 H157       -2.1609  -14.6333  -47.1858 H         1 UNK         0.0600 
    158 H158       -2.7995  -16.1582  -47.7653 H         1 UNK         0.0600 
    159 H159       -2.0170  -15.7995  -43.8551 H         1 UNK         0.3000 
    160 H160        0.4604  -13.3827  -43.1065 H         1 UNK         0.0600 
    161 H161       -2.5905  -13.4731  -42.8444 H         1 UNK         0.0600 
    162 H162       -1.6610  -12.2086  -43.6358 H         1 UNK         0.0600 
    163 H163       -1.4952  -12.4614  -41.9052 H         1 UNK         0.0600 
    164 H164        0.5420  -14.8553  -41.5146 H         1 UNK         0.3000 
    165 H165       -1.6459  -16.6662  -39.6463 H         1 UNK         0.0600 
    166 H166       -0.2213  -18.7204  -39.8392 H         1 UNK         0.0600 
    167 H167       -1.3835  -18.6108  -41.1447 H         1 UNK         0.0600 
    168 H168        0.2997  -18.2071  -41.4419 H         1 UNK         0.0600 
    169 H169        1.2607  -16.5565  -39.8643 H         1 UNK         0.3000 
    170 H170        1.7100  -13.4965  -38.3037 H         1 UNK         0.0600 
    171 H171        1.9274  -16.1175  -36.7248 H         1 UNK         0.0600 
    172 H172        2.8148  -14.6299  -36.3890 H         1 UNK         0.0600 
    173 H173        1.0706  -14.6753  -36.1944 H         1 UNK         0.0600 
    174 H174        3.4823  -15.7131  -38.5963 H         1 UNK         0.3000 
    175 H175        5.1850  -14.6152  -40.9012 H         1 UNK         0.0600 
    176 H176        5.6923  -17.0871  -40.8278 H         1 UNK         0.0600 
    177 H177        4.0592  -17.3977  -40.2522 H         1 UNK         0.0600 
    178 H178        5.1883  -16.4613  -39.2733 H         1 UNK         0.0600 
    179 H179        4.7686  -15.0372  -43.0363 H         1 UNK         0.3000 
    180 H180        4.1338  -16.6323  -44.8981 H         1 UNK         0.0600 
    181 H181        1.9996  -17.0557  -46.1995 H         1 UNK         0.0600 
    182 H182        1.0981  -16.9733  -44.6888 H         1 UNK         0.0600 
    183 H183        2.3027  -18.2296  -44.9274 H         1 UNK         0.0600 
    184 H184        2.0191  -14.6658  -45.3045 H         1 UNK         0.3000 
    185 H185        2.9510  -12.0822  -44.8014 H         1 UNK         0.0600 
    186 H186        5.2839  -11.4664  -45.2534 H         1 UNK         0.0600 
    187 H187        5.2042  -12.1336  -46.8765 H         1 UNK         0.0600 
    188 H188        4.2491  -10.7127  -46.4546 H         1 UNK         0.0600 
    189 H189        1.5023  -12.3726  -46.4368 H         1 UNK         0.3000 
    190 H190       -2.0589  -20.3004  -47.0928 H         1 UNK         0.3000 
    191 H191       -3.2037  -21.6709  -49.2698 H         1 UNK         0.0600 
    192 H192       -4.3591  -19.9079  -47.9001 H         1 UNK         0.0600 
    193 H193       -5.3281  -21.3711  -48.0533 H         1 UNK         0.0600 
    194 H194       -4.4783  -21.0362  -46.5548 H         1 UNK         0.0600 
    195 H195       -2.6759  -22.7908  -45.8842 H         1 UNK         0.3000 
    196 H196       -3.7882  -25.3719  -46.1664 H         1 UNK         0.0600 
    197 H197       -2.4560  -25.8935  -44.1182 H         1 UNK         0.0600 
    198 H198       -3.2848  -24.3511  -43.9720 H         1 UNK         0.0600 
    199 H199       -1.5563  -24.3938  -44.3079 H         1 UNK         0.0600 
    200 H200       -0.3937  -24.2655  -46.6416 H         1 UNK         0.3000 
    201 H201        0.7012  -26.7709  -47.3985 H         1 UNK         0.0600 
    202 H202        2.0755  -24.8254  -46.6994 H         1 UNK         0.0600 
    203 H203        1.5899  -23.9317  -48.1379 H         1 UNK         0.0600 
    204 H204        2.5713  -25.3832  -48.2905 H         1 UNK         0.0600 
    205 H205       -0.9342  -24.2614  -49.3112 H         1 UNK         0.3000 
    206 H206       -0.5584  -25.5847  -51.8709 H         1 UNK         0.0600 
    207 H207       -0.6708  -23.0959  -51.5930 H         1 UNK         0.0600 
    208 H208       -1.8797  -23.6921  -52.7120 H         1 UNK         0.0600 
    209 H209       -2.3523  -23.2328  -51.0800 H         1 UNK         0.0600 
    210 H210       -2.3842  -26.6223  -49.3772 H         1 UNK         0.3000 
    211 H211       -4.0646  -28.0097  -49.0787 H         1 UNK         0.0600 
    212 H212       -3.9780  -28.5738  -52.0883 H         1 UNK         0.0600 
    213 H213       -4.7030  -29.5912  -50.8529 H         1 UNK         0.0600 
    214 H214       -2.9638  -29.3497  -50.8726 H         1 UNK         0.0600 
    215 H215       -4.7574  -25.4466  -49.0574 H         1 UNK         0.3000 
    216 H216       -6.5203  -24.2678  -48.5760 H         1 UNK         0.0600 
    217 H217       -8.8341  -24.9840  -48.8039 H         1 UNK         0.0600 
    218 H218       -7.8849  -26.3485  -48.2399 H         1 UNK         0.0600 
    219 H219       -8.4027  -26.2622  -49.9249 H         1 UNK         0.0600 
    220 H220       -5.1820  -24.5459  -51.4631 H         1 UNK         0.3000 
    221 H221       -6.9173  -22.7441  -53.0117 H         1 UNK         0.0600 
    222 H222       -4.0904  -23.7849  -53.5458 H         1 UNK         0.0600 
    223 H223       -5.5811  -24.4767  -54.1760 H         1 UNK         0.0600 
    224 H224       -5.0852  -22.8635  -54.6665 H         1 UNK         0.0600 
    225 H225       -7.0096  -21.2385  -51.1310 H         1 UNK         0.3000 
    226 H226       -4.7799  -19.6865  -50.2757 H         1 UNK         0.0600 
    227 H227       -6.9220  -19.8821  -48.9928 H         1 UNK         0.0600 
    228 H228       -6.5331  -18.2001  -49.3179 H         1 UNK         0.0600 
    229 H229       -7.7748  -19.0131  -50.2629 H         1 UNK         0.0600 
    230 H230       -3.6532  -18.2671  -51.3774 H         1 UNK         0.3000 
    231 H231       -2.8858  -16.7007  -52.6798 H         1 UNK         0.0600 
    232 H232       -5.7606  -15.7443  -53.0887 H         1 UNK         0.0600 
    233 H233       -4.3021  -14.8405  -53.4645 H         1 UNK         0.0600 
    234 H234       -4.6702  -15.2471  -51.7960 H         1 UNK         0.0600 
    235 H235       -5.7702  -18.0416  -54.2965 H         1 UNK         0.3000 
    236 H236       -4.6477  -17.6851  -56.9840 H         1 UNK         0.0600 
    237 H237       -7.0210  -17.1356  -56.4851 H         1 UNK         0.0600 
    238 H238       -6.9116  -18.4041  -57.6924 H         1 UNK         0.0600 
    239 H239       -7.3300  -18.8104  -56.0302 H         1 UNK         0.0600 
    240 H240       -2.9423  -19.3843  -55.6834 H         1 UNK         0.3000 
    241 H241       -3.5764  -22.1425  -56.5081 H         1 UNK         0.0600 
    242 H242       -2.3511  -19.4693  -58.2460 H         1 UNK         0.3800 
    243 H243       -1.4990  -20.4039  -59.4463 H         1 UNK         0.3800 
    244 H244       -1.4400  -22.7834  -55.4687 H         1 UNK         0.0800 
    245 H245       -2.5259  -21.9947  -54.3778 H         1 UNK         0.0800 
    246 H246       -1.3871  -20.9431  -52.5642 H         1 UNK         0.0800 
    247 H247       -2.0735  -19.5180  -53.2953 H         1 UNK         0.0800 
@<TRIPOS>BOND
     1    1    2 1    
     2    1  127 1    
     3    1  128 1    
     4    1  129 1    
     5    2    3 2    
     6    2    4 am   BACKBONE|DICT|INTERRES
     7    4    5 1    
     8    4  130 1    
     9    5    6 1    
    10    5   65 1    
    11    5  131 1    
    12    6    7 1    
    13    6  132 1    
    14    6  133 1    
    15    7    8 1    
    16    8    9 1    
    17    8  134 1    
    18    8  135 1    
    19    9   10 ar   
    20    9   14 ar   
    21   10   11 ar   
    22   10  136 1    
    23   11   12 ar   
    24   11  126 1    
    25   12   13 ar   
    26   12  137 1    
    27   13   14 ar   
    28   13   15 1    
    29   14  138 1    
    30   15   16 1    
    31   15  139 1    
    32   15  140 1    
    33   16   17 1    
    34   17   18 1    
    35   17  141 1    
    36   17  142 1    
    37   18   19 1    
    38   18   67 1    
    39   18  143 1    
    40   19   20 am   BACKBONE|DICT|INTERRES
    41   19  144 1    
    42   20   21 2    
    43   20   22 1    
    44   22   23 1    
    45   22   24 1    
    46   22  145 1    
    47   23  146 1    
    48   23  147 1    
    49   23  148 1    
    50   24   25 am   BACKBONE|DICT|INTERRES
    51   24  149 1    
    52   25   26 2    
    53   25   27 1    
    54   27   28 1    
    55   27   29 1    
    56   27  150 1    
    57   28  151 1    
    58   28  152 1    
    59   28  153 1    
    60   29   30 am   BACKBONE|DICT|INTERRES
    61   29  154 1    
    62   30   31 2    
    63   30   32 1    
    64   32   33 1    
    65   32   34 1    
    66   32  155 1    
    67   33  156 1    
    68   33  157 1    
    69   33  158 1    
    70   34   35 am   BACKBONE|DICT|INTERRES
    71   34  159 1    
    72   35   36 2    
    73   35   37 1    
    74   37   38 1    
    75   37   39 1    
    76   37  160 1    
    77   38  161 1    
    78   38  162 1    
    79   38  163 1    
    80   39   40 am   BACKBONE|DICT|INTERRES
    81   39  164 1    
    82   40   41 2    
    83   40   42 1    
    84   42   43 1    
    85   42   44 1    
    86   42  165 1    
    87   43  166 1    
    88   43  167 1    
    89   43  168 1    
    90   44   45 am   BACKBONE|DICT|INTERRES
    91   44  169 1    
    92   45   46 2    
    93   45   47 1    
    94   47   48 1    
    95   47   49 1    
    96   47  170 1    
    97   48  171 1    
    98   48  172 1    
    99   48  173 1    
   100   49   50 am   BACKBONE|DICT|INTERRES
   101   49  174 1    
   102   50   51 2    
   103   50   52 1    
   104   52   53 1    
   105   52   54 1    
   106   52  175 1    
   107   53  176 1    
   108   53  177 1    
   109   53  178 1    
   110   54   55 am   BACKBONE|DICT|INTERRES
   111   54  179 1    
   112   55   56 2    
   113   55   57 1    
   114   57   58 1    
   115   57   59 1    
   116   57  180 1    
   117   58  181 1    
   118   58  182 1    
   119   58  183 1    
   120   59   60 am   BACKBONE|DICT|INTERRES
   121   59  184 1    
   122   60   61 2    
   123   60   62 1    
   124   62   63 1    
   125   62   64 1    
   126   62  185 1    
   127   63  186 1    
   128   63  187 1    
   129   63  188 1    
   130   64   65 am   BACKBONE|DICT|INTERRES
   131   64  189 1    
   132   65   66 2    
   133   67   68 2    
   134   67   69 am   BACKBONE|DICT|INTERRES
   135   69   70 1    
   136   69  190 1    
   137   70   71 1    
   138   70   72 1    
   139   70  191 1    
   140   71  192 1    
   141   71  193 1    
   142   71  194 1    
   143   72   73 2    
   144   72   74 am   BACKBONE|DICT|INTERRES
   145   74   75 1    
   146   74  195 1    
   147   75   76 1    
   148   75   77 1    
   149   75  196 1    
   150   76  197 1    
   151   76  198 1    
   152   76  199 1    
   153   77   78 2    
   154   77   79 am   BACKBONE|DICT|INTERRES
   155   79   80 1    
   156   79  200 1    
   157   80   81 1    
   158   80   82 1    
   159   80  201 1    
   160   81  202 1    
   161   81  203 1    
   162   81  204 1    
   163   82   83 2    
   164   82   84 am   BACKBONE|DICT|INTERRES
   165   84   85 1    
   166   84  205 1    
   167   85   86 1    
   168   85   87 1    
   169   85  206 1    
   170   86  207 1    
   171   86  208 1    
   172   86  209 1    
   173   87   88 2    
   174   87   89 am   BACKBONE|DICT|INTERRES
   175   89   90 1    
   176   89  210 1    
   177   90   91 1    
   178   90   92 1    
   179   90  211 1    
   180   91  212 1    
   181   91  213 1    
   182   91  214 1    
   183   92   93 2    
   184   92   94 am   BACKBONE|DICT|INTERRES
   185   94   95 1    
   186   94  215 1    
   187   95   96 1    
   188   95   97 1    
   189   95  216 1    
   190   96  217 1    
   191   96  218 1    
   192   96  219 1    
   193   97   98 2    
   194   97   99 am   BACKBONE|DICT|INTERRES
   195   99  100 1    
   196   99  220 1    
   197  100  101 1    
   198  100  102 1    
   199  100  221 1    
   200  101  222 1    
   201  101  223 1    
   202  101  224 1    
   203  102  103 2    
   204  102  104 am   BACKBONE|DICT|INTERRES
   205  104  105 1    
   206  104  225 1    
   207  105  106 1    
   208  105  107 1    
   209  105  226 1    
   210  106  227 1    
   211  106  228 1    
   212  106  229 1    
   213  107  108 2    
   214  107  109 am   BACKBONE|DICT|INTERRES
   215  109  110 1    
   216  109  230 1    
   217  110  111 1    
   218  110  112 1    
   219  110  231 1    
   220  111  232 1    
   221  111  233 1    
   222  111  234 1    
   223  112  113 2    
   224  112  114 am   BACKBONE|DICT|INTERRES
   225  114  115 1    
   226  114  235 1    
   227  115  116 1    
   228  115  117 1    
   229  115  236 1    
   230  116  237 1    
   231  116  238 1    
   232  116  239 1    
   233  117  118 2    
   234  117  119 am   BACKBONE|DICT|INTERRES
   235  119  120 1    
   236  119  240 1    
   237  120  121 1    
   238  120  124 1    
   239  120  241 1    
   240  121  122 am   BACKBONE|DICT|INTERRES
   241  121  123 2    
   242  122  242 1    
   243  122  243 1    
   244  124  125 1    
   245  124  244 1    
   246  124  245 1    
   247  125  126 1    
   248  126  246 1    
   249  126  247 1    
@<TRIPOS>SUBSTRUCTURE
     1 UNK         1 GROUP             0       ****    0 ROOT    
