@<TRIPOS>MOLECULE
3R540
247   249    1
SMALL
USER_CHARGES


@<TRIPOS>ATOM
      1 CA         -0.4801  -10.1579  -48.8486 C.3       0 UNK        -0.1800 
      2 C          -0.4359  -11.0200  -47.5951 C.2       0 UNK         0.5000 
      3 O           0.5718  -11.6786  -47.3402 O.2       0 UNK        -0.5000 
      4 N          -1.5206  -11.0097  -46.8090 N.am      1 UNK        -0.5000 
      5 CA         -1.6785  -11.7826  -45.5677 C.3       1 UNK         0.1400 
      6 C6         -3.1666  -11.9110  -45.1559 C.3       23 UNK        -0.0398 
      7 S7         -4.0490  -13.0880  -46.2343 S.3       23 UNK        -0.2404 
      8 C8         -3.7976  -14.6076  -45.2603 C.3       23 UNK        -0.0205 
      9 C9         -4.1098  -15.8857  -46.0265 C.ar      23 UNK        -0.0193 
     10 C10        -3.5200  -16.1416  -47.2694 C.ar      23 UNK        -0.1150 
     11 C11        -3.7314  -17.3607  -47.9205 C.ar      23 UNK        -0.0193 
     12 C12        -4.5313  -18.3331  -47.3156 C.ar      23 UNK        -0.1150 
     13 C13        -5.1296  -18.0882  -46.0765 C.ar      23 UNK        -0.0193 
     14 C14        -4.9286  -16.8576  -45.4457 C.ar      23 UNK        -0.1150 
     15 C15        -5.9492  -19.1736  -45.3943 C.3       23 UNK        -0.0205 
     16 S16        -5.2007  -19.7544  -43.8307 S.3       23 UNK        -0.2404 
     17 C17        -3.4247  -19.9085  -44.2389 C.3       23 UNK        -0.0398 
     18 CA         -3.1114  -21.0436  -45.2428 C.3       11 UNK         0.1400 
     19 N          -1.8558  -20.8102  -45.9652 N.am      11 UNK        -0.5000 
     20 C          -1.3998  -21.5626  -46.9762 C.2       10 UNK         0.5000 
     21 O          -2.0158  -22.5189  -47.4402 O.2       10 UNK        -0.5000 
     22 CA         -0.0028  -21.2395  -47.5318 C.3       10 UNK         0.1400 
     23 CB         -0.0656  -20.0882  -48.5458 C.3       10 UNK        -0.1800 
     24 N           0.9575  -20.9331  -46.4726 N.am      10 UNK        -0.5000 
     25 C           1.3559  -21.8091  -45.5380 C.2       9 UNK         0.5000 
     26 O           1.0163  -22.9924  -45.5252 O.2       9 UNK        -0.5000 
     27 CA          2.2291  -21.2581  -44.3942 C.3       9 UNK         0.1400 
     28 CB          3.7012  -21.1596  -44.8195 C.3       9 UNK        -0.1800 
     29 N           1.7638  -19.9543  -43.9172 N.am      9 UNK        -0.5000 
     30 C           0.5708  -19.7397  -43.3433 C.2       8 UNK         0.5000 
     31 O          -0.2371  -20.6335  -43.0886 O.2       8 UNK        -0.5000 
     32 CA          0.1915  -18.2743  -43.0664 C.3       8 UNK         0.1400 
     33 CB          0.7786  -17.7903  -41.7323 C.3       8 UNK        -0.1800 
     34 N           0.6177  -17.3878  -44.1507 N.am      8 UNK        -0.5000 
     35 C           0.0673  -17.3846  -45.3731 C.2       7 UNK         0.5000 
     36 O          -0.8808  -18.0996  -45.6905 O.2       7 UNK        -0.5000 
     37 CA          0.7139  -16.4732  -46.4310 C.3       7 UNK         0.1400 
     38 CB          0.1827  -15.0414  -46.3146 C.3       7 UNK        -0.1800 
     39 N           2.1723  -16.4553  -46.3380 N.am      7 UNK        -0.5000 
     40 C           2.9558  -17.5013  -46.6350 C.2       6 UNK         0.5000 
     41 O           2.5271  -18.5729  -47.0594 O.2       6 UNK        -0.5000 
     42 CA          4.4648  -17.3423  -46.3702 C.3       6 UNK         0.1400 
     43 CB          5.1728  -16.7906  -47.6163 C.3       6 UNK        -0.1800 
     44 N           4.7683  -16.4814  -45.2252 N.am      6 UNK        -0.5000 
     45 C           4.3631  -16.6925  -43.9641 C.2       5 UNK         0.5000 
     46 O           3.6972  -17.6701  -43.6213 O.2       5 UNK        -0.5000 
     47 CA          4.7381  -15.6239  -42.9179 C.3       5 UNK         0.1400 
     48 CB          5.8809  -16.1285  -42.0238 C.3       5 UNK        -0.1800 
     49 N           5.1276  -14.3413  -43.5142 N.am      5 UNK        -0.5000 
     50 C           4.2799  -13.4703  -44.0781 C.2       4 UNK         0.5000 
     51 O           3.0615  -13.6446  -44.1485 O.2       4 UNK        -0.5000 
     52 CA          4.9165  -12.2258  -44.7261 C.3       4 UNK         0.1400 
     53 CB          4.8325  -12.3229  -46.2580 C.3       4 UNK        -0.1800 
     54 N           4.3013  -10.9703  -44.2963 N.am      4 UNK        -0.5000 
     55 C           4.2847  -10.4980  -43.0418 C.2       3 UNK         0.5000 
     56 O           4.7641  -11.1009  -42.0815 O.2       3 UNK        -0.5000 
     57 CA          3.6610   -9.1038  -42.8152 C.3       3 UNK         0.1400 
     58 CB          4.7324   -8.1149  -42.3285 C.3       3 UNK        -0.1800 
     59 N           3.0408   -8.5457  -44.0231 N.am      3 UNK        -0.5000 
     60 C           1.7864   -8.7190  -44.4618 C.2       2 UNK         0.5000 
     61 O           1.4100   -8.2258  -45.5266 O.2       2 UNK        -0.5000 
     62 CA          0.7786   -9.5277  -43.6251 C.3       2 UNK         0.1400 
     63 CB          0.0679   -8.6395  -42.5899 C.3       2 UNK        -0.1800 
     64 N          -0.2072  -10.0902  -44.5371 N.am      2 UNK        -0.5000 
     65 C          -0.8117  -11.2725  -44.3948 C.2       1 UNK         0.5000 
     66 O          -0.6976  -11.9717  -43.3874 O.2       1 UNK        -0.5000 
     67 C          -3.1478  -22.4258  -44.5604 C.2       11 UNK         0.5000 
     68 O          -4.1412  -23.1410  -44.6924 O.2       11 UNK        -0.5000 
     69 N          -2.0419  -22.8078  -43.9051 N.am      12 UNK        -0.5000 
     70 CA         -1.8530  -24.1225  -43.2840 C.3       12 UNK         0.1400 
     71 CB         -0.5426  -24.1206  -42.4828 C.3       12 UNK        -0.1800 
     72 C          -1.8779  -25.2892  -44.2943 C.2       12 UNK         0.5000 
     73 O          -2.3037  -26.3891  -43.9411 O.2       12 UNK        -0.5000 
     74 N          -1.4597  -25.0181  -45.5372 N.am      13 UNK        -0.5000 
     75 CA         -1.5192  -25.9378  -46.6740 C.3       13 UNK         0.1400 
     76 CB         -0.3362  -25.6297  -47.6079 C.3       13 UNK        -0.1800 
     77 C          -2.8557  -25.8634  -47.4451 C.2       13 UNK         0.5000 
     78 O          -2.9922  -26.5423  -48.4640 O.2       13 UNK        -0.5000 
     79 N          -3.7997  -25.0226  -46.9921 N.am      14 UNK        -0.5000 
     80 CA         -5.0960  -24.7219  -47.6122 C.3       14 UNK         0.1400 
     81 CB         -6.0301  -25.9478  -47.5407 C.3       14 UNK        -0.1800 
     82 C          -4.9532  -24.1547  -49.0408 C.2       14 UNK         0.5000 
     83 O          -5.6806  -24.5633  -49.9463 O.2       14 UNK        -0.5000 
     84 N          -3.9739  -23.2569  -49.2233 N.am      15 UNK        -0.5000 
     85 CA         -3.5293  -22.6660  -50.4897 C.3       15 UNK         0.1400 
     86 CB         -4.6128  -21.7421  -51.0773 C.3       15 UNK        -0.1800 
     87 C          -3.0207  -23.7359  -51.4785 C.2       15 UNK         0.5000 
     88 O          -3.3284  -23.6808  -52.6723 O.2       15 UNK        -0.5000 
     89 N          -2.2737  -24.7063  -50.9281 N.am      16 UNK        -0.5000 
     90 CA         -1.7774  -25.9338  -51.5579 C.3       16 UNK         0.1400 
     91 CB         -0.7319  -25.6120  -52.6444 C.3       16 UNK        -0.1800 
     92 C          -2.9379  -26.8066  -52.0722 C.2       16 UNK         0.5000 
     93 O          -2.9595  -27.1774  -53.2449 O.2       16 UNK        -0.5000 
     94 N          -3.9207  -27.0573  -51.1941 N.am      17 UNK        -0.5000 
     95 CA         -5.2099  -27.7031  -51.4814 C.3       17 UNK         0.1400 
     96 CB         -5.0134  -29.2126  -51.7293 C.3       17 UNK        -0.1800 
     97 C          -5.9771  -26.9955  -52.6232 C.2       17 UNK         0.5000 
     98 O          -6.5037  -27.6480  -53.5261 O.2       17 UNK        -0.5000 
     99 N          -5.9691  -25.6568  -52.5687 N.am      18 UNK        -0.5000 
    100 CA        -6.4949  -24.6908  -53.5363 C.3       18 UNK         0.1400 
    101 CB        -8.0251  -24.8285  -53.6698 C.3       18 UNK        -0.1800 
    102 C         -5.7886  -24.6761  -54.9114 C.2       18 UNK         0.5000 
    103 O         -6.2604  -23.9727  -55.8061 O.2       18 UNK        -0.5000 
    104 N         -4.6783  -25.4114  -55.0798 N.am      19 UNK        -0.5000 
    105 CA        -3.9363  -25.4788  -56.3413 C.3       19 UNK         0.1400 
    106 CB        -3.0755  -26.7499  -56.3816 C.3       19 UNK        -0.1800 
    107 C         -3.0652  -24.2355  -56.5902 C.2       19 UNK         0.5000 
    108 O         -2.9048  -23.8412  -57.7463 O.2       19 UNK        -0.5000 
    109 N         -2.5205  -23.6387  -55.5196 N.am      20 UNK        -0.5000 
    110 CA        -1.7321  -22.4068  -55.5964 C.3       20 UNK         0.1400 
    111 CB        -0.6999  -22.3663  -54.4584 C.3       20 UNK        -0.1800 
    112 C         -2.6309  -21.1619  -55.5532 C.2       20 UNK         0.5000 
    113 O         -2.2807  -20.1456  -56.1541 O.2       20 UNK        -0.5000 
    114 N         -3.7617  -21.2601  -54.8344 N.am      21 UNK        -0.5000 
    115 CA        -4.8147  -20.2427  -54.6947 C.3       21 UNK         0.1400 
    116 CB        -5.6010  -20.1159  -56.0153 C.3       21 UNK        -0.1800 
    117 C         -4.2999  -18.8798  -54.1732 C.2       21 UNK         0.5000 
    118 O         -4.8259  -17.8331  -54.5550 O.2       21 UNK        -0.5000 
    119 N         -3.2600  -18.9302  -53.3287 N.am      22 UNK        -0.5000 
    120 CA        -2.4980  -17.7867  -52.7944 C.3       22 UNK         0.1400 
    121 C         -1.6109  -17.0504  -53.8473 C.2       22 UNK         0.5000 
    122 N         -1.3958  -17.5880  -55.0426 N.am      22 UNK        -0.7600 
    123 O         -1.0739  -15.9820  -53.5669 O.2       22 UNK        -0.5000 
    124 C124       -3.3514  -16.7945  -51.9521 C.3       23 UNK        -0.0398 
    125 S125       -4.3016  -17.5913  -50.6122 S.3       23 UNK        -0.2404 
    126 C126       -3.0786  -17.6388  -49.2646 C.3       23 UNK        -0.0205 
    127 H127       -0.2754  -10.7685  -49.7317 H         1 UNK         0.0600 
    128 H128        0.2784   -9.3747  -48.7883 H         1 UNK         0.0600 
    129 H129       -1.4553   -9.6815  -48.9814 H         1 UNK         0.0600 
    130 H130       -2.3185  -10.4511  -47.0787 H         1 UNK         0.3000 
    131 H131       -1.3046  -12.7860  -45.7684 H         1 UNK         0.0600 
    132 H132       -3.2734  -12.2501  -44.1234 H         1 UNK         0.0800 
    133 H133       -3.6652  -10.9414  -45.2008 H         1 UNK         0.0800 
    134 H134       -2.7617  -14.6617  -44.9245 H         1 UNK         0.0800 
    135 H135       -4.4076  -14.5418  -44.3580 H         1 UNK         0.0800 
    136 H136       -2.8833  -15.3955  -47.7226 H         1 UNK         0.1150 
    137 H137       -4.6778  -19.2832  -47.8101 H         1 UNK         0.1150 
    138 H138       -5.3735  -16.6807  -44.4765 H         1 UNK         0.1150 
    139 H139       -6.9481  -18.7885  -45.1856 H         1 UNK         0.0800 
    140 H140       -6.0877  -20.0279  -46.0584 H         1 UNK         0.0800 
    141 H141       -2.8689  -20.0419  -43.3095 H         1 UNK         0.0800 
    142 H142       -3.0860  -18.9501  -44.6296 H         1 UNK         0.0800 
    143 H143       -3.8890  -21.0487  -46.0083 H         1 UNK         0.0600 
    144 H144       -1.3223  -19.9897  -45.6928 H         1 UNK         0.3000 
    145 H145        0.3563  -22.1272  -48.0566 H         1 UNK         0.0600 
    146 H146        0.9131  -19.8989  -48.9869 H         1 UNK         0.0600 
    147 H147       -0.7489  -20.3248  -49.3621 H         1 UNK         0.0600 
    148 H148       -0.4086  -19.1617  -48.0866 H         1 UNK         0.0600 
    149 H149        1.3413  -19.9928  -46.4627 H         1 UNK         0.3000 
    150 H150        2.1635  -21.9587  -43.5592 H         1 UNK         0.0600 
    151 H151        4.0891  -22.1387  -45.1028 H         1 UNK         0.0600 
    152 H152        4.3234  -20.7841  -44.0068 H         1 UNK         0.0600 
    153 H153        3.8316  -20.4974  -45.6747 H         1 UNK         0.0600 
    154 H154        2.3880  -19.1644  -44.0452 H         1 UNK         0.3000 
    155 H155       -0.8969  -18.2209  -42.9927 H         1 UNK         0.0600 
    156 H156        0.4260  -18.4101  -40.9070 H         1 UNK         0.0600 
    157 H157        0.4786  -16.7642  -41.5189 H         1 UNK         0.0600 
    158 H158        1.8678  -17.8296  -41.7265 H         1 UNK         0.0600 
    159 H159        1.4329  -16.8174  -43.9795 H         1 UNK         0.3000 
    160 H160        0.4379  -16.8573  -47.4153 H         1 UNK         0.0600 
    161 H161        0.4386  -14.5893  -45.3550 H         1 UNK         0.0600 
    162 H162       -0.9017  -15.0258  -46.4124 H         1 UNK         0.0600 
    163 H163        0.5879  -14.4073  -47.1030 H         1 UNK         0.0600 
    164 H164        2.5977  -15.6133  -45.9764 H         1 UNK         0.3000 
    165 H165        4.8693  -18.3331  -46.1556 H         1 UNK         0.0600 
    166 H166        6.2528  -16.7528  -47.4728 H         1 UNK         0.0600 
    167 H167        4.9839  -17.4234  -48.4847 H         1 UNK         0.0600 
    168 H168        4.8303  -15.7846  -47.8623 H         1 UNK         0.0600 
    169 H169        5.3223  -15.6595  -45.4123 H         1 UNK         0.3000 
    170 H170        3.8596  -15.4610  -42.2899 H         1 UNK         0.0600 
    171 H171        5.6114  -17.0674  -41.5378 H         1 UNK         0.0600 
    172 H172        6.7928  -16.3050  -42.5956 H         1 UNK         0.0600 
    173 H173        6.1113  -15.4116  -41.2353 H         1 UNK         0.0600 
    174 H174        6.1134  -14.1211  -43.4926 H         1 UNK         0.3000 
    175 H175        5.9715  -12.1839  -44.4463 H         1 UNK         0.0600 
    176 H176        3.7975  -12.3238  -46.6046 H         1 UNK         0.0600 
    177 H177        5.3459  -11.4881  -46.7357 H         1 UNK         0.0600 
    178 H178        5.2999  -13.2391  -46.6202 H         1 UNK         0.0600 
    179 H179        3.8738  -10.4119  -45.0196 H         1 UNK         0.3000 
    180 H180        2.9243   -9.1986  -42.0172 H         1 UNK         0.0600 
    181 H181        5.5237   -7.9811  -43.0671 H         1 UNK         0.0600 
    182 H182        5.2003   -8.4626  -41.4069 H         1 UNK         0.0600 
    183 H183        4.2992   -7.1369  -42.1196 H         1 UNK         0.0600 
    184 H184        3.6589   -7.9891  -44.5946 H         1 UNK         0.3000 
    185 H185        1.2973  -10.3448  -43.1221 H         1 UNK         0.0600 
    186 H186        0.7797   -8.1788  -41.9051 H         1 UNK         0.0600 
    187 H187       -0.4912   -7.8356  -43.0698 H         1 UNK         0.0600 
    188 H188       -0.6320   -9.2193  -41.9888 H         1 UNK         0.0600 
    189 H189       -0.2971   -9.5913  -45.4132 H         1 UNK         0.3000 
    190 H190       -1.2786  -22.1437  -43.8087 H         1 UNK         0.3000 
    191 H191       -2.6775  -24.2780  -42.5852 H         1 UNK         0.0600 
    192 H192        0.3234  -23.9643  -43.1260 H         1 UNK         0.0600 
    193 H193       -0.5433  -23.3347  -41.7271 H         1 UNK         0.0600 
    194 H194       -0.3999  -25.0702  -41.9657 H         1 UNK         0.0600 
    195 H195       -1.1037  -24.0906  -45.7314 H         1 UNK         0.3000 
    196 H196       -1.4090  -26.9633  -46.3163 H         1 UNK         0.0600 
    197 H197        0.6117  -25.6838  -47.0721 H         1 UNK         0.0600 
    198 H198       -0.4139  -24.6339  -48.0447 H         1 UNK         0.0600 
    199 H199       -0.2838  -26.3466  -48.4279 H         1 UNK         0.0600 
    200 H200       -3.5958  -24.4855  -46.1569 H         1 UNK         0.3000 
    201 H201       -5.5465  -23.9281  -47.0151 H         1 UNK         0.0600 
    202 H202       -7.0299  -25.6989  -47.8984 H         1 UNK         0.0600 
    203 H203       -6.1326  -26.3035  -46.5155 H         1 UNK         0.0600 
    204 H204       -5.6631  -26.7760  -48.1471 H         1 UNK         0.0600 
    205 H205       -3.3875  -23.0232  -48.4220 H         1 UNK         0.3000 
    206 H206       -2.6660  -22.0437  -50.2505 H         1 UNK         0.0600 
    207 H207       -4.9106  -20.9797  -50.3573 H         1 UNK         0.0600 
    208 H208       -5.5062  -22.2915  -51.3715 H         1 UNK         0.0600 
    209 H209       -4.2390  -21.2230  -51.9567 H         1 UNK         0.0600 
    210 H210       -2.1367  -24.6603  -49.9289 H         1 UNK         0.3000 
    211 H211       -1.2779  -26.5080  -50.7766 H         1 UNK         0.0600 
    212 H212        0.0555  -24.9650  -52.2581 H         1 UNK         0.0600 
    213 H213       -0.2570  -26.5242  -53.0069 H         1 UNK         0.0600 
    214 H214       -1.1814  -25.1192  -53.5050 H         1 UNK         0.0600 
    215 H215       -3.7895  -26.7342  -50.2391 H         1 UNK         0.3000 
    216 H216       -5.8202  -27.5889  -50.5846 H         1 UNK         0.0600 
    217 H217       -5.9734  -29.7192  -51.8354 H         1 UNK         0.0600 
    218 H218       -4.4405  -29.4029  -52.6374 H         1 UNK         0.0600 
    219 H219       -4.4890  -29.6825  -50.8973 H         1 UNK         0.0600 
    220 H220       -5.5599  -25.2378  -51.7374 H         1 UNK         0.3000 
    221 H221       -6.2962  -23.7114  -53.1013 H         1 UNK         0.0600 
    222 H222       -8.3071  -25.7587  -54.1634 H         1 UNK         0.0600 
    223 H223       -8.5092  -24.8052  -52.6934 H         1 UNK         0.0600 
    224 H224       -8.4438  -24.0097  -54.2561 H         1 UNK         0.0600 
    225 H225       -4.3176  -25.9605  -54.3074 H         1 UNK         0.3000 
    226 H226       -4.6587  -25.5478  -57.1576 H         1 UNK         0.0600 
    227 H227       -3.6627  -27.6367  -56.1417 H         1 UNK         0.0600 
    228 H228       -2.6516  -26.8976  -57.3755 H         1 UNK         0.0600 
    229 H229       -2.2418  -26.6962  -55.6811 H         1 UNK         0.0600 
    230 H230       -2.7380  -23.9875  -54.5915 H         1 UNK         0.3000 
    231 H231       -1.1813  -22.3850  -56.5392 H         1 UNK         0.0600 
    232 H232       -0.0910  -21.4633  -54.5195 H         1 UNK         0.0600 
    233 H233       -0.0199  -23.2160  -54.5143 H         1 UNK         0.0600 
    234 H234       -1.1701  -22.3739  -53.4760 H         1 UNK         0.0600 
    235 H235       -3.9251  -22.1335  -54.3509 H         1 UNK         0.3000 
    236 H236       -5.5069  -20.6152  -53.9387 H         1 UNK         0.0600 
    237 H237       -5.9680  -21.0868  -56.3487 H         1 UNK         0.0600 
    238 H238       -6.4690  -19.4665  -55.8963 H         1 UNK         0.0600 
    239 H239       -4.9851  -19.6989  -56.8126 H         1 UNK         0.0600 
    240 H240       -2.8899  -19.8396  -53.0998 H         1 UNK         0.3000 
    241 H241       -1.7759  -18.2325  -52.1097 H         1 UNK         0.0600 
    242 H242       -0.8104  -17.0983  -55.7003 H         1 UNK         0.3800 
    243 H243       -1.8156  -18.4718  -55.3161 H         1 UNK         0.3800 
    244 H244       -2.7232  -16.0170  -51.5150 H         1 UNK         0.0800 
    245 H245       -4.0579  -16.2662  -52.5932 H         1 UNK         0.0800 
    246 H246       -2.6127  -18.6239  -49.2469 H         1 UNK         0.0800 
    247 H247       -2.2755  -16.9238  -49.4455 H         1 UNK         0.0800 
@<TRIPOS>BOND
     1    1    2 1    
     2    1  127 1    
     3    1  128 1    
     4    1  129 1    
     5    2    3 2    
     6    2    4 am   BACKBONE|DICT|INTERRES
     7    4    5 1    
     8    4  130 1    
     9    5    6 1    
    10    5   65 1    
    11    5  131 1    
    12    6    7 1    
    13    6  132 1    
    14    6  133 1    
    15    7    8 1    
    16    8    9 1    
    17    8  134 1    
    18    8  135 1    
    19    9   10 ar   
    20    9   14 ar   
    21   10   11 ar   
    22   10  136 1    
    23   11   12 ar   
    24   11  126 1    
    25   12   13 ar   
    26   12  137 1    
    27   13   14 ar   
    28   13   15 1    
    29   14  138 1    
    30   15   16 1    
    31   15  139 1    
    32   15  140 1    
    33   16   17 1    
    34   17   18 1    
    35   17  141 1    
    36   17  142 1    
    37   18   19 1    
    38   18   67 1    
    39   18  143 1    
    40   19   20 am   BACKBONE|DICT|INTERRES
    41   19  144 1    
    42   20   21 2    
    43   20   22 1    
    44   22   23 1    
    45   22   24 1    
    46   22  145 1    
    47   23  146 1    
    48   23  147 1    
    49   23  148 1    
    50   24   25 am   BACKBONE|DICT|INTERRES
    51   24  149 1    
    52   25   26 2    
    53   25   27 1    
    54   27   28 1    
    55   27   29 1    
    56   27  150 1    
    57   28  151 1    
    58   28  152 1    
    59   28  153 1    
    60   29   30 am   BACKBONE|DICT|INTERRES
    61   29  154 1    
    62   30   31 2    
    63   30   32 1    
    64   32   33 1    
    65   32   34 1    
    66   32  155 1    
    67   33  156 1    
    68   33  157 1    
    69   33  158 1    
    70   34   35 am   BACKBONE|DICT|INTERRES
    71   34  159 1    
    72   35   36 2    
    73   35   37 1    
    74   37   38 1    
    75   37   39 1    
    76   37  160 1    
    77   38  161 1    
    78   38  162 1    
    79   38  163 1    
    80   39   40 am   BACKBONE|DICT|INTERRES
    81   39  164 1    
    82   40   41 2    
    83   40   42 1    
    84   42   43 1    
    85   42   44 1    
    86   42  165 1    
    87   43  166 1    
    88   43  167 1    
    89   43  168 1    
    90   44   45 am   BACKBONE|DICT|INTERRES
    91   44  169 1    
    92   45   46 2    
    93   45   47 1    
    94   47   48 1    
    95   47   49 1    
    96   47  170 1    
    97   48  171 1    
    98   48  172 1    
    99   48  173 1    
   100   49   50 am   BACKBONE|DICT|INTERRES
   101   49  174 1    
   102   50   51 2    
   103   50   52 1    
   104   52   53 1    
   105   52   54 1    
   106   52  175 1    
   107   53  176 1    
   108   53  177 1    
   109   53  178 1    
   110   54   55 am   BACKBONE|DICT|INTERRES
   111   54  179 1    
   112   55   56 2    
   113   55   57 1    
   114   57   58 1    
   115   57   59 1    
   116   57  180 1    
   117   58  181 1    
   118   58  182 1    
   119   58  183 1    
   120   59   60 am   BACKBONE|DICT|INTERRES
   121   59  184 1    
   122   60   61 2    
   123   60   62 1    
   124   62   63 1    
   125   62   64 1    
   126   62  185 1    
   127   63  186 1    
   128   63  187 1    
   129   63  188 1    
   130   64   65 am   BACKBONE|DICT|INTERRES
   131   64  189 1    
   132   65   66 2    
   133   67   68 2    
   134   67   69 am   BACKBONE|DICT|INTERRES
   135   69   70 1    
   136   69  190 1    
   137   70   71 1    
   138   70   72 1    
   139   70  191 1    
   140   71  192 1    
   141   71  193 1    
   142   71  194 1    
   143   72   73 2    
   144   72   74 am   BACKBONE|DICT|INTERRES
   145   74   75 1    
   146   74  195 1    
   147   75   76 1    
   148   75   77 1    
   149   75  196 1    
   150   76  197 1    
   151   76  198 1    
   152   76  199 1    
   153   77   78 2    
   154   77   79 am   BACKBONE|DICT|INTERRES
   155   79   80 1    
   156   79  200 1    
   157   80   81 1    
   158   80   82 1    
   159   80  201 1    
   160   81  202 1    
   161   81  203 1    
   162   81  204 1    
   163   82   83 2    
   164   82   84 am   BACKBONE|DICT|INTERRES
   165   84   85 1    
   166   84  205 1    
   167   85   86 1    
   168   85   87 1    
   169   85  206 1    
   170   86  207 1    
   171   86  208 1    
   172   86  209 1    
   173   87   88 2    
   174   87   89 am   BACKBONE|DICT|INTERRES
   175   89   90 1    
   176   89  210 1    
   177   90   91 1    
   178   90   92 1    
   179   90  211 1    
   180   91  212 1    
   181   91  213 1    
   182   91  214 1    
   183   92   93 2    
   184   92   94 am   BACKBONE|DICT|INTERRES
   185   94   95 1    
   186   94  215 1    
   187   95   96 1    
   188   95   97 1    
   189   95  216 1    
   190   96  217 1    
   191   96  218 1    
   192   96  219 1    
   193   97   98 2    
   194   97   99 am   BACKBONE|DICT|INTERRES
   195   99  100 1    
   196   99  220 1    
   197  100  101 1    
   198  100  102 1    
   199  100  221 1    
   200  101  222 1    
   201  101  223 1    
   202  101  224 1    
   203  102  103 2    
   204  102  104 am   BACKBONE|DICT|INTERRES
   205  104  105 1    
   206  104  225 1    
   207  105  106 1    
   208  105  107 1    
   209  105  226 1    
   210  106  227 1    
   211  106  228 1    
   212  106  229 1    
   213  107  108 2    
   214  107  109 am   BACKBONE|DICT|INTERRES
   215  109  110 1    
   216  109  230 1    
   217  110  111 1    
   218  110  112 1    
   219  110  231 1    
   220  111  232 1    
   221  111  233 1    
   222  111  234 1    
   223  112  113 2    
   224  112  114 am   BACKBONE|DICT|INTERRES
   225  114  115 1    
   226  114  235 1    
   227  115  116 1    
   228  115  117 1    
   229  115  236 1    
   230  116  237 1    
   231  116  238 1    
   232  116  239 1    
   233  117  118 2    
   234  117  119 am   BACKBONE|DICT|INTERRES
   235  119  120 1    
   236  119  240 1    
   237  120  121 1    
   238  120  124 1    
   239  120  241 1    
   240  121  122 am   BACKBONE|DICT|INTERRES
   241  121  123 2    
   242  122  242 1    
   243  122  243 1    
   244  124  125 1    
   245  124  244 1    
   246  124  245 1    
   247  125  126 1    
   248  126  246 1    
   249  126  247 1    
@<TRIPOS>SUBSTRUCTURE
     1 UNK         1 GROUP             0       ****    0 ROOT    
