@<TRIPOS>MOLECULE
3R540
247   249    1
SMALL
USER_CHARGES


@<TRIPOS>ATOM
      1 CA          5.5930  -19.7788  -45.0800 C.3       0 UNK        -0.1800 
      2 C           4.4666  -18.8431  -45.4913 C.2       0 UNK         0.5000 
      3 O           3.3119  -19.2588  -45.5355 O.2       0 UNK        -0.5000 
      4 N           4.7888  -17.5771  -45.7768 N.am      1 UNK        -0.5000 
      5 CA          3.8542  -16.5531  -46.2708 C.3       1 UNK         0.1400 
      6 C6          4.6064  -15.3535  -46.8958 C.3       23 UNK        -0.0398 
      7 S7          5.8165  -15.8399  -48.1714 S.3       23 UNK        -0.2404 
      8 C8          4.9776  -15.3122  -49.6985 C.3       23 UNK        -0.0205 
      9 C9          3.8062  -16.2088  -50.0796 C.ar      23 UNK        -0.0193 
     10 C10         2.5304  -15.6650  -50.2545 C.ar      23 UNK        -0.1150 
     11 C11         1.4738  -16.4624  -50.7050 C.ar      23 UNK        -0.0193 
     12 C12         1.6901  -17.8242  -50.9461 C.ar      23 UNK        -0.1150 
     13 C13         2.9616  -18.3807  -50.7726 C.ar      23 UNK        -0.0193 
     14 C14         4.0125  -17.5675  -50.3383 C.ar      23 UNK        -0.1150 
     15 C15         3.2310  -19.8372  -51.1255 C.3       23 UNK        -0.0205 
     16 S16         3.1448  -20.9321  -49.6746 S.3       23 UNK        -0.2404 
     17 C17         1.4651  -21.6243  -49.8477 C.3       23 UNK        -0.0398 
     18 CA          1.1837  -22.7663  -48.8393 C.3       11 UNK         0.1400 
     19 N           1.3638  -22.3011  -47.4628 N.am      11 UNK        -0.5000 
     20 C           1.2017  -22.9963  -46.3297 C.2       10 UNK         0.5000 
     21 O           0.9789  -24.2062  -46.2924 O.2       10 UNK        -0.5000 
     22 CA          1.2215  -22.1758  -45.0245 C.3       10 UNK         0.1400 
     23 CB          2.5502  -22.3775  -44.2810 C.3       10 UNK        -0.1800 
     24 N           1.0105  -20.7405  -45.2477 N.am      10 UNK        -0.5000 
     25 C          -0.1048  -20.1793  -45.7321 C.2       9 UNK         0.5000 
     26 O          -1.1173  -20.8194  -46.0247 O.2       9 UNK        -0.5000 
     27 CA         -0.0335  -18.6656  -46.0133 C.3       9 UNK         0.1400 
     28 CB          0.5553  -18.4116  -47.4105 C.3       9 UNK        -0.1800 
     29 N          -1.3391  -18.0110  -45.9293 N.am      9 UNK        -0.5000 
     30 C          -2.1075  -17.9637  -44.8324 C.2       8 UNK         0.5000 
     31 O          -1.7678  -18.4170  -43.7375 O.2       8 UNK        -0.5000 
     32 CA         -3.4890  -17.2972  -45.0006 C.3       8 UNK         0.1400 
     33 CB         -4.1929  -17.0170  -43.6559 C.3       8 UNK        -0.1800 
     34 N          -3.4585  -16.0844  -45.8253 N.am      8 UNK        -0.5000 
     35 C          -2.7666  -14.9626  -45.5834 C.2       7 UNK         0.5000 
     36 O          -1.9806  -14.8137  -44.6466 O.2       7 UNK        -0.5000 
     37 CA         -3.0177  -13.7905  -46.5362 C.3       7 UNK         0.1400 
     38 CB         -3.8568  -12.6928  -45.8561 C.3       7 UNK        -0.1800 
     39 N          -1.7307  -13.2671  -46.9843 N.am      7 UNK        -0.5000 
     40 C          -1.5496  -12.5279  -48.0854 C.2       6 UNK         0.5000 
     41 O          -2.4773  -12.1233  -48.7876 O.2       6 UNK        -0.5000 
     42 CA         -0.0978  -12.1956  -48.4725 C.3       6 UNK         0.1400 
     43 CB          0.0124  -10.9757  -49.4099 C.3       6 UNK        -0.1800 
     44 N           0.7241  -11.9922  -47.2827 N.am      6 UNK        -0.5000 
     45 C           2.0493  -12.1535  -47.2227 C.2       5 UNK         0.5000 
     46 O           2.7252  -12.5145  -48.1869 O.2       5 UNK        -0.5000 
     47 CA          2.7597  -11.8788  -45.8787 C.3       5 UNK         0.1400 
     48 CB          3.7033  -10.6652  -45.9861 C.3       5 UNK        -0.1800 
     49 N           1.8909  -11.7606  -44.6984 N.am      5 UNK        -0.5000 
     50 C           0.9801  -10.8188  -44.4057 C.2       4 UNK         0.5000 
     51 O           0.6896   -9.8934  -45.1628 O.2       4 UNK        -0.5000 
     52 CA          0.2323  -10.9441  -43.0624 C.3       4 UNK         0.1400 
     53 CB         -1.2179  -11.3877  -43.2989 C.3       4 UNK        -0.1800 
     54 N           0.8613  -11.8860  -42.1365 N.am      4 UNK        -0.5000 
     55 C           1.9418  -11.6174  -41.3919 C.2       3 UNK         0.5000 
     56 O           2.4895  -10.5151  -41.3527 O.2       3 UNK        -0.5000 
     57 CA          2.5212  -12.7848  -40.5681 C.3       3 UNK         0.1400 
     58 CB          1.9765  -12.7505  -39.1319 C.3       3 UNK        -0.1800 
     59 N           2.2663  -14.1108  -41.1451 N.am      3 UNK        -0.5000 
     60 C           2.7315  -14.5354  -42.3282 C.2       2 UNK         0.5000 
     61 O           3.3991  -13.8244  -43.0827 O.2       2 UNK        -0.5000 
     62 CA          2.4071  -15.9961  -42.7028 C.3       2 UNK         0.1400 
     63 CB          0.8883  -16.2592  -42.7693 C.3       2 UNK        -0.1800 
     64 N           3.0839  -16.4318  -43.9303 N.am      2 UNK        -0.5000 
     65 C           2.8616  -16.0439  -45.1969 C.2       1 UNK         0.5000 
     66 O           1.9437  -15.2981  -45.5404 O.2       1 UNK        -0.5000 
     67 C          -0.2110  -23.3873  -49.0991 C.2       11 UNK         0.5000 
     68 O          -0.3407  -24.1918  -50.0194 O.2       11 UNK        -0.5000 
     69 N          -1.2110  -23.0374  -48.2736 N.am      12 UNK        -0.5000 
     70 CA         -2.5703  -23.5818  -48.2642 C.3       12 UNK         0.1400 
     71 CB         -3.3971  -22.7654  -47.2602 C.3       12 UNK        -0.1800 
     72 C          -2.6746  -25.0860  -47.9278 C.2       12 UNK         0.5000 
     73 O          -3.7349  -25.6727  -48.1555 O.2       12 UNK        -0.5000 
     74 N          -1.6042  -25.6813  -47.3800 N.am      13 UNK        -0.5000 
     75 CA         -1.4992  -27.1016  -47.0352 C.3       13 UNK         0.1400 
     76 CB         -0.1100  -27.3607  -46.4324 C.3       13 UNK        -0.1800 
     77 C          -1.7535  -28.0536  -48.2237 C.2       13 UNK         0.5000 
     78 O          -1.5616  -27.6725  -49.3799 O.2       13 UNK        -0.5000 
     79 N          -2.1802  -29.2839  -47.9029 N.am      14 UNK        -0.5000 
     80 CA         -2.5532  -30.3564  -48.8370 C.3       14 UNK         0.1400 
     81 CB         -1.3341  -30.8324  -49.6560 C.3       14 UNK        -0.1800 
     82 C          -3.7726  -29.9932  -49.7142 C.2       14 UNK         0.5000 
     83 O          -3.8343  -30.3782  -50.8829 O.2       14 UNK        -0.5000 
     84 N          -4.7221  -29.2563  -49.1158 N.am      15 UNK        -0.5000 
     85 CA         -5.9900  -28.7868  -49.6894 C.3       15 UNK         0.1400 
     86 CB         -6.9036  -29.9739  -50.0612 C.3       15 UNK        -0.1800 
     87 C          -5.8297  -27.7733  -50.8439 C.2       15 UNK         0.5000 
     88 O          -6.7550  -27.5988  -51.6385 O.2       15 UNK        -0.5000 
     89 N          -4.6813  -27.0847  -50.8985 N.am      16 UNK        -0.5000 
     90 CA         -4.3882  -26.0265  -51.8692 C.3       16 UNK         0.1400 
     91 CB         -2.8659  -25.8886  -51.9977 C.3       16 UNK        -0.1800 
     92 C          -5.0373  -24.6740  -51.5051 C.2       16 UNK         0.5000 
     93 O          -4.9947  -23.7441  -52.3129 O.2       16 UNK        -0.5000 
     94 N          -5.6333  -24.5908  -50.3057 N.am      17 UNK        -0.5000 
     95 CA         -6.2783  -23.4344  -49.6733 C.3       17 UNK         0.1400 
     96 CB         -6.9371  -23.9071  -48.3675 C.3       17 UNK        -0.1800 
     97 C          -7.3163  -22.6792  -50.5257 C.2       17 UNK         0.5000 
     98 O          -7.5831  -21.5115  -50.2450 O.2       17 UNK        -0.5000 
     99 N          -7.8600  -23.3343  -51.5600 N.am      18 UNK        -0.5000 
    100 CA        -8.7445  -22.7460  -52.5673 C.3       18 UNK         0.1400 
    101 CB        -9.2247  -23.8586  -53.5117 C.3       18 UNK        -0.1800 
    102 C         -8.1013  -21.5959  -53.3732 C.2       18 UNK         0.5000 
    103 O         -8.8335  -20.7543  -53.8962 O.2       18 UNK        -0.5000 
    104 N         -6.7630  -21.5688  -53.4508 N.am      19 UNK        -0.5000 
    105 CA        -5.9937  -20.4993  -54.0855 C.3       19 UNK         0.1400 
    106 CB        -5.5995  -20.9195  -55.5105 C.3       19 UNK        -0.1800 
    107 C         -4.7525  -20.1240  -53.2626 C.2       19 UNK         0.5000 
    108 O         -4.4738  -18.9354  -53.0935 O.2       19 UNK        -0.5000 
    109 N         -4.0314  -21.1292  -52.7456 N.am      20 UNK        -0.5000 
    110 CA        -2.7229  -20.9771  -52.1016 C.3       20 UNK         0.1400 
    111 CB        -1.9784  -22.3149  -52.1529 C.3       20 UNK        -0.1800 
    112 C         -2.7661  -20.4058  -50.6705 C.2       20 UNK         0.5000 
    113 O         -1.7095  -20.1737  -50.0873 O.2       20 UNK        -0.5000 
    114 N         -3.9686  -20.1119  -50.1558 N.am      21 UNK        -0.5000 
    115 CA        -4.1855  -19.2471  -48.9893 C.3       21 UNK         0.1400 
    116 CB        -5.5652  -19.5539  -48.3862 C.3       21 UNK        -0.1800 
    117 C         -4.0412  -17.7426  -49.3242 C.2       21 UNK         0.5000 
    118 O         -4.3191  -16.9036  -48.4648 O.2       21 UNK        -0.5000 
    119 N         -3.6014  -17.4395  -50.5532 N.am      22 UNK        -0.5000 
    120 CA        -3.3726  -16.1128  -51.1386 C.3       22 UNK         0.1400 
    121 C         -4.6845  -15.4698  -51.6698 C.2       22 UNK         0.5000 
    122 N         -5.5570  -16.2482  -52.2991 N.am      22 UNK        -0.7600 
    123 O         -4.9169  -14.2722  -51.5294 O.2       22 UNK        -0.5000 
    124 C124       -2.5012  -15.1578  -50.2751 C.3       23 UNK        -0.0398 
    125 S125       -0.9958  -15.9249  -49.5748 S.3       23 UNK        -0.2404 
    126 C126        0.1203  -15.8352  -51.0013 C.3       23 UNK        -0.0205 
    127 H127        5.6578  -20.6129  -45.7785 H         1 UNK         0.0600 
    128 H128        5.4020  -20.1804  -44.0849 H         1 UNK         0.0600 
    129 H129        6.5575  -19.2707  -45.0647 H         1 UNK         0.0600 
    130 H130        5.7570  -17.2919  -45.7334 H         1 UNK         0.3000 
    131 H131        3.2527  -17.0110  -47.0592 H         1 UNK         0.0600 
    132 H132        3.8949  -14.6570  -47.3379 H         1 UNK         0.0800 
    133 H133        5.1407  -14.7936  -46.1261 H         1 UNK         0.0800 
    134 H134        5.7020  -15.3281  -50.5138 H         1 UNK         0.0800 
    135 H135        4.6608  -14.2727  -49.5960 H         1 UNK         0.0800 
    136 H136        2.3669  -14.6108  -50.0772 H         1 UNK         0.1150 
    137 H137        0.8759  -18.4422  -51.2987 H         1 UNK         0.1150 
    138 H138        5.0021  -17.9876  -50.2239 H         1 UNK         0.1150 
    139 H139        2.5412  -20.1745  -51.9004 H         1 UNK         0.0800 
    140 H140        4.2277  -19.9228  -51.5609 H         1 UNK         0.0800 
    141 H141        1.3491  -21.9881  -50.8701 H         1 UNK         0.0800 
    142 H142        0.7499  -20.8109  -49.7212 H         1 UNK         0.0800 
    143 H143        1.9160  -23.5591  -49.0046 H         1 UNK         0.0600 
    144 H144        1.5779  -21.3194  -47.3679 H         1 UNK         0.3000 
    145 H145        0.4096  -22.5415  -44.3929 H         1 UNK         0.0600 
    146 H146        2.5627  -21.8307  -43.3380 H         1 UNK         0.0600 
    147 H147        2.7120  -23.4309  -44.0489 H         1 UNK         0.0600 
    148 H148        3.3985  -22.0385  -44.8767 H         1 UNK         0.0600 
    149 H149        1.8376  -20.1517  -45.1460 H         1 UNK         0.3000 
    150 H150        0.6210  -18.2075  -45.2700 H         1 UNK         0.0600 
    151 H151       -0.1063  -18.7716  -48.1997 H         1 UNK         0.0600 
    152 H152        1.5161  -18.9108  -47.5391 H         1 UNK         0.0600 
    153 H153        0.7270  -17.3478  -47.5745 H         1 UNK         0.0600 
    154 H154       -1.6924  -17.6035  -46.7819 H         1 UNK         0.3000 
    155 H155       -4.1022  -18.0166  -45.5453 H         1 UNK         0.0600 
    156 H156       -3.6129  -16.3384  -43.0295 H         1 UNK         0.0600 
    157 H157       -4.3395  -17.9385  -43.0913 H         1 UNK         0.0600 
    158 H158       -5.1763  -16.5731  -43.8105 H         1 UNK         0.0600 
    159 H159       -4.0033  -16.1410  -46.6822 H         1 UNK         0.3000 
    160 H160       -3.5762  -14.1589  -47.3968 H         1 UNK         0.0600 
    161 H161       -3.3504  -12.2776  -44.9862 H         1 UNK         0.0600 
    162 H162       -4.8133  -13.0919  -45.5167 H         1 UNK         0.0600 
    163 H163       -4.0742  -11.8727  -46.5400 H         1 UNK         0.0600 
    164 H164       -0.9286  -13.6024  -46.4654 H         1 UNK         0.3000 
    165 H165        0.2754  -13.0713  -49.0077 H         1 UNK         0.0600 
    166 H166        1.0444  -10.7961  -49.7110 H         1 UNK         0.0600 
    167 H167       -0.5641  -11.1267  -50.3233 H         1 UNK         0.0600 
    168 H168       -0.3587  -10.0700  -48.9291 H         1 UNK         0.0600 
    169 H169        0.2524  -11.6234  -46.4675 H         1 UNK         0.3000 
    170 H170        3.3804  -12.7549  -45.6885 H         1 UNK         0.0600 
    171 H171        4.4389  -10.8123  -46.7779 H         1 UNK         0.0600 
    172 H172        3.1612   -9.7471  -46.2138 H         1 UNK         0.0600 
    173 H173        4.2533  -10.5107  -45.0578 H         1 UNK         0.0600 
    174 H174        2.0546  -12.4818  -44.0053 H         1 UNK         0.3000 
    175 H175        0.2149   -9.9535  -42.6031 H         1 UNK         0.0600 
    176 H176       -1.7359  -10.6960  -43.9645 H         1 UNK         0.0600 
    177 H177       -1.2615  -12.3783  -43.7516 H         1 UNK         0.0600 
    178 H178       -1.7796  -11.4201  -42.3652 H         1 UNK         0.0600 
    179 H179        0.4729  -12.8172  -42.1005 H         1 UNK         0.3000 
    180 H180        3.6034  -12.6447  -40.5253 H         1 UNK         0.0600 
    181 H181        0.8985  -12.9149  -39.1064 H         1 UNK         0.0600 
    182 H182        2.1724  -11.7855  -38.6623 H         1 UNK         0.0600 
    183 H183        2.4484  -13.5128  -38.5118 H         1 UNK         0.0600 
    184 H184        1.7320  -14.7489  -40.5731 H         1 UNK         0.3000 
    185 H185        2.8164  -16.6173  -41.9049 H         1 UNK         0.0600 
    186 H186        0.4100  -16.0850  -41.8055 H         1 UNK         0.0600 
    187 H187        0.3893  -15.6179  -43.4959 H         1 UNK         0.0600 
    188 H188        0.6835  -17.2942  -43.0404 H         1 UNK         0.0600 
    189 H189        3.8844  -17.0297  -43.7847 H         1 UNK         0.3000 
    190 H190       -1.0171  -22.3471  -47.5567 H         1 UNK         0.3000 
    191 H191       -2.9955  -23.4416  -49.2583 H         1 UNK         0.0600 
    192 H192       -3.4050  -21.7095  -47.5243 H         1 UNK         0.0600 
    193 H193       -4.4322  -23.0987  -47.2242 H         1 UNK         0.0600 
    194 H194       -2.9954  -22.8521  -46.2499 H         1 UNK         0.0600 
    195 H195       -0.7739  -25.1234  -47.2217 H         1 UNK         0.3000 
    196 H196       -2.2534  -27.3042  -46.2724 H         1 UNK         0.0600 
    197 H197        0.0111  -28.4066  -46.1479 H         1 UNK         0.0600 
    198 H198        0.0482  -26.7621  -45.5350 H         1 UNK         0.0600 
    199 H199        0.6838  -27.1179  -47.1403 H         1 UNK         0.0600 
    200 H200       -2.2950  -29.5087  -46.9239 H         1 UNK         0.3000 
    201 H201       -2.8734  -31.1965  -48.2190 H         1 UNK         0.0600 
    202 H202       -1.5752  -31.7285  -50.2288 H         1 UNK         0.0600 
    203 H203       -0.4950  -31.0805  -49.0062 H         1 UNK         0.0600 
    204 H204       -0.9978  -30.0752  -50.3646 H         1 UNK         0.0600 
    205 H205       -4.5540  -28.9765  -48.1595 H         1 UNK         0.3000 
    206 H206       -6.4878  -28.2370  -48.8894 H         1 UNK         0.0600 
    207 H207       -7.0111  -30.6661  -49.2262 H         1 UNK         0.0600 
    208 H208       -7.9046  -29.6307  -50.3252 H         1 UNK         0.0600 
    209 H209       -6.5169  -30.5328  -50.9137 H         1 UNK         0.0600 
    210 H210       -3.9684  -27.2682  -50.2035 H         1 UNK         0.3000 
    211 H211       -4.7823  -26.3229  -52.8433 H         1 UNK         0.0600 
    212 H212       -2.4148  -25.5515  -51.0644 H         1 UNK         0.0600 
    213 H213       -2.5998  -25.1724  -52.7752 H         1 UNK         0.0600 
    214 H214       -2.4043  -26.8397  -52.2638 H         1 UNK         0.0600 
    215 H215       -5.5481  -25.4066  -49.7153 H         1 UNK         0.3000 
    216 H216       -5.4864  -22.7246  -49.4316 H         1 UNK         0.0600 
    217 H217       -7.3218  -23.0620  -47.7950 H         1 UNK         0.0600 
    218 H218       -6.2337  -24.4396  -47.7281 H         1 UNK         0.0600 
    219 H219       -7.7737  -24.5790  -48.5640 H         1 UNK         0.0600 
    220 H220       -7.5760  -24.2909  -51.7133 H         1 UNK         0.3000 
    221 H221       -9.6127  -22.3353  -52.0480 H         1 UNK         0.0600 
    222 H222       -8.3913  -24.3239  -54.0397 H         1 UNK         0.0600 
    223 H223       -9.7549  -24.6391  -52.9656 H         1 UNK         0.0600 
    224 H224       -9.9113  -23.4655  -54.2627 H         1 UNK         0.0600 
    225 H225       -6.2385  -22.3093  -52.9973 H         1 UNK         0.3000 
    226 H226       -6.6020  -19.5947  -54.1533 H         1 UNK         0.0600 
    227 H227       -5.0095  -20.1429  -55.9991 H         1 UNK         0.0600 
    228 H228       -5.0062  -21.8348  -55.5105 H         1 UNK         0.0600 
    229 H229       -6.4819  -21.0932  -56.1266 H         1 UNK         0.0600 
    230 H230       -4.3500  -22.0879  -52.8571 H         1 UNK         0.3000 
    231 H231       -2.1459  -20.2657  -52.6964 H         1 UNK         0.0600 
    232 H232       -2.4411  -23.0530  -51.5009 H         1 UNK         0.0600 
    233 H233       -0.9435  -22.1951  -51.8339 H         1 UNK         0.0600 
    234 H234       -1.9576  -22.7212  -53.1641 H         1 UNK         0.0600 
    235 H235       -4.7837  -20.3226  -50.7130 H         1 UNK         0.3000 
    236 H236       -3.4282  -19.4720  -48.2355 H         1 UNK         0.0600 
    237 H237       -5.6579  -20.6066  -48.1206 H         1 UNK         0.0600 
    238 H238       -5.7347  -18.9774  -47.4761 H         1 UNK         0.0600 
    239 H239       -6.3685  -19.3104  -49.0824 H         1 UNK         0.0600 
    240 H240       -3.4673  -18.2062  -51.1963 H         1 UNK         0.3000 
    241 H241       -2.7935  -16.3079  -52.0414 H         1 UNK         0.0600 
    242 H242       -6.4127  -15.8522  -52.6540 H         1 UNK         0.3800 
    243 H243       -5.3322  -17.2196  -52.4838 H         1 UNK         0.3800 
    244 H244       -2.2111  -14.2811  -50.8563 H         1 UNK         0.0800 
    245 H245       -3.0968  -14.7759  -49.4500 H         1 UNK         0.0800 
    246 H246       -0.3379  -16.3415  -51.8519 H         1 UNK         0.0800 
    247 H247        0.2474  -14.7923  -51.2956 H         1 UNK         0.0800 
@<TRIPOS>BOND
     1    1    2 1    
     2    1  127 1    
     3    1  128 1    
     4    1  129 1    
     5    2    3 2    
     6    2    4 am   BACKBONE|DICT|INTERRES
     7    4    5 1    
     8    4  130 1    
     9    5    6 1    
    10    5   65 1    
    11    5  131 1    
    12    6    7 1    
    13    6  132 1    
    14    6  133 1    
    15    7    8 1    
    16    8    9 1    
    17    8  134 1    
    18    8  135 1    
    19    9   10 ar   
    20    9   14 ar   
    21   10   11 ar   
    22   10  136 1    
    23   11   12 ar   
    24   11  126 1    
    25   12   13 ar   
    26   12  137 1    
    27   13   14 ar   
    28   13   15 1    
    29   14  138 1    
    30   15   16 1    
    31   15  139 1    
    32   15  140 1    
    33   16   17 1    
    34   17   18 1    
    35   17  141 1    
    36   17  142 1    
    37   18   19 1    
    38   18   67 1    
    39   18  143 1    
    40   19   20 am   BACKBONE|DICT|INTERRES
    41   19  144 1    
    42   20   21 2    
    43   20   22 1    
    44   22   23 1    
    45   22   24 1    
    46   22  145 1    
    47   23  146 1    
    48   23  147 1    
    49   23  148 1    
    50   24   25 am   BACKBONE|DICT|INTERRES
    51   24  149 1    
    52   25   26 2    
    53   25   27 1    
    54   27   28 1    
    55   27   29 1    
    56   27  150 1    
    57   28  151 1    
    58   28  152 1    
    59   28  153 1    
    60   29   30 am   BACKBONE|DICT|INTERRES
    61   29  154 1    
    62   30   31 2    
    63   30   32 1    
    64   32   33 1    
    65   32   34 1    
    66   32  155 1    
    67   33  156 1    
    68   33  157 1    
    69   33  158 1    
    70   34   35 am   BACKBONE|DICT|INTERRES
    71   34  159 1    
    72   35   36 2    
    73   35   37 1    
    74   37   38 1    
    75   37   39 1    
    76   37  160 1    
    77   38  161 1    
    78   38  162 1    
    79   38  163 1    
    80   39   40 am   BACKBONE|DICT|INTERRES
    81   39  164 1    
    82   40   41 2    
    83   40   42 1    
    84   42   43 1    
    85   42   44 1    
    86   42  165 1    
    87   43  166 1    
    88   43  167 1    
    89   43  168 1    
    90   44   45 am   BACKBONE|DICT|INTERRES
    91   44  169 1    
    92   45   46 2    
    93   45   47 1    
    94   47   48 1    
    95   47   49 1    
    96   47  170 1    
    97   48  171 1    
    98   48  172 1    
    99   48  173 1    
   100   49   50 am   BACKBONE|DICT|INTERRES
   101   49  174 1    
   102   50   51 2    
   103   50   52 1    
   104   52   53 1    
   105   52   54 1    
   106   52  175 1    
   107   53  176 1    
   108   53  177 1    
   109   53  178 1    
   110   54   55 am   BACKBONE|DICT|INTERRES
   111   54  179 1    
   112   55   56 2    
   113   55   57 1    
   114   57   58 1    
   115   57   59 1    
   116   57  180 1    
   117   58  181 1    
   118   58  182 1    
   119   58  183 1    
   120   59   60 am   BACKBONE|DICT|INTERRES
   121   59  184 1    
   122   60   61 2    
   123   60   62 1    
   124   62   63 1    
   125   62   64 1    
   126   62  185 1    
   127   63  186 1    
   128   63  187 1    
   129   63  188 1    
   130   64   65 am   BACKBONE|DICT|INTERRES
   131   64  189 1    
   132   65   66 2    
   133   67   68 2    
   134   67   69 am   BACKBONE|DICT|INTERRES
   135   69   70 1    
   136   69  190 1    
   137   70   71 1    
   138   70   72 1    
   139   70  191 1    
   140   71  192 1    
   141   71  193 1    
   142   71  194 1    
   143   72   73 2    
   144   72   74 am   BACKBONE|DICT|INTERRES
   145   74   75 1    
   146   74  195 1    
   147   75   76 1    
   148   75   77 1    
   149   75  196 1    
   150   76  197 1    
   151   76  198 1    
   152   76  199 1    
   153   77   78 2    
   154   77   79 am   BACKBONE|DICT|INTERRES
   155   79   80 1    
   156   79  200 1    
   157   80   81 1    
   158   80   82 1    
   159   80  201 1    
   160   81  202 1    
   161   81  203 1    
   162   81  204 1    
   163   82   83 2    
   164   82   84 am   BACKBONE|DICT|INTERRES
   165   84   85 1    
   166   84  205 1    
   167   85   86 1    
   168   85   87 1    
   169   85  206 1    
   170   86  207 1    
   171   86  208 1    
   172   86  209 1    
   173   87   88 2    
   174   87   89 am   BACKBONE|DICT|INTERRES
   175   89   90 1    
   176   89  210 1    
   177   90   91 1    
   178   90   92 1    
   179   90  211 1    
   180   91  212 1    
   181   91  213 1    
   182   91  214 1    
   183   92   93 2    
   184   92   94 am   BACKBONE|DICT|INTERRES
   185   94   95 1    
   186   94  215 1    
   187   95   96 1    
   188   95   97 1    
   189   95  216 1    
   190   96  217 1    
   191   96  218 1    
   192   96  219 1    
   193   97   98 2    
   194   97   99 am   BACKBONE|DICT|INTERRES
   195   99  100 1    
   196   99  220 1    
   197  100  101 1    
   198  100  102 1    
   199  100  221 1    
   200  101  222 1    
   201  101  223 1    
   202  101  224 1    
   203  102  103 2    
   204  102  104 am   BACKBONE|DICT|INTERRES
   205  104  105 1    
   206  104  225 1    
   207  105  106 1    
   208  105  107 1    
   209  105  226 1    
   210  106  227 1    
   211  106  228 1    
   212  106  229 1    
   213  107  108 2    
   214  107  109 am   BACKBONE|DICT|INTERRES
   215  109  110 1    
   216  109  230 1    
   217  110  111 1    
   218  110  112 1    
   219  110  231 1    
   220  111  232 1    
   221  111  233 1    
   222  111  234 1    
   223  112  113 2    
   224  112  114 am   BACKBONE|DICT|INTERRES
   225  114  115 1    
   226  114  235 1    
   227  115  116 1    
   228  115  117 1    
   229  115  236 1    
   230  116  237 1    
   231  116  238 1    
   232  116  239 1    
   233  117  118 2    
   234  117  119 am   BACKBONE|DICT|INTERRES
   235  119  120 1    
   236  119  240 1    
   237  120  121 1    
   238  120  124 1    
   239  120  241 1    
   240  121  122 am   BACKBONE|DICT|INTERRES
   241  121  123 2    
   242  122  242 1    
   243  122  243 1    
   244  124  125 1    
   245  124  244 1    
   246  124  245 1    
   247  125  126 1    
   248  126  246 1    
   249  126  247 1    
@<TRIPOS>SUBSTRUCTURE
     1 UNK         1 GROUP             0       ****    0 ROOT    
