@<TRIPOS>MOLECULE
3R540
247   249    1
SMALL
USER_CHARGES


@<TRIPOS>ATOM
      1 CA          7.5147  -13.9101  -46.8801 C.3       0 UNK        -0.1800 
      2 C           6.1076  -14.3470  -46.4983 C.2       0 UNK         0.5000 
      3 O           5.6270  -13.9929  -45.4221 O.2       0 UNK        -0.5000 
      4 N           5.4473  -15.1128  -47.3764 N.am      1 UNK        -0.5000 
      5 CA          4.0785  -15.6151  -47.1998 C.3       1 UNK         0.1400 
      6 C6          3.7726  -16.8238  -48.1197 C.3       23 UNK        -0.0398 
      7 S7          4.2288  -16.5870  -49.8755 S.3       23 UNK        -0.2404 
      8 C8          2.6088  -16.5629  -50.7132 C.3       23 UNK        -0.0205 
      9 C9          1.7673  -17.8102  -50.4659 C.ar      23 UNK        -0.0193 
     10 C10         0.4263  -17.6774  -50.0932 C.ar      23 UNK        -0.1150 
     11 C11        -0.3661  -18.8052  -49.8701 C.ar      23 UNK        -0.0193 
     12 C12         0.1958  -20.0757  -49.9964 C.ar      23 UNK        -0.1150 
     13 C13         1.5292  -20.2250  -50.3835 C.ar      23 UNK        -0.0193 
     14 C14         2.3085  -19.0907  -50.6264 C.ar      23 UNK        -0.1150 
     15 C15         2.1060  -21.6182  -50.5647 C.3       23 UNK        -0.0205 
     16 S16         3.3983  -22.0370  -49.3485 S.3       23 UNK        -0.2404 
     17 C17         2.5903  -21.7261  -47.7420 C.3       23 UNK        -0.0398 
     18 CA          1.8818  -22.9678  -47.1417 C.3       11 UNK         0.1400 
     19 N           2.0001  -22.9900  -45.6792 N.am      11 UNK        -0.5000 
     20 C           1.6971  -24.0436  -44.9073 C.2       10 UNK         0.5000 
     21 O           1.2816  -25.1129  -45.3488 O.2       10 UNK        -0.5000 
     22 CA          1.8398  -23.8682  -43.3836 C.3       10 UNK         0.1400 
     23 CB          3.2568  -24.2504  -42.9320 C.3       10 UNK        -0.1800 
     24 N           1.5324  -22.5194  -42.9077 N.am      10 UNK        -0.5000 
     25 C           0.3784  -21.8650  -43.0963 C.2       9 UNK         0.5000 
     26 O          -0.5799  -22.3336  -43.7117 O.2       9 UNK        -0.5000 
     27 CA          0.2903  -20.4297  -42.5445 C.3       9 UNK         0.1400 
     28 CB          1.3238  -20.1181  -41.4403 C.3       9 UNK        -0.1800 
     29 N           0.3802  -19.4213  -43.6007 N.am      9 UNK        -0.5000 
     30 C           1.3279  -19.2883  -44.5414 C.2       8 UNK         0.5000 
     31 O           2.2351  -20.0991  -44.7392 O.2       8 UNK        -0.5000 
     32 CA          1.2598  -18.0154  -45.4016 C.3       8 UNK         0.1400 
     33 CB          0.3377  -18.2250  -46.6055 C.3       8 UNK        -0.1800 
     34 N           0.7985  -16.8438  -44.6617 N.am      8 UNK        -0.5000 
     35 C           1.4670  -16.2367  -43.6723 C.2       7 UNK         0.5000 
     36 O           2.5800  -16.5874  -43.2788 O.2       7 UNK        -0.5000 
     37 CA          0.7573  -15.0546  -42.9896 C.3       7 UNK         0.1400 
     38 CB          0.9915  -13.7431  -43.7537 C.3       7 UNK        -0.1800 
     39 N          -0.6805  -15.2941  -42.8733 N.am      7 UNK        -0.5000 
     40 C          -1.2535  -15.9661  -41.8663 C.2       6 UNK         0.5000 
     41 O          -0.6358  -16.3994  -40.8932 O.2       6 UNK        -0.5000 
     42 CA         -2.7739  -16.1996  -41.9581 C.3       6 UNK         0.1400 
     43 CB         -3.5349  -15.0589  -41.2654 C.3       6 UNK        -0.1800 
     44 N          -3.2639  -16.3343  -43.3309 N.am      6 UNK        -0.5000 
     45 C          -2.9852  -17.3642  -44.1416 C.2       5 UNK         0.5000 
     46 O          -2.2702  -18.3132  -43.8226 O.2       5 UNK        -0.5000 
     47 CA         -3.5865  -17.3066  -45.5592 C.3       5 UNK         0.1400 
     48 CB         -5.0292  -17.8328  -45.5224 C.3       5 UNK        -0.1800 
     49 N          -3.5731  -15.9744  -46.1759 N.am      5 UNK        -0.5000 
     50 C          -2.5071  -15.1700  -46.2916 C.2       4 UNK         0.5000 
     51 O          -1.3951  -15.4331  -45.8319 O.2       4 UNK        -0.5000 
     52 CA         -2.7402  -13.8099  -46.9704 C.3       4 UNK         0.1400 
     53 CB         -2.7741  -12.6916  -45.9176 C.3       4 UNK        -0.1800 
     54 N          -1.7125  -13.4943  -47.9598 N.am      4 UNK        -0.5000 
     55 C          -1.5047  -14.1550  -49.1035 C.2       3 UNK         0.5000 
     56 O          -2.1661  -15.1314  -49.4499 O.2       3 UNK        -0.5000 
     57 CA         -0.3974  -13.6350  -50.0450 C.3       3 UNK         0.1400 
     58 CB         -0.9288  -12.5002  -50.9414 C.3       3 UNK        -0.1800 
     59 N           0.8635  -13.2545  -49.3913 N.am      3 UNK        -0.5000 
     60 C           1.1087  -12.2577  -48.5296 C.2       2 UNK         0.5000 
     61 O           0.2506  -11.4614  -48.1446 O.2       2 UNK        -0.5000 
     62 CA          2.5616  -12.1327  -48.0141 C.3       2 UNK         0.1400 
     63 CB          2.6338  -11.4331  -46.6411 C.3       2 UNK        -0.1800 
     64 N           3.3242  -13.3906  -47.9719 N.am      2 UNK        -0.5000 
     65 C           3.0012  -14.5137  -47.3089 C.2       1 UNK         0.5000 
     66 O           1.9112  -14.6998  -46.7756 O.2       1 UNK        -0.5000 
     67 C           0.4063  -23.0561  -47.5933 C.2       11 UNK         0.5000 
     68 O           0.0921  -23.7708  -48.5485 O.2       11 UNK        -0.5000 
     69 N          -0.4740  -22.3512  -46.8669 N.am      12 UNK        -0.5000 
     70 CA         -1.9205  -22.3691  -47.0713 C.3       12 UNK         0.1400 
     71 CB         -2.5506  -21.1398  -46.3972 C.3       12 UNK        -0.1800 
     72 C          -2.5502  -23.6682  -46.5416 C.2       12 UNK         0.5000 
     73 O          -3.4131  -24.2345  -47.2102 O.2       12 UNK        -0.5000 
     74 N          -2.0878  -24.1380  -45.3731 N.am      13 UNK        -0.5000 
     75 CA         -2.5411  -25.3750  -44.7297 C.3       13 UNK         0.1400 
     76 CB         -1.9428  -25.4715  -43.3193 C.3       13 UNK        -0.1800 
     77 C          -2.2114  -26.6387  -45.5468 C.2       13 UNK         0.5000 
     78 O          -3.0398  -27.5467  -45.6212 O.2       13 UNK        -0.5000 
     79 N          -1.0286  -26.6578  -46.1776 N.am      14 UNK        -0.5000 
     80 CA         -0.6020  -27.6930  -47.1230 C.3       14 UNK         0.1400 
     81 CB          0.9210  -27.6015  -47.3088 C.3       14 UNK        -0.1800 
     82 C          -1.3062  -27.5952  -48.4916 C.2       14 UNK         0.5000 
     83 O          -1.2223  -28.5408  -49.2762 O.2       14 UNK        -0.5000 
     84 N          -1.9652  -26.4567  -48.7561 N.am      15 UNK        -0.5000 
     85 CA         -2.6563  -26.0851  -49.9919 C.3       15 UNK         0.1400 
     86 CB         -3.8962  -26.9741  -50.2195 C.3       15 UNK        -0.1800 
     87 C          -1.7097  -26.0324  -51.2070 C.2       15 UNK         0.5000 
     88 O          -2.0969  -26.4199  -52.3112 O.2       15 UNK        -0.5000 
     89 N          -0.4820  -25.5363  -50.9860 N.am      16 UNK        -0.5000 
     90 CA          0.5121  -25.3083  -52.0398 C.3       16 UNK         0.1400 
     91 CB          1.9077  -25.1701  -51.4118 C.3       16 UNK        -0.1800 
     92 C           0.1424  -24.1160  -52.9494 C.2       16 UNK         0.5000 
     93 O           0.5649  -24.0750  -54.1053 O.2       16 UNK        -0.5000 
     94 N          -0.7018  -23.2174  -52.4329 N.am      17 UNK        -0.5000 
     95 CA         -1.5693  -22.3259  -53.1902 C.3       17 UNK         0.1400 
     96 CB         -0.9332  -20.9351  -53.3318 C.3       17 UNK        -0.1800 
     97 C          -2.9055  -22.2793  -52.4312 C.2       17 UNK         0.5000 
     98 O          -2.9329  -22.5533  -51.2264 O.2       17 UNK        -0.5000 
     99 N          -3.9894  -21.9659  -53.1439 N.am      18 UNK        -0.5000 
    100 CA        -5.3550  -21.9600  -52.6285 C.3       18 UNK         0.1400 
    101 CB        -5.9535  -23.3737  -52.7469 C.3       18 UNK        -0.1800 
    102 C         -6.1917  -20.9298  -53.4014 C.2       18 UNK         0.5000 
    103 O         -5.7963  -20.5234  -54.4978 O.2       18 UNK        -0.5000 
    104 N         -7.3324  -20.5516  -52.8064 N.am      19 UNK        -0.5000 
    105 CA        -8.2949  -19.5318  -53.2457 C.3       19 UNK         0.1400 
    106 CB        -8.8280  -19.8307  -54.6632 C.3       19 UNK        -0.1800 
    107 C         -7.7607  -18.0889  -53.1212 C.2       19 UNK         0.5000 
    108 O         -6.5772  -17.8731  -52.8501 O.2       19 UNK        -0.5000 
    109 N         -8.6700  -17.1165  -53.2861 N.am      20 UNK        -0.5000 
    110 CA        -8.4497  -15.6749  -53.1220 C.3       20 UNK         0.1400 
    111 CB        -7.5663  -15.1270  -54.2664 C.3       20 UNK        -0.1800 
    112 C         -7.9328  -15.3513  -51.7029 C.2       20 UNK         0.5000 
    113 O         -8.5858  -15.7324  -50.7287 O.2       20 UNK        -0.5000 
    114 N         -6.7644  -14.7037  -51.5981 N.am      21 UNK        -0.5000 
    115 CA        -6.0884  -14.3783  -50.3383 C.3       21 UNK         0.1400 
    116 CB        -4.8724  -13.4913  -50.6434 C.3       21 UNK        -0.1800 
    117 C         -5.6748  -15.6145  -49.5102 C.2       21 UNK         0.5000 
    118 O         -5.5726  -15.5107  -48.2861 O.2       21 UNK        -0.5000 
    119 N         -5.4886  -16.7605  -50.1786 N.am      22 UNK        -0.5000 
    120 CA        -5.2555  -18.0678  -49.5494 C.3       22 UNK         0.1400 
    121 C         -6.5580  -18.7683  -49.0571 C.2       22 UNK         0.5000 
    122 N         -7.7497  -18.2203  -49.2702 N.am      22 UNK        -0.7600 
    123 O         -6.4858  -19.8372  -48.4588 O.2       22 UNK        -0.5000 
    124 C124       -4.4397  -19.0213  -50.4576 C.3       23 UNK        -0.0398 
    125 S125       -2.8341  -18.3498  -50.9891 S.3       23 UNK        -0.2404 
    126 C126       -1.8315  -18.6577  -49.5052 C.3       23 UNK        -0.0205 
    127 H127        7.8061  -14.2909  -47.8593 H         1 UNK         0.0600 
    128 H128        8.2329  -14.2749  -46.1459 H         1 UNK         0.0600 
    129 H129        7.5753  -12.8221  -46.9066 H         1 UNK         0.0600 
    130 H130        5.8925  -15.3765  -48.2450 H         1 UNK         0.3000 
    131 H131        4.0084  -15.9822  -46.1731 H         1 UNK         0.0600 
    132 H132        4.3336  -17.6885  -47.7627 H         1 UNK         0.0800 
    133 H133        2.7249  -17.1142  -48.0382 H         1 UNK         0.0800 
    134 H134        2.0722  -15.6698  -50.3961 H         1 UNK         0.0800 
    135 H135        2.7707  -16.4601  -51.7868 H         1 UNK         0.0800 
    136 H136       -0.0135  -16.6981  -49.9834 H         1 UNK         0.1150 
    137 H137       -0.4171  -20.9499  -49.8248 H         1 UNK         0.1150 
    138 H138        3.3394  -19.2066  -50.9301 H         1 UNK         0.1150 
    139 H139        1.3079  -22.3562  -50.5059 H         1 UNK         0.0800 
    140 H140        2.5230  -21.7040  -51.5690 H         1 UNK         0.0800 
    141 H141        3.3962  -21.4088  -47.0784 H         1 UNK         0.0800 
    142 H142        1.9290  -20.8633  -47.8000 H         1 UNK         0.0800 
    143 H143        2.3851  -23.8658  -47.5073 H         1 UNK         0.0600 
    144 H144        2.2870  -22.1255  -45.2312 H         1 UNK         0.3000 
    145 H145        1.1380  -24.5509  -42.9035 H         1 UNK         0.0600 
    146 H146        3.3463  -24.2230  -41.8459 H         1 UNK         0.0600 
    147 H147        3.5091  -25.2624  -43.2518 H         1 UNK         0.0600 
    148 H148        4.0071  -23.5773  -43.3489 H         1 UNK         0.0600 
    149 H149        2.2752  -22.0349  -42.4256 H         1 UNK         0.3000 
    150 H150       -0.7040  -20.3311  -42.1063 H         1 UNK         0.0600 
    151 H151        1.2700  -20.8469  -40.6305 H         1 UNK         0.0600 
    152 H152        1.1333  -19.1379  -41.0021 H         1 UNK         0.0600 
    153 H153        2.3461  -20.1105  -41.8201 H         1 UNK         0.0600 
    154 H154       -0.3899  -18.7584  -43.6149 H         1 UNK         0.3000 
    155 H155        2.2672  -17.8090  -45.7644 H         1 UNK         0.0600 
    156 H156        0.3227  -17.3411  -47.2434 H         1 UNK         0.0600 
    157 H157       -0.6858  -18.4230  -46.2925 H         1 UNK         0.0600 
    158 H158        0.6675  -19.0658  -47.2125 H         1 UNK         0.0600 
    159 H159       -0.0670  -16.4189  -44.9859 H         1 UNK         0.3000 
    160 H160        1.1897  -14.9392  -41.9934 H         1 UNK         0.0600 
    161 H161        0.5132  -13.7563  -44.7335 H         1 UNK         0.0600 
    162 H162        2.0566  -13.5669  -43.9100 H         1 UNK         0.0600 
    163 H163        0.5957  -12.8903  -43.2023 H         1 UNK         0.0600 
    164 H164       -1.2441  -15.0380  -43.6734 H         1 UNK         0.3000 
    165 H165       -2.9959  -17.1286  -41.4285 H         1 UNK         0.0600 
    166 H166       -3.3720  -14.1037  -41.7664 H         1 UNK         0.0600 
    167 H167       -4.6076  -15.2523  -41.2498 H         1 UNK         0.0600 
    168 H168       -3.2114  -14.9458  -40.2298 H         1 UNK         0.0600 
    169 H169       -3.8554  -15.5947  -43.6799 H         1 UNK         0.3000 
    170 H170       -2.9988  -17.9627  -46.2020 H         1 UNK         0.0600 
    171 H171       -5.0599  -18.8631  -45.1653 H         1 UNK         0.0600 
    172 H172       -5.6586  -17.2360  -44.8611 H         1 UNK         0.0600 
    173 H173       -5.4887  -17.8184  -46.5079 H         1 UNK         0.0600 
    174 H174       -4.4276  -15.6984  -46.6513 H         1 UNK         0.3000 
    175 H175       -3.7032  -13.8269  -47.4815 H         1 UNK         0.0600 
    176 H176       -2.9963  -11.7270  -46.3744 H         1 UNK         0.0600 
    177 H177       -3.5433  -12.8814  -45.1680 H         1 UNK         0.0600 
    178 H178       -1.8200  -12.6026  -45.3959 H         1 UNK         0.0600 
    179 H179       -1.1019  -12.7074  -47.7609 H         1 UNK         0.3000 
    180 H180       -0.1420  -14.4638  -50.7062 H         1 UNK         0.0600 
    181 H181       -0.1742  -12.1770  -51.6583 H         1 UNK         0.0600 
    182 H182       -1.7975  -12.8317  -51.5116 H         1 UNK         0.0600 
    183 H183       -1.2362  -11.6300  -50.3611 H         1 UNK         0.0600 
    184 H184        1.6464  -13.8578  -49.5929 H         1 UNK         0.3000 
    185 H185        3.0756  -11.4938  -48.7333 H         1 UNK         0.0600 
    186 H186        3.6642  -11.3429  -46.2968 H         1 UNK         0.0600 
    187 H187        2.2197  -10.4254  -46.6886 H         1 UNK         0.0600 
    188 H188        2.0747  -11.9815  -45.8831 H         1 UNK         0.0600 
    189 H189        4.2395  -13.3571  -48.3981 H         1 UNK         0.3000 
    190 H190       -0.1433  -21.8614  -46.0476 H         1 UNK         0.3000 
    191 H191       -2.1203  -22.3083  -48.1439 H         1 UNK         0.0600 
    192 H192       -3.6228  -21.0946  -46.5930 H         1 UNK         0.0600 
    193 H193       -2.1130  -20.2178  -46.7734 H         1 UNK         0.0600 
    194 H194       -2.4148  -21.1514  -45.3151 H         1 UNK         0.0600 
    195 H195       -1.4169  -23.5754  -44.8558 H         1 UNK         0.3000 
    196 H196       -3.6271  -25.3158  -44.6333 H         1 UNK         0.0600 
    197 H197       -2.3431  -26.3342  -42.7855 H         1 UNK         0.0600 
    198 H198       -2.1737  -24.5853  -42.7277 H         1 UNK         0.0600 
    199 H199       -0.8599  -25.5827  -43.3525 H         1 UNK         0.0600 
    200 H200       -0.3636  -25.9094  -46.0029 H         1 UNK         0.3000 
    201 H201       -0.8382  -28.6710  -46.6989 H         1 UNK         0.0600 
    202 H202        1.4424  -27.7282  -46.3599 H         1 UNK         0.0600 
    203 H203        1.2160  -26.6385  -47.7284 H         1 UNK         0.0600 
    204 H204        1.2829  -28.3784  -47.9834 H         1 UNK         0.0600 
    205 H205       -1.9889  -25.7525  -48.0304 H         1 UNK         0.3000 
    206 H206       -3.0103  -25.0636  -49.8454 H         1 UNK         0.0600 
    207 H207       -4.5450  -26.9739  -49.3435 H         1 UNK         0.0600 
    208 H208       -4.4880  -26.6100  -51.0602 H         1 UNK         0.0600 
    209 H209       -3.6221  -28.0071  -50.4351 H         1 UNK         0.0600 
    210 H210       -0.2512  -25.1973  -50.0576 H         1 UNK         0.3000 
    211 H211        0.5337  -26.1898  -52.6841 H         1 UNK         0.0600 
    212 H212        1.9096  -24.4971  -50.5573 H         1 UNK         0.0600 
    213 H213        2.6364  -24.7987  -52.1336 H         1 UNK         0.0600 
    214 H214        2.2664  -26.1368  -51.0582 H         1 UNK         0.0600 
    215 H215       -1.0200  -23.3543  -51.4807 H         1 UNK         0.3000 
    216 H216       -1.7479  -22.7474  -54.1819 H         1 UNK         0.0600 
    217 H217       -1.5143  -20.3122  -54.0122 H         1 UNK         0.0600 
    218 H218        0.0802  -20.9975  -53.7282 H         1 UNK         0.0600 
    219 H219       -0.8908  -20.4128  -52.3792 H         1 UNK         0.0600 
    220 H220       -3.9065  -21.6741  -54.1099 H         1 UNK         0.3000 
    221 H221       -5.3472  -21.6652  -51.5772 H         1 UNK         0.0600 
    222 H222       -5.9786  -23.7119  -53.7835 H         1 UNK         0.0600 
    223 H223       -5.3740  -24.0975  -52.1730 H         1 UNK         0.0600 
    224 H224       -6.9748  -23.4039  -52.3660 H         1 UNK         0.0600 
    225 H225       -7.5418  -20.9552  -51.9042 H         1 UNK         0.3000 
    226 H226       -9.1343  -19.6108  -52.5531 H         1 UNK         0.0600 
    227 H227       -9.1516  -20.8677  -54.7531 H         1 UNK         0.0600 
    228 H228       -9.6886  -19.2046  -54.9003 H         1 UNK         0.0600 
    229 H229       -8.0759  -19.6456  -55.4304 H         1 UNK         0.0600 
    230 H230       -9.6267  -17.3848  -53.4684 H         1 UNK         0.3000 
    231 H231       -9.4278  -15.1989  -53.2036 H         1 UNK         0.0600 
    232 H232       -6.5616  -15.5510  -54.2548 H         1 UNK         0.0600 
    233 H233       -8.0059  -15.3564  -55.2371 H         1 UNK         0.0600 
    234 H234       -7.4735  -14.0417  -54.2090 H         1 UNK         0.0600 
    235 H235       -6.2787  -14.4527  -52.4468 H         1 UNK         0.3000 
    236 H236       -6.7865  -13.8003  -49.7293 H         1 UNK         0.0600 
    237 H237       -4.1308  -14.0216  -51.2421 H         1 UNK         0.0600 
    238 H238       -5.1627  -12.5909  -51.1848 H         1 UNK         0.0600 
    239 H239       -4.3834  -13.1698  -49.7238 H         1 UNK         0.0600 
    240 H240       -5.6265  -16.7776  -51.1818 H         1 UNK         0.3000 
    241 H241       -4.6519  -17.9002  -48.6567 H         1 UNK         0.0600 
    242 H242       -7.8495  -17.3306  -49.7460 H         1 UNK         0.3800 
    243 H243       -8.5713  -18.6905  -48.9259 H         1 UNK         0.3800 
    244 H244       -4.2660  -19.9807  -49.9668 H         1 UNK         0.0800 
    245 H245       -5.0051  -19.2470  -51.3587 H         1 UNK         0.0800 
    246 H246       -1.9655  -17.8373  -48.7981 H         1 UNK         0.0800 
    247 H247       -2.1784  -19.5622  -49.0064 H         1 UNK         0.0800 
@<TRIPOS>BOND
     1    1    2 1    
     2    1  127 1    
     3    1  128 1    
     4    1  129 1    
     5    2    3 2    
     6    2    4 am   BACKBONE|DICT|INTERRES
     7    4    5 1    
     8    4  130 1    
     9    5    6 1    
    10    5   65 1    
    11    5  131 1    
    12    6    7 1    
    13    6  132 1    
    14    6  133 1    
    15    7    8 1    
    16    8    9 1    
    17    8  134 1    
    18    8  135 1    
    19    9   10 ar   
    20    9   14 ar   
    21   10   11 ar   
    22   10  136 1    
    23   11   12 ar   
    24   11  126 1    
    25   12   13 ar   
    26   12  137 1    
    27   13   14 ar   
    28   13   15 1    
    29   14  138 1    
    30   15   16 1    
    31   15  139 1    
    32   15  140 1    
    33   16   17 1    
    34   17   18 1    
    35   17  141 1    
    36   17  142 1    
    37   18   19 1    
    38   18   67 1    
    39   18  143 1    
    40   19   20 am   BACKBONE|DICT|INTERRES
    41   19  144 1    
    42   20   21 2    
    43   20   22 1    
    44   22   23 1    
    45   22   24 1    
    46   22  145 1    
    47   23  146 1    
    48   23  147 1    
    49   23  148 1    
    50   24   25 am   BACKBONE|DICT|INTERRES
    51   24  149 1    
    52   25   26 2    
    53   25   27 1    
    54   27   28 1    
    55   27   29 1    
    56   27  150 1    
    57   28  151 1    
    58   28  152 1    
    59   28  153 1    
    60   29   30 am   BACKBONE|DICT|INTERRES
    61   29  154 1    
    62   30   31 2    
    63   30   32 1    
    64   32   33 1    
    65   32   34 1    
    66   32  155 1    
    67   33  156 1    
    68   33  157 1    
    69   33  158 1    
    70   34   35 am   BACKBONE|DICT|INTERRES
    71   34  159 1    
    72   35   36 2    
    73   35   37 1    
    74   37   38 1    
    75   37   39 1    
    76   37  160 1    
    77   38  161 1    
    78   38  162 1    
    79   38  163 1    
    80   39   40 am   BACKBONE|DICT|INTERRES
    81   39  164 1    
    82   40   41 2    
    83   40   42 1    
    84   42   43 1    
    85   42   44 1    
    86   42  165 1    
    87   43  166 1    
    88   43  167 1    
    89   43  168 1    
    90   44   45 am   BACKBONE|DICT|INTERRES
    91   44  169 1    
    92   45   46 2    
    93   45   47 1    
    94   47   48 1    
    95   47   49 1    
    96   47  170 1    
    97   48  171 1    
    98   48  172 1    
    99   48  173 1    
   100   49   50 am   BACKBONE|DICT|INTERRES
   101   49  174 1    
   102   50   51 2    
   103   50   52 1    
   104   52   53 1    
   105   52   54 1    
   106   52  175 1    
   107   53  176 1    
   108   53  177 1    
   109   53  178 1    
   110   54   55 am   BACKBONE|DICT|INTERRES
   111   54  179 1    
   112   55   56 2    
   113   55   57 1    
   114   57   58 1    
   115   57   59 1    
   116   57  180 1    
   117   58  181 1    
   118   58  182 1    
   119   58  183 1    
   120   59   60 am   BACKBONE|DICT|INTERRES
   121   59  184 1    
   122   60   61 2    
   123   60   62 1    
   124   62   63 1    
   125   62   64 1    
   126   62  185 1    
   127   63  186 1    
   128   63  187 1    
   129   63  188 1    
   130   64   65 am   BACKBONE|DICT|INTERRES
   131   64  189 1    
   132   65   66 2    
   133   67   68 2    
   134   67   69 am   BACKBONE|DICT|INTERRES
   135   69   70 1    
   136   69  190 1    
   137   70   71 1    
   138   70   72 1    
   139   70  191 1    
   140   71  192 1    
   141   71  193 1    
   142   71  194 1    
   143   72   73 2    
   144   72   74 am   BACKBONE|DICT|INTERRES
   145   74   75 1    
   146   74  195 1    
   147   75   76 1    
   148   75   77 1    
   149   75  196 1    
   150   76  197 1    
   151   76  198 1    
   152   76  199 1    
   153   77   78 2    
   154   77   79 am   BACKBONE|DICT|INTERRES
   155   79   80 1    
   156   79  200 1    
   157   80   81 1    
   158   80   82 1    
   159   80  201 1    
   160   81  202 1    
   161   81  203 1    
   162   81  204 1    
   163   82   83 2    
   164   82   84 am   BACKBONE|DICT|INTERRES
   165   84   85 1    
   166   84  205 1    
   167   85   86 1    
   168   85   87 1    
   169   85  206 1    
   170   86  207 1    
   171   86  208 1    
   172   86  209 1    
   173   87   88 2    
   174   87   89 am   BACKBONE|DICT|INTERRES
   175   89   90 1    
   176   89  210 1    
   177   90   91 1    
   178   90   92 1    
   179   90  211 1    
   180   91  212 1    
   181   91  213 1    
   182   91  214 1    
   183   92   93 2    
   184   92   94 am   BACKBONE|DICT|INTERRES
   185   94   95 1    
   186   94  215 1    
   187   95   96 1    
   188   95   97 1    
   189   95  216 1    
   190   96  217 1    
   191   96  218 1    
   192   96  219 1    
   193   97   98 2    
   194   97   99 am   BACKBONE|DICT|INTERRES
   195   99  100 1    
   196   99  220 1    
   197  100  101 1    
   198  100  102 1    
   199  100  221 1    
   200  101  222 1    
   201  101  223 1    
   202  101  224 1    
   203  102  103 2    
   204  102  104 am   BACKBONE|DICT|INTERRES
   205  104  105 1    
   206  104  225 1    
   207  105  106 1    
   208  105  107 1    
   209  105  226 1    
   210  106  227 1    
   211  106  228 1    
   212  106  229 1    
   213  107  108 2    
   214  107  109 am   BACKBONE|DICT|INTERRES
   215  109  110 1    
   216  109  230 1    
   217  110  111 1    
   218  110  112 1    
   219  110  231 1    
   220  111  232 1    
   221  111  233 1    
   222  111  234 1    
   223  112  113 2    
   224  112  114 am   BACKBONE|DICT|INTERRES
   225  114  115 1    
   226  114  235 1    
   227  115  116 1    
   228  115  117 1    
   229  115  236 1    
   230  116  237 1    
   231  116  238 1    
   232  116  239 1    
   233  117  118 2    
   234  117  119 am   BACKBONE|DICT|INTERRES
   235  119  120 1    
   236  119  240 1    
   237  120  121 1    
   238  120  124 1    
   239  120  241 1    
   240  121  122 am   BACKBONE|DICT|INTERRES
   241  121  123 2    
   242  122  242 1    
   243  122  243 1    
   244  124  125 1    
   245  124  244 1    
   246  124  245 1    
   247  125  126 1    
   248  126  246 1    
   249  126  247 1    
@<TRIPOS>SUBSTRUCTURE
     1 UNK         1 GROUP             0       ****    0 ROOT    
