@<TRIPOS>MOLECULE
3R540
247   249    1
SMALL
USER_CHARGES


@<TRIPOS>ATOM
      1 CA         -2.6411  -11.5877  -49.3938 C.3       0 UNK        -0.1800 
      2 C          -1.9305  -12.3495  -48.2848 C.2       0 UNK         0.5000 
      3 O          -1.9755  -11.9321  -47.1276 O.2       0 UNK        -0.5000 
      4 N          -1.2895  -13.4756  -48.6275 N.am      1 UNK        -0.5000 
      5 CA         -0.5003  -14.3204  -47.7169 C.3       1 UNK         0.1400 
      6 C6          0.2837  -15.4206  -48.4706 C.3       23 UNK        -0.0398 
      7 S7          1.4449  -14.7291  -49.6923 S.3       23 UNK        -0.2404 
      8 C8          2.7126  -16.0338  -49.7504 C.3       23 UNK        -0.0205 
      9 C9          2.2095  -17.2934  -50.4420 C.ar      23 UNK        -0.0193 
     10 C10         2.0107  -17.2931  -51.8250 C.ar      23 UNK        -0.1150 
     11 C11         1.5898  -18.4504  -52.4828 C.ar      23 UNK        -0.0193 
     12 C12         1.3658  -19.6149  -51.7435 C.ar      23 UNK        -0.1150 
     13 C13         1.5779  -19.6432  -50.3603 C.ar      23 UNK        -0.0193 
     14 C14         1.9886  -18.4676  -49.7138 C.ar      23 UNK        -0.1150 
     15 C15         1.4058  -20.9849  -49.6439 C.3       23 UNK        -0.0205 
     16 S16         1.6611  -20.9890  -47.8304 S.3       23 UNK        -0.2404 
     17 C17         1.9578  -22.7736  -47.5386 C.3       23 UNK        -0.0398 
     18 CA          0.9827  -23.4989  -46.5729 C.3       11 UNK         0.1400 
     19 N           1.2876  -23.2034  -45.1724 N.am      11 UNK        -0.5000 
     20 C           1.7574  -24.0929  -44.2879 C.2       10 UNK         0.5000 
     21 O           1.9617  -25.2800  -44.5518 O.2       10 UNK        -0.5000 
     22 CA          2.0741  -23.5496  -42.8801 C.3       10 UNK         0.1400 
     23 CB          2.6574  -24.6106  -41.9239 C.3       10 UNK        -0.1800 
     24 N           2.9354  -22.3677  -42.9339 N.am      10 UNK        -0.5000 
     25 C           4.1766  -22.2576  -43.4282 C.2       9 UNK         0.5000 
     26 O           4.8359  -23.2003  -43.8675 O.2       9 UNK        -0.5000 
     27 CA          4.7845  -20.8393  -43.4443 C.3       9 UNK         0.1400 
     28 CB          4.6270  -20.2170  -44.8403 C.3       9 UNK        -0.1800 
     29 N           4.1869  -19.9422  -42.4497 N.am      9 UNK        -0.5000 
     30 C           4.3760  -20.0400  -41.1252 C.2       8 UNK         0.5000 
     31 O           5.1491  -20.8434  -40.6022 O.2       8 UNK        -0.5000 
     32 CA          3.5276  -19.1129  -40.2333 C.3       8 UNK         0.1400 
     33 CB          4.1523  -17.7126  -40.1386 C.3       8 UNK        -0.1800 
     34 N           2.1471  -19.0005  -40.7054 N.am      8 UNK        -0.5000 
     35 C           1.2528  -19.9998  -40.7047 C.2       7 UNK         0.5000 
     36 O           1.4673  -21.1130  -40.2264 O.2       7 UNK        -0.5000 
     37 CA         -0.0858  -19.7281  -41.4120 C.3       7 UNK         0.1400 
     38 CB         -1.0819  -19.0225  -40.4799 C.3       7 UNK        -0.1800 
     39 N           0.1076  -18.9375  -42.6275 N.am      7 UNK        -0.5000 
     40 C           0.6111  -19.4308  -43.7669 C.2       6 UNK         0.5000 
     41 O           0.8892  -20.6163  -43.9311 O.2       6 UNK        -0.5000 
     42 CA          0.8410  -18.4468  -44.9220 C.3       6 UNK         0.1400 
     43 CB         -0.3743  -18.4612  -45.8471 C.3       6 UNK        -0.1800 
     44 N           1.0940  -17.0795  -44.4775 N.am      6 UNK        -0.5000 
     45 C           2.2083  -16.6788  -43.8558 C.2       5 UNK         0.5000 
     46 O           3.1523  -17.4262  -43.5993 O.2       5 UNK        -0.5000 
     47 CA          2.2375  -15.2124  -43.3877 C.3       5 UNK         0.1400 
     48 CB          2.5278  -14.2656  -44.5622 C.3       5 UNK        -0.1800 
     49 N           1.0028  -14.7974  -42.7125 N.am      5 UNK        -0.5000 
     50 C           0.5143  -15.3580  -41.5992 C.2       4 UNK         0.5000 
     51 O           1.0401  -16.3289  -41.0547 O.2       4 UNK        -0.5000 
     52 CA         -0.7733  -14.7799  -40.9774 C.3       4 UNK         0.1400 
     53 CB         -0.4363  -13.8520  -39.7953 C.3       4 UNK        -0.1800 
     54 N          -1.7172  -14.1357  -41.9010 N.am      4 UNK        -0.5000 
     55 C          -1.5933  -12.9976  -42.5955 C.2       3 UNK         0.5000 
     56 O          -0.5512  -12.3437  -42.6595 O.2       3 UNK        -0.5000 
     57 CA         -2.8526  -12.5422  -43.3652 C.3       3 UNK         0.1400 
     58 CB         -2.7476  -11.0891  -43.8601 C.3       3 UNK        -0.1800 
     59 N          -3.1199  -13.4126  -44.5084 N.am      3 UNK        -0.5000 
     60 C          -3.6070  -14.6612  -44.4430 C.2       2 UNK         0.5000 
     61 O          -4.0010  -15.1796  -43.3970 O.2       2 UNK        -0.5000 
     62 CA         -3.6257  -15.4861  -45.7486 C.3       2 UNK         0.1400 
     63 CB         -5.0308  -15.4685  -46.3692 C.3       2 UNK        -0.1800 
     64 N          -2.6591  -15.0343  -46.7537 N.am      2 UNK        -0.5000 
     65 C          -1.3325  -14.9455  -46.5769 C.2       1 UNK         0.5000 
     66 O          -0.7630  -15.3015  -45.5460 O.2       1 UNK        -0.5000 
     67 C          -0.5066  -23.2462  -46.8827 C.2       11 UNK         0.5000 
     68 O          -1.2170  -22.6108  -46.0991 O.2       11 UNK        -0.5000 
     69 N          -0.9464  -23.7445  -48.0477 N.am      12 UNK        -0.5000 
     70 CA         -2.3324  -23.7697  -48.5310 C.3       12 UNK         0.1400 
     71 CB         -2.3605  -24.5189  -49.8721 C.3       12 UNK        -0.1800 
     72 C          -3.0229  -22.4004  -48.6827 C.2       12 UNK         0.5000 
     73 O          -4.2434  -22.3539  -48.8475 O.2       12 UNK        -0.5000 
     74 N          -2.2594  -21.3019  -48.6409 N.am      13 UNK        -0.5000 
     75 CA         -2.7944  -19.9399  -48.6245 C.3       13 UNK         0.1400 
     76 CB         -1.6995  -18.9395  -49.0212 C.3       13 UNK        -0.1800 
     77 C          -3.4687  -19.5786  -47.2865 C.2       13 UNK         0.5000 
     78 O          -4.3215  -18.6939  -47.2751 O.2       13 UNK        -0.5000 
     79 N          -3.1531  -20.3076  -46.2029 N.am      14 UNK        -0.5000 
     80 CA         -3.8438  -20.2028  -44.9129 C.3       14 UNK         0.1400 
     81 CB         -3.0448  -20.9633  -43.8451 C.3       14 UNK        -0.1800 
     82 C          -5.2910  -20.7323  -44.9779 C.2       14 UNK         0.5000 
     83 O          -6.1519  -20.2499  -44.2427 O.2       14 UNK        -0.5000 
     84 N          -5.5328  -21.6894  -45.8846 N.am      15 UNK        -0.5000 
     85 CA         -6.8508  -22.2284  -46.2236 C.3       15 UNK         0.1400 
     86 CB         -6.6840  -23.7102  -46.6017 C.3       15 UNK        -0.1800 
     87 C          -7.5271  -21.4453  -47.3700 C.2       15 UNK         0.5000 
     88 O          -8.6277  -21.8141  -47.7798 O.2       15 UNK        -0.5000 
     89 N          -6.8498  -20.4060  -47.8849 N.am      16 UNK        -0.5000 
     90 CA         -7.2221  -19.5425  -49.0118 C.3       16 UNK         0.1400 
     91 CB         -8.5318  -18.7811  -48.7208 C.3       16 UNK        -0.1800 
     92 C          -7.2413  -20.2539  -50.3831 C.2       16 UNK         0.5000 
     93 O          -7.7348  -19.6773  -51.3535 O.2       16 UNK        -0.5000 
     94 N          -6.6862  -21.4717  -50.4597 N.am      17 UNK        -0.5000 
     95 CA         -6.5354  -22.2333  -51.6998 C.3       17 UNK         0.1400 
     96 CB         -6.4643  -23.7319  -51.3707 C.3       17 UNK        -0.1800 
     97 C          -5.2872  -21.7840  -52.4757 C.2       17 UNK         0.5000 
     98 O          -5.3360  -21.6686  -53.7014 O.2       17 UNK        -0.5000 
     99 N          -4.1973  -21.5336  -51.7330 N.am      18 UNK        -0.5000 
    100 CA        -2.9140  -20.9779  -52.1816 C.3       18 UNK         0.1400 
    101 CB        -3.0763  -19.4795  -52.5016 C.3       18 UNK        -0.1800 
    102 C         -2.2472  -21.7659  -53.3264 C.2       18 UNK         0.5000 
    103 O         -1.6223  -21.1644  -54.1976 O.2       18 UNK        -0.5000 
    104 N         -2.4098  -23.0980  -53.3133 N.am      19 UNK        -0.5000 
    105 CA        -1.9373  -24.0406  -54.3357 C.3       19 UNK         0.1400 
    106 CB        -0.3964  -24.1324  -54.3219 C.3       19 UNK        -0.1800 
    107 C         -2.5192  -23.7176  -55.7300 C.2       19 UNK         0.5000 
    108 O         -1.7784  -23.6289  -56.7101 O.2       19 UNK        -0.5000 
    109 N         -3.8461  -23.5217  -55.7611 N.am      20 UNK        -0.5000 
    110 CA        -4.6614  -23.0782  -56.8946 C.3       20 UNK         0.1400 
    111 CB        -4.5769  -24.0602  -58.0830 C.3       20 UNK        -0.1800 
    112 C         -4.3488  -21.6183  -57.2744 C.2       20 UNK         0.5000 
    113 O         -3.9276  -21.3395  -58.3996 O.2       20 UNK        -0.5000 
    114 N         -4.5568  -20.7154  -56.3033 N.am      21 UNK        -0.5000 
    115 CA        -4.4479  -19.2538  -56.4129 C.3       21 UNK         0.1400 
    116 CB        -5.5971  -18.7024  -57.2825 C.3       21 UNK        -0.1800 
    117 C         -3.0591  -18.7664  -56.8812 C.2       21 UNK         0.5000 
    118 O         -2.9661  -17.7917  -57.6300 O.2       21 UNK        -0.5000 
    119 N         -2.0091  -19.4742  -56.4480 N.am      22 UNK        -0.5000 
    120 CA        -0.6015  -19.2903  -56.8330 C.3       22 UNK         0.1400 
    121 C         -0.2940  -19.5828  -58.3354 C.2       22 UNK         0.5000 
    122 N         -1.1708  -20.2453  -59.0824 N.am      22 UNK        -0.7600 
    123 O          0.7739  -19.2338  -58.8318 O.2       22 UNK        -0.5000 
    124 C124       -0.0018  -17.9415  -56.3405 C.3       23 UNK        -0.0398 
    125 S125       -0.1364  -17.7202  -54.5310 S.3       23 UNK        -0.2404 
    126 C126        1.4375  -18.4565  -53.9967 C.3       23 UNK        -0.0205 
    127 H127       -2.5239  -12.0765  -50.3613 H         1 UNK         0.0600 
    128 H128       -3.7066  -11.5151  -49.1756 H         1 UNK         0.0600 
    129 H129       -2.2383  -10.5780  -49.4717 H         1 UNK         0.0600 
    130 H130       -1.2772  -13.7587  -49.5973 H         1 UNK         0.3000 
    131 H131        0.2283  -13.6658  -47.2339 H         1 UNK         0.0600 
    132 H132       -0.3935  -16.1037  -48.9851 H         1 UNK         0.0800 
    133 H133        0.8577  -16.0226  -47.7640 H         1 UNK         0.0800 
    134 H134        3.0633  -16.2526  -48.7406 H         1 UNK         0.0800 
    135 H135        3.5787  -15.6542  -50.2944 H         1 UNK         0.0800 
    136 H136        2.1948  -16.3915  -52.3925 H         1 UNK         0.1150 
    137 H137        1.0555  -20.5156  -52.2555 H         1 UNK         0.1150 
    138 H138        2.1666  -18.4605  -48.6488 H         1 UNK         0.1150 
    139 H139        0.4141  -21.3821  -49.8616 H         1 UNK         0.0800 
    140 H140        2.1208  -21.6748  -50.0944 H         1 UNK         0.0800 
    141 H141        2.9790  -22.8806  -47.1694 H         1 UNK         0.0800 
    142 H142        1.9557  -23.2971  -48.4951 H         1 UNK         0.0800 
    143 H143        1.1238  -24.5682  -46.7428 H         1 UNK         0.0600 
    144 H144        1.0913  -22.2541  -44.8610 H         1 UNK         0.3000 
    145 H145        1.1244  -23.2154  -42.4596 H         1 UNK         0.0600 
    146 H146        2.8400  -24.1883  -40.9356 H         1 UNK         0.0600 
    147 H147        1.9651  -25.4438  -41.7982 H         1 UNK         0.0600 
    148 H148        3.5982  -25.0199  -42.2928 H         1 UNK         0.0600 
    149 H149        2.4754  -21.5063  -42.6726 H         1 UNK         0.3000 
    150 H150        5.8507  -20.9300  -43.2272 H         1 UNK         0.0600 
    151 H151        5.1307  -20.8209  -45.5960 H         1 UNK         0.0600 
    152 H152        5.0585  -19.2167  -44.8812 H         1 UNK         0.0600 
    153 H153        3.5788  -20.1442  -45.1295 H         1 UNK         0.0600 
    154 H154        3.6028  -19.1909  -42.8045 H         1 UNK         0.3000 
    155 H155        3.5060  -19.5431  -39.2299 H         1 UNK         0.0600 
    156 H156        4.1887  -17.2186  -41.1097 H         1 UNK         0.0600 
    157 H157        5.1730  -17.7656  -39.7581 H         1 UNK         0.0600 
    158 H158        3.5844  -17.0738  -39.4619 H         1 UNK         0.0600 
    159 H159        1.8616  -18.0933  -41.0629 H         1 UNK         0.3000 
    160 H160       -0.5174  -20.6919  -41.6918 H         1 UNK         0.0600 
    161 H161       -2.0283  -18.8311  -40.9860 H         1 UNK         0.0600 
    162 H162       -0.6968  -18.0714  -40.1138 H         1 UNK         0.0600 
    163 H163       -1.2988  -19.6412  -39.6084 H         1 UNK         0.0600 
    164 H164       -0.0579  -17.9442  -42.5620 H         1 UNK         0.3000 
    165 H165        1.7066  -18.7883  -45.4917 H         1 UNK         0.0600 
    166 H166       -0.2130  -17.8220  -46.7118 H         1 UNK         0.0600 
    167 H167       -0.5542  -19.4724  -46.2108 H         1 UNK         0.0600 
    168 H168       -1.2776  -18.1221  -45.3385 H         1 UNK         0.0600 
    169 H169        0.3725  -16.3899  -44.6842 H         1 UNK         0.3000 
    170 H170        3.0523  -15.1167  -42.6671 H         1 UNK         0.0600 
    171 H171        3.4538  -14.5426  -45.0676 H         1 UNK         0.0600 
    172 H172        2.6393  -13.2367  -44.2196 H         1 UNK         0.0600 
    173 H173        1.7307  -14.2852  -45.3049 H         1 UNK         0.0600 
    174 H174        0.5246  -13.9799  -43.0750 H         1 UNK         0.3000 
    175 H175       -1.3160  -15.6341  -40.5702 H         1 UNK         0.0600 
    176 H176       -1.3403  -13.5104  -39.2911 H         1 UNK         0.0600 
    177 H177        0.1716  -14.3719  -39.0536 H         1 UNK         0.0600 
    178 H178        0.1239  -12.9727  -40.1145 H         1 UNK         0.0600 
    179 H179       -2.5941  -14.6322  -42.0261 H         1 UNK         0.3000 
    180 H180       -3.6991  -12.5961  -42.6774 H         1 UNK         0.0600 
    181 H181       -1.9217  -10.9592  -44.5605 H         1 UNK         0.0600 
    182 H182       -2.5828  -10.4044  -43.0274 H         1 UNK         0.0600 
    183 H183       -3.6631  -10.7763  -44.3624 H         1 UNK         0.0600 
    184 H184       -2.7910  -13.0732  -45.4049 H         1 UNK         0.3000 
    185 H185       -3.3748  -16.5169  -45.4901 H         1 UNK         0.0600 
    186 H186       -5.3371  -14.4579  -46.6423 H         1 UNK         0.0600 
    187 H187       -5.0766  -16.0867  -47.2657 H         1 UNK         0.0600 
    188 H188       -5.7707  -15.8602  -45.6699 H         1 UNK         0.0600 
    189 H189       -3.0415  -14.7055  -47.6279 H         1 UNK         0.3000 
    190 H190       -0.2867  -24.2428  -48.6273 H         1 UNK         0.3000 
    191 H191       -2.9215  -24.3369  -47.8078 H         1 UNK         0.0600 
    192 H192       -1.9946  -25.5398  -49.7602 H         1 UNK         0.0600 
    193 H193       -1.7417  -24.0228  -50.6206 H         1 UNK         0.0600 
    194 H194       -3.3733  -24.5865  -50.2696 H         1 UNK         0.0600 
    195 H195       -1.2711  -21.4108  -48.4683 H         1 UNK         0.3000 
    196 H196       -3.5809  -19.8681  -49.3780 H         1 UNK         0.0600 
    197 H197       -2.0056  -17.9131  -48.8159 H         1 UNK         0.0600 
    198 H198       -1.4781  -19.0016  -50.0860 H         1 UNK         0.0600 
    199 H199       -0.7668  -19.1259  -48.4951 H         1 UNK         0.0600 
    200 H200       -2.4467  -21.0344  -46.2740 H         1 UNK         0.3000 
    201 H201       -3.8816  -19.1489  -44.6288 H         1 UNK         0.0600 
    202 H202       -2.0190  -20.6050  -43.7929 H         1 UNK         0.0600 
    203 H203       -3.0112  -22.0336  -44.0524 H         1 UNK         0.0600 
    204 H204       -3.4872  -20.8320  -42.8569 H         1 UNK         0.0600 
    205 H205       -4.7644  -22.0150  -46.4535 H         1 UNK         0.3000 
    206 H206       -7.5076  -22.1692  -45.3533 H         1 UNK         0.0600 
    207 H207       -6.2157  -24.2728  -45.7939 H         1 UNK         0.0600 
    208 H208       -7.6500  -24.1758  -46.8007 H         1 UNK         0.0600 
    209 H209       -6.0716  -23.8339  -47.4955 H         1 UNK         0.0600 
    210 H210       -5.9659  -20.1705  -47.4537 H         1 UNK         0.3000 
    211 H211       -6.4281  -18.7980  -49.0835 H         1 UNK         0.0600 
    212 H212       -9.3964  -19.4450  -48.7161 H         1 UNK         0.0600 
    213 H213       -8.7153  -18.0152  -49.4751 H         1 UNK         0.0600 
    214 H214       -8.4883  -18.2776  -47.7550 H         1 UNK         0.0600 
    215 H215       -6.2641  -21.8640  -49.6277 H         1 UNK         0.3000 
    216 H216       -7.4064  -22.0677  -52.3374 H         1 UNK         0.0600 
    217 H217       -6.3267  -24.3265  -52.2747 H         1 UNK         0.0600 
    218 H218       -7.3854  -24.0709  -50.8963 H         1 UNK         0.0600 
    219 H219       -5.6409  -23.9614  -50.6946 H         1 UNK         0.0600 
    220 H220       -4.2777  -21.7040  -50.7365 H         1 UNK         0.3000 
    221 H221       -2.2231  -21.0590  -51.3441 H         1 UNK         0.0600 
    222 H222       -3.7016  -19.3235  -53.3781 H         1 UNK         0.0600 
    223 H223       -3.5315  -18.9415  -51.6707 H         1 UNK         0.0600 
    224 H224       -2.1104  -19.0132  -52.6962 H         1 UNK         0.0600 
    225 H225       -2.9638  -23.4966  -52.5701 H         1 UNK         0.3000 
    226 H226       -2.3263  -25.0219  -54.0599 H         1 UNK         0.0600 
    227 H227       -0.0257  -24.3770  -53.3266 H         1 UNK         0.0600 
    228 H228       -0.0471  -24.9123  -54.9993 H         1 UNK         0.0600 
    229 H229        0.0711  -23.1977  -54.6330 H         1 UNK         0.0600 
    230 H230       -4.3379  -23.5571  -54.8789 H         1 UNK         0.3000 
    231 H231       -5.6952  -23.0878  -56.5455 H         1 UNK         0.0600 
    232 H232       -4.8176  -25.0767  -57.7724 H         1 UNK         0.0600 
    233 H233       -3.5869  -24.0737  -58.5391 H         1 UNK         0.0600 
    234 H234       -5.2864  -23.7821  -58.8631 H         1 UNK         0.0600 
    235 H235       -4.8590  -21.0597  -55.3936 H         1 UNK         0.3000 
    236 H236       -4.5872  -18.8563  -55.4083 H         1 UNK         0.0600 
    237 H237       -5.6122  -17.6120  -57.2684 H         1 UNK         0.0600 
    238 H238       -5.5022  -19.0155  -58.3228 H         1 UNK         0.0600 
    239 H239       -6.5660  -19.0424  -56.9168 H         1 UNK         0.0600 
    240 H240       -2.1618  -20.2300  -55.7867 H         1 UNK         0.3000 
    241 H241       -0.0687  -20.0809  -56.3042 H         1 UNK         0.0600 
    242 H242       -0.9522  -20.4368  -60.0469 H         1 UNK         0.3800 
    243 H243       -2.0594  -20.5536  -58.7015 H         1 UNK         0.3800 
    244 H244        1.0501  -17.8607  -56.6184 H         1 UNK         0.0800 
    245 H245       -0.5011  -17.1031  -56.8274 H         1 UNK         0.0800 
    246 H246        2.2661  -17.9075  -54.4466 H         1 UNK         0.0800 
    247 H247        1.5017  -19.4774  -54.3764 H         1 UNK         0.0800 
@<TRIPOS>BOND
     1    1    2 1    
     2    1  127 1    
     3    1  128 1    
     4    1  129 1    
     5    2    3 2    
     6    2    4 am   BACKBONE|DICT|INTERRES
     7    4    5 1    
     8    4  130 1    
     9    5    6 1    
    10    5   65 1    
    11    5  131 1    
    12    6    7 1    
    13    6  132 1    
    14    6  133 1    
    15    7    8 1    
    16    8    9 1    
    17    8  134 1    
    18    8  135 1    
    19    9   10 ar   
    20    9   14 ar   
    21   10   11 ar   
    22   10  136 1    
    23   11   12 ar   
    24   11  126 1    
    25   12   13 ar   
    26   12  137 1    
    27   13   14 ar   
    28   13   15 1    
    29   14  138 1    
    30   15   16 1    
    31   15  139 1    
    32   15  140 1    
    33   16   17 1    
    34   17   18 1    
    35   17  141 1    
    36   17  142 1    
    37   18   19 1    
    38   18   67 1    
    39   18  143 1    
    40   19   20 am   BACKBONE|DICT|INTERRES
    41   19  144 1    
    42   20   21 2    
    43   20   22 1    
    44   22   23 1    
    45   22   24 1    
    46   22  145 1    
    47   23  146 1    
    48   23  147 1    
    49   23  148 1    
    50   24   25 am   BACKBONE|DICT|INTERRES
    51   24  149 1    
    52   25   26 2    
    53   25   27 1    
    54   27   28 1    
    55   27   29 1    
    56   27  150 1    
    57   28  151 1    
    58   28  152 1    
    59   28  153 1    
    60   29   30 am   BACKBONE|DICT|INTERRES
    61   29  154 1    
    62   30   31 2    
    63   30   32 1    
    64   32   33 1    
    65   32   34 1    
    66   32  155 1    
    67   33  156 1    
    68   33  157 1    
    69   33  158 1    
    70   34   35 am   BACKBONE|DICT|INTERRES
    71   34  159 1    
    72   35   36 2    
    73   35   37 1    
    74   37   38 1    
    75   37   39 1    
    76   37  160 1    
    77   38  161 1    
    78   38  162 1    
    79   38  163 1    
    80   39   40 am   BACKBONE|DICT|INTERRES
    81   39  164 1    
    82   40   41 2    
    83   40   42 1    
    84   42   43 1    
    85   42   44 1    
    86   42  165 1    
    87   43  166 1    
    88   43  167 1    
    89   43  168 1    
    90   44   45 am   BACKBONE|DICT|INTERRES
    91   44  169 1    
    92   45   46 2    
    93   45   47 1    
    94   47   48 1    
    95   47   49 1    
    96   47  170 1    
    97   48  171 1    
    98   48  172 1    
    99   48  173 1    
   100   49   50 am   BACKBONE|DICT|INTERRES
   101   49  174 1    
   102   50   51 2    
   103   50   52 1    
   104   52   53 1    
   105   52   54 1    
   106   52  175 1    
   107   53  176 1    
   108   53  177 1    
   109   53  178 1    
   110   54   55 am   BACKBONE|DICT|INTERRES
   111   54  179 1    
   112   55   56 2    
   113   55   57 1    
   114   57   58 1    
   115   57   59 1    
   116   57  180 1    
   117   58  181 1    
   118   58  182 1    
   119   58  183 1    
   120   59   60 am   BACKBONE|DICT|INTERRES
   121   59  184 1    
   122   60   61 2    
   123   60   62 1    
   124   62   63 1    
   125   62   64 1    
   126   62  185 1    
   127   63  186 1    
   128   63  187 1    
   129   63  188 1    
   130   64   65 am   BACKBONE|DICT|INTERRES
   131   64  189 1    
   132   65   66 2    
   133   67   68 2    
   134   67   69 am   BACKBONE|DICT|INTERRES
   135   69   70 1    
   136   69  190 1    
   137   70   71 1    
   138   70   72 1    
   139   70  191 1    
   140   71  192 1    
   141   71  193 1    
   142   71  194 1    
   143   72   73 2    
   144   72   74 am   BACKBONE|DICT|INTERRES
   145   74   75 1    
   146   74  195 1    
   147   75   76 1    
   148   75   77 1    
   149   75  196 1    
   150   76  197 1    
   151   76  198 1    
   152   76  199 1    
   153   77   78 2    
   154   77   79 am   BACKBONE|DICT|INTERRES
   155   79   80 1    
   156   79  200 1    
   157   80   81 1    
   158   80   82 1    
   159   80  201 1    
   160   81  202 1    
   161   81  203 1    
   162   81  204 1    
   163   82   83 2    
   164   82   84 am   BACKBONE|DICT|INTERRES
   165   84   85 1    
   166   84  205 1    
   167   85   86 1    
   168   85   87 1    
   169   85  206 1    
   170   86  207 1    
   171   86  208 1    
   172   86  209 1    
   173   87   88 2    
   174   87   89 am   BACKBONE|DICT|INTERRES
   175   89   90 1    
   176   89  210 1    
   177   90   91 1    
   178   90   92 1    
   179   90  211 1    
   180   91  212 1    
   181   91  213 1    
   182   91  214 1    
   183   92   93 2    
   184   92   94 am   BACKBONE|DICT|INTERRES
   185   94   95 1    
   186   94  215 1    
   187   95   96 1    
   188   95   97 1    
   189   95  216 1    
   190   96  217 1    
   191   96  218 1    
   192   96  219 1    
   193   97   98 2    
   194   97   99 am   BACKBONE|DICT|INTERRES
   195   99  100 1    
   196   99  220 1    
   197  100  101 1    
   198  100  102 1    
   199  100  221 1    
   200  101  222 1    
   201  101  223 1    
   202  101  224 1    
   203  102  103 2    
   204  102  104 am   BACKBONE|DICT|INTERRES
   205  104  105 1    
   206  104  225 1    
   207  105  106 1    
   208  105  107 1    
   209  105  226 1    
   210  106  227 1    
   211  106  228 1    
   212  106  229 1    
   213  107  108 2    
   214  107  109 am   BACKBONE|DICT|INTERRES
   215  109  110 1    
   216  109  230 1    
   217  110  111 1    
   218  110  112 1    
   219  110  231 1    
   220  111  232 1    
   221  111  233 1    
   222  111  234 1    
   223  112  113 2    
   224  112  114 am   BACKBONE|DICT|INTERRES
   225  114  115 1    
   226  114  235 1    
   227  115  116 1    
   228  115  117 1    
   229  115  236 1    
   230  116  237 1    
   231  116  238 1    
   232  116  239 1    
   233  117  118 2    
   234  117  119 am   BACKBONE|DICT|INTERRES
   235  119  120 1    
   236  119  240 1    
   237  120  121 1    
   238  120  124 1    
   239  120  241 1    
   240  121  122 am   BACKBONE|DICT|INTERRES
   241  121  123 2    
   242  122  242 1    
   243  122  243 1    
   244  124  125 1    
   245  124  244 1    
   246  124  245 1    
   247  125  126 1    
   248  126  246 1    
   249  126  247 1    
@<TRIPOS>SUBSTRUCTURE
     1 UNK         1 GROUP             0       ****    0 ROOT    
