@<TRIPOS>MOLECULE
3R540
247   249    1
SMALL
USER_CHARGES


@<TRIPOS>ATOM
      1 CA         -0.9701   -8.2477  -50.0585 C.3       0 UNK        -0.1800 
      2 C          -0.0214   -9.1166  -49.2446 C.2       0 UNK         0.5000 
      3 O           0.9253   -8.5997  -48.6502 O.2       0 UNK        -0.5000 
      4 N          -0.2656  -10.4322  -49.2239 N.am      1 UNK        -0.5000 
      5 CA          0.5052  -11.4219  -48.4627 C.3       1 UNK         0.1400 
      6 C6          0.1747  -12.8748  -48.8930 C.3       23 UNK        -0.0398 
      7 S7          0.4147  -13.1570  -50.6798 S.3       23 UNK        -0.2404 
      8 C8         -0.2592  -14.8371  -50.8740 C.3       23 UNK        -0.0205 
      9 C9          0.8416  -15.8425  -51.1722 C.ar      23 UNK        -0.0193 
     10 C10         1.2245  -16.0853  -52.4936 C.ar      23 UNK        -0.1150 
     11 C11         2.2298  -17.0112  -52.7845 C.ar      23 UNK        -0.0193 
     12 C12         2.8600  -17.6936  -51.7402 C.ar      23 UNK        -0.1150 
     13 C13         2.4728  -17.4736  -50.4152 C.ar      23 UNK        -0.0193 
     14 C14         1.4688  -16.5401  -50.1368 C.ar      23 UNK        -0.1150 
     15 C15         3.1284  -18.2567  -49.2870 C.3       23 UNK        -0.0205 
     16 S16         2.5795  -19.9945  -49.2431 S.3       23 UNK        -0.2404 
     17 C17         0.7755  -19.8077  -49.0549 C.3       23 UNK        -0.0398 
     18 CA          0.0472  -21.1592  -48.8265 C.3       11 UNK         0.1400 
     19 N           0.5116  -21.8194  -47.6057 N.am      11 UNK        -0.5000 
     20 C           0.5228  -23.1406  -47.3908 C.2       10 UNK         0.5000 
     21 O           0.2381  -23.9759  -48.2514 O.2       10 UNK        -0.5000 
     22 CA          0.9033  -23.5933  -45.9651 C.3       10 UNK         0.1400 
     23 CB          1.2787  -25.0874  -45.8729 C.3       10 UNK        -0.1800 
     24 N           1.9297  -22.7458  -45.3515 N.am      10 UNK        -0.5000 
     25 C           3.2055  -22.5939  -45.7389 C.2       9 UNK         0.5000 
     26 O           3.7162  -23.2131  -46.6730 O.2       9 UNK        -0.5000 
     27 CA          4.0686  -21.5772  -44.9604 C.3       9 UNK         0.1400 
     28 CB          4.4501  -20.3940  -45.8649 C.3       9 UNK        -0.1800 
     29 N           3.4255  -21.0561  -43.7516 N.am      9 UNK        -0.5000 
     30 C           3.2625  -21.7284  -42.6043 C.2       8 UNK         0.5000 
     31 O           3.7025  -22.8614  -42.4079 O.2       8 UNK        -0.5000 
     32 CA          2.4292  -21.0337  -41.5080 C.3       8 UNK         0.1400 
     33 CB          3.3177  -20.1410  -40.6288 C.3       8 UNK        -0.1800 
     34 N           1.3171  -20.2426  -42.0446 N.am      8 UNK        -0.5000 
     35 C           0.2711  -20.7562  -42.7100 C.2       7 UNK         0.5000 
     36 O           0.1163  -21.9597  -42.9150 O.2       7 UNK        -0.5000 
     37 CA         -0.7412  -19.7575  -43.2975 C.3       7 UNK         0.1400 
     38 CB         -1.7290  -19.2733  -42.2271 C.3       7 UNK        -0.1800 
     39 N          -0.0869  -18.6171  -43.9353 N.am      7 UNK        -0.5000 
     40 C           0.6725  -18.7078  -45.0357 C.2       6 UNK         0.5000 
     41 O           0.8412  -19.7547  -45.6602 O.2       6 UNK        -0.5000 
     42 CA          1.3980  -17.4310  -45.4954 C.3       6 UNK         0.1400 
     43 CB          0.4804  -16.5330  -46.3369 C.3       6 UNK        -0.1800 
     44 N           1.9394  -16.6552  -44.3835 N.am      6 UNK        -0.5000 
     45 C           2.8930  -17.0805  -43.5453 C.2       5 UNK         0.5000 
     46 O           3.4508  -18.1719  -43.6402 O.2       5 UNK        -0.5000 
     47 CA          3.2455  -16.1471  -42.3769 C.3       5 UNK         0.1400 
     48 CB          4.2065  -15.0387  -42.8306 C.3       5 UNK        -0.1800 
     49 N           2.0497  -15.5506  -41.7832 N.am      5 UNK        -0.5000 
     50 C           1.1449  -16.2307  -41.0659 C.2       4 UNK         0.5000 
     51 O           1.2364  -17.4316  -40.8077 O.2       4 UNK        -0.5000 
     52 CA         -0.0877  -15.4386  -40.5930 C.3       4 UNK         0.1400 
     53 CB          0.2442  -14.6079  -39.3443 C.3       4 UNK        -0.1800 
     54 N          -0.6281  -14.5608  -41.6338 N.am      4 UNK        -0.5000 
     55 C          -1.1948  -15.0034  -42.7643 C.2       3 UNK         0.5000 
     56 O          -1.3171  -16.1935  -43.0454 O.2       3 UNK        -0.5000 
     57 CA         -1.6730  -13.9445  -43.7721 C.3       3 UNK         0.1400 
     58 CB         -3.0727  -13.4364  -43.3969 C.3       3 UNK        -0.1800 
     59 N          -0.7692  -12.8033  -43.9433 N.am      3 UNK        -0.5000 
     60 C           0.5234  -12.8797  -44.2862 C.2       2 UNK         0.5000 
     61 O           1.1568  -13.9330  -44.3618 O.2       2 UNK        -0.5000 
     62 CA          1.2090  -11.5612  -44.6809 C.3       2 UNK         0.1400 
     63 CB          2.6201  -11.4529  -44.0799 C.3       2 UNK        -0.1800 
     64 N           1.2995  -11.4859  -46.1386 N.am      2 UNK        -0.5000 
     65 C           0.2582  -11.2554  -46.9486 C.2       1 UNK         0.5000 
     66 O          -0.8699  -10.9629  -46.5419 O.2       1 UNK        -0.5000 
     67 C          -1.4935  -20.9967  -48.7912 C.2       11 UNK         0.5000 
     68 O          -2.1642  -21.5699  -47.9286 O.2       11 UNK        -0.5000 
     69 N          -2.0388  -20.1942  -49.7198 N.am      12 UNK        -0.5000 
     70 CA         -3.4708  -19.9253  -49.9103 C.3       12 UNK         0.1400 
     71 CB         -3.6273  -18.8582  -51.0045 C.3       12 UNK        -0.1800 
     72 C          -4.2256  -19.4903  -48.6370 C.2       12 UNK         0.5000 
     73 O          -5.3848  -19.8684  -48.4579 O.2       12 UNK        -0.5000 
     74 N          -3.5352  -18.7412  -47.7654 N.am      13 UNK        -0.5000 
     75 CA         -4.0337  -18.2351  -46.4857 C.3       13 UNK         0.1400 
     76 CB         -3.0287  -17.2184  -45.9286 C.3       13 UNK        -0.1800 
     77 C          -4.3290  -19.3218  -45.4318 C.2       13 UNK         0.5000 
     78 O          -5.0484  -19.0354  -44.4757 O.2       13 UNK        -0.5000 
     79 N          -3.8277  -20.5526  -45.6206 N.am      14 UNK        -0.5000 
     80 CA         -4.0815  -21.7140  -44.7560 C.3       14 UNK         0.1400 
     81 CB         -2.9505  -22.7388  -44.9612 C.3       14 UNK        -0.1800 
     82 C          -5.4742  -22.3530  -44.9833 C.2       14 UNK         0.5000 
     83 O          -5.6203  -23.5666  -44.8321 O.2       14 UNK        -0.5000 
     84 N          -6.4604  -21.5365  -45.3866 N.am      15 UNK        -0.5000 
     85 CA         -7.8185  -21.8890  -45.8232 C.3       15 UNK         0.1400 
     86 CB         -8.6256  -22.5200  -44.6697 C.3       15 UNK        -0.1800 
     87 C          -7.8498  -22.7444  -47.1102 C.2       15 UNK         0.5000 
     88 O          -8.8638  -23.3815  -47.4004 O.2       15 UNK        -0.5000 
     89 N          -6.7405  -22.7414  -47.8593 N.am      16 UNK        -0.5000 
     90 CA         -6.5538  -23.5028  -49.0902 C.3       16 UNK         0.1400 
     91 CB         -5.0549  -23.7984  -49.2527 C.3       16 UNK        -0.1800 
     92 C          -7.1200  -22.7591  -50.3126 C.2       16 UNK         0.5000 
     93 O          -7.6794  -23.3969  -51.2053 O.2       16 UNK        -0.5000 
     94 N          -6.9997  -21.4221  -50.3093 N.am      17 UNK        -0.5000 
     95 CA         -7.4276  -20.4992  -51.3619 C.3       17 UNK         0.1400 
     96 CB         -8.9705  -20.4211  -51.4159 C.3       17 UNK        -0.1800 
     97 C          -6.7520  -20.8187  -52.7144 C.2       17 UNK         0.5000 
     98 O          -5.5244  -20.9092  -52.7648 O.2       17 UNK        -0.5000 
     99 N          -7.5478  -20.9660  -53.7819 N.am      18 UNK        -0.5000 
    100 CA        -7.0805  -21.2538  -55.1388 C.3       18 UNK         0.1400 
    101 CB        -8.2300  -20.9995  -56.1258 C.3       18 UNK        -0.1800 
    102 C         -6.5281  -22.6818  -55.3160 C.2       18 UNK         0.5000 
    103 O         -5.6799  -22.8952  -56.1840 O.2       18 UNK        -0.5000 
    104 N         -7.0140  -23.6344  -54.5080 N.am      19 UNK        -0.5000 
    105 CA        -6.5634  -25.0238  -54.5128 C.3       19 UNK         0.1400 
    106 CB        -7.6004  -25.9038  -53.7963 C.3       19 UNK        -0.1800 
    107 C         -5.1805  -25.1222  -53.8501 C.2       19 UNK         0.5000 
    108 O         -5.0679  -24.8753  -52.6501 O.2       19 UNK        -0.5000 
    109 N         -4.1571  -25.4495  -54.6512 N.am      20 UNK        -0.5000 
    110 CA        -2.7378  -25.4863  -54.2772 C.3       20 UNK         0.1400 
    111 CB        -2.4586  -26.6139  -53.2604 C.3       20 UNK        -0.1800 
    112 C         -2.2112  -24.1080  -53.8188 C.2       20 UNK         0.5000 
    113 O         -1.4686  -24.0166  -52.8373 O.2       20 UNK        -0.5000 
    114 N         -2.6089  -23.0538  -54.5487 N.am      21 UNK        -0.5000 
    115 CA        -2.1668  -21.6731  -54.3451 C.3       21 UNK         0.1400 
    116 CB        -2.8336  -20.7622  -55.3855 C.3       21 UNK        -0.1800 
    117 C         -0.6328  -21.5446  -54.4135 C.2       21 UNK         0.5000 
    118 O         -0.0084  -22.1307  -55.3012 O.2       21 UNK        -0.5000 
    119 N         -0.0700  -20.8074  -53.4507 N.am      22 UNK        -0.5000 
    120 CA         1.3738  -20.6757  -53.1815 C.3       22 UNK         0.1400 
    121 C          2.0512  -21.9604  -52.6077 C.2       22 UNK         0.5000 
    122 N          1.3234  -23.0181  -52.2655 N.am      22 UNK        -0.7600 
    123 O          3.2670  -21.9927  -52.4404 O.2       22 UNK        -0.5000 
    124 C124        2.1909  -20.0720  -54.3620 C.3       23 UNK        -0.0398 
    125 S125        1.5225  -18.4984  -55.0070 S.3       23 UNK        -0.2404 
    126 C126        2.6224  -17.2728  -54.2294 C.3       23 UNK        -0.0205 
    127 H127       -1.7500   -8.8389  -50.5391 H         1 UNK         0.0600 
    128 H128       -0.4198   -7.7161  -50.8349 H         1 UNK         0.0600 
    129 H129       -1.4503   -7.5113  -49.4141 H         1 UNK         0.0600 
    130 H130       -1.0620  -10.7964  -49.7261 H         1 UNK         0.3000 
    131 H131        1.5640  -11.2406  -48.6604 H         1 UNK         0.0600 
    132 H132        0.8017  -13.5860  -48.3518 H         1 UNK         0.0800 
    133 H133       -0.8593  -13.1188  -48.6410 H         1 UNK         0.0800 
    134 H134       -0.9834  -14.8312  -51.6901 H         1 UNK         0.0800 
    135 H135       -0.8141  -15.1383  -49.9842 H         1 UNK         0.0800 
    136 H136        0.7363  -15.5547  -53.2993 H         1 UNK         0.1150 
    137 H137        3.6341  -18.4163  -51.9572 H         1 UNK         0.1150 
    138 H138        1.1705  -16.3580  -49.1159 H         1 UNK         0.1150 
    139 H139        4.2117  -18.2329  -49.4130 H         1 UNK         0.0800 
    140 H140        2.9249  -17.7883  -48.3246 H         1 UNK         0.0800 
    141 H141        0.4179  -19.3206  -49.9621 H         1 UNK         0.0800 
    142 H142        0.5774  -19.1196  -48.2339 H         1 UNK         0.0800 
    143 H143        0.2703  -21.8046  -49.6786 H         1 UNK         0.0600 
    144 H144        0.7356  -21.1969  -46.8329 H         1 UNK         0.3000 
    145 H145        0.0076  -23.4534  -45.3606 H         1 UNK         0.0600 
    146 H146        1.5377  -25.3661  -44.8515 H         1 UNK         0.0600 
    147 H147        0.4427  -25.7176  -46.1782 H         1 UNK         0.0600 
    148 H148        2.1240  -25.3360  -46.5148 H         1 UNK         0.0600 
    149 H149        1.6078  -22.1809  -44.5757 H         1 UNK         0.3000 
    150 H150        4.9865  -22.0899  -44.6664 H         1 UNK         0.0600 
    151 H151        4.9681  -20.7342  -46.7625 H         1 UNK         0.0600 
    152 H152        5.1146  -19.7002  -45.3501 H         1 UNK         0.0600 
    153 H153        3.5699  -19.8384  -46.1882 H         1 UNK         0.0600 
    154 H154        3.1065  -20.0926  -43.7944 H         1 UNK         0.3000 
    155 H155        2.0041  -21.8148  -40.8745 H         1 UNK         0.0600 
    156 H156        4.1347  -20.7147  -40.1897 H         1 UNK         0.0600 
    157 H157        2.7483  -19.7047  -39.8079 H         1 UNK         0.0600 
    158 H158        3.7598  -19.3243  -41.1994 H         1 UNK         0.0600 
    159 H159        1.3571  -19.2406  -41.8919 H         1 UNK         0.3000 
    160 H160       -1.3142  -20.2745  -44.0670 H         1 UNK         0.0600 
    161 H161       -1.2317  -18.6850  -41.4553 H         1 UNK         0.0600 
    162 H162       -2.2195  -20.1156  -41.7377 H         1 UNK         0.0600 
    163 H163       -2.5117  -18.6553  -42.6679 H         1 UNK         0.0600 
    164 H164       -0.2463  -17.7067  -43.5124 H         1 UNK         0.3000 
    165 H165        2.2366  -17.7431  -46.1185 H         1 UNK         0.0600 
    166 H166        1.0429  -15.7149  -46.7866 H         1 UNK         0.0600 
    167 H167        0.0030  -17.0896  -47.1429 H         1 UNK         0.0600 
    168 H168       -0.3079  -16.0905  -45.7297 H         1 UNK         0.0600 
    169 H169        1.5648  -15.7170  -44.2574 H         1 UNK         0.3000 
    170 H170        3.7486  -16.7413  -41.6111 H         1 UNK         0.0600 
    171 H171        5.1269  -15.4638  -43.2327 H         1 UNK         0.0600 
    172 H172        3.7660  -14.4173  -43.6101 H         1 UNK         0.0600 
    173 H173        4.4832  -14.3901  -41.9993 H         1 UNK         0.0600 
    174 H174        1.8628  -14.5850  -42.0103 H         1 UNK         0.3000 
    175 H175       -0.8616  -16.1610  -40.3245 H         1 UNK         0.0600 
    176 H176        0.6371  -15.2415  -38.5479 H         1 UNK         0.0600 
    177 H177        0.9921  -13.8423  -39.5541 H         1 UNK         0.0600 
    178 H178       -0.6444  -14.1114  -38.9541 H         1 UNK         0.0600 
    179 H179       -0.5559  -13.5652  -41.4844 H         1 UNK         0.3000 
    180 H180       -1.7491  -14.4368  -44.7432 H         1 UNK         0.0600 
    181 H181       -3.7724  -14.2660  -43.2846 H         1 UNK         0.0600 
    182 H182       -3.0626  -12.8847  -42.4561 H         1 UNK         0.0600 
    183 H183       -3.4734  -12.7786  -44.1684 H         1 UNK         0.0600 
    184 H184       -1.2073  -11.8932  -43.9499 H         1 UNK         0.3000 
    185 H185        0.6166  -10.7220  -44.3100 H         1 UNK         0.0600 
    186 H186        2.5933  -11.5639  -42.9951 H         1 UNK         0.0600 
    187 H187        3.2892  -12.2188  -44.4730 H         1 UNK         0.0600 
    188 H188        3.0643  -10.4813  -44.2964 H         1 UNK         0.0600 
    189 H189        2.1890  -11.7442  -46.5405 H         1 UNK         0.3000 
    190 H190       -1.4278  -19.7358  -50.3766 H         1 UNK         0.3000 
    191 H191       -3.9331  -20.8456  -50.2696 H         1 UNK         0.0600 
    192 H192       -3.1169  -17.9306  -50.7420 H         1 UNK         0.0600 
    193 H193       -4.6780  -18.6174  -51.1705 H         1 UNK         0.0600 
    194 H194       -3.2267  -19.2064  -51.9567 H         1 UNK         0.0600 
    195 H195       -2.5847  -18.5017  -48.0009 H         1 UNK         0.3000 
    196 H196       -4.9728  -17.7133  -46.6813 H         1 UNK         0.0600 
    197 H197       -3.4007  -16.7593  -45.0114 H         1 UNK         0.0600 
    198 H198       -2.8346  -16.4143  -46.6386 H         1 UNK         0.0600 
    199 H199       -2.0821  -17.6986  -45.6882 H         1 UNK         0.0600 
    200 H200       -3.2721  -20.7351  -46.4510 H         1 UNK         0.3000 
    201 H201       -4.0458  -21.3834  -43.7160 H         1 UNK         0.0600 
    202 H202       -1.9697  -22.2781  -44.8663 H         1 UNK         0.0600 
    203 H203       -3.0034  -23.2019  -45.9473 H         1 UNK         0.0600 
    204 H204       -3.0038  -23.5373  -44.2204 H         1 UNK         0.0600 
    205 H205       -6.2351  -20.5506  -45.4304 H         1 UNK         0.3000 
    206 H206       -8.3016  -20.9461  -46.0828 H         1 UNK         0.0600 
    207 H207       -8.5855  -21.8994  -43.7746 H         1 UNK         0.0600 
    208 H208       -9.6764  -22.6277  -44.9408 H         1 UNK         0.0600 
    209 H209       -8.2546  -23.5113  -44.4086 H         1 UNK         0.0600 
    210 H210       -5.9718  -22.1572  -47.5635 H         1 UNK         0.3000 
    211 H211       -7.0781  -24.4572  -49.0052 H         1 UNK         0.0600 
    212 H212       -4.8674  -24.3995  -50.1409 H         1 UNK         0.0600 
    213 H213       -4.6705  -24.3577  -48.3995 H         1 UNK         0.0600 
    214 H214       -4.4661  -22.8864  -49.3412 H         1 UNK         0.0600 
    215 H215       -6.5143  -20.9868  -49.5305 H         1 UNK         0.3000 
    216 H216       -7.0611  -19.5149  -51.0681 H         1 UNK         0.0600 
    217 H217       -9.3044  -19.6479  -52.1089 H         1 UNK         0.0600 
    218 H218       -9.3787  -20.1664  -50.4377 H         1 UNK         0.0600 
    219 H219       -9.4220  -21.3653  -51.7223 H         1 UNK         0.0600 
    220 H220       -8.5459  -20.8830  -53.6549 H         1 UNK         0.3000 
    221 H221       -6.2750  -20.5561  -55.3746 H         1 UNK         0.0600 
    222 H222       -9.0806  -21.6537  -55.9306 H         1 UNK         0.0600 
    223 H223       -8.5784  -19.9680  -56.0693 H         1 UNK         0.0600 
    224 H224       -7.9089  -21.1764  -57.1532 H         1 UNK         0.0600 
    225 H225       -7.6355  -23.3661  -53.7573 H         1 UNK         0.3000 
    226 H226       -6.4937  -25.3673  -55.5473 H         1 UNK         0.0600 
    227 H227       -8.5723  -25.8465  -54.2865 H         1 UNK         0.0600 
    228 H228       -7.2925  -26.9499  -53.8035 H         1 UNK         0.0600 
    229 H229       -7.7332  -25.6094  -52.7548 H         1 UNK         0.0600 
    230 H230       -4.3519  -25.6106  -55.6299 H         1 UNK         0.3000 
    231 H231       -2.1886  -25.7284  -55.1881 H         1 UNK         0.0600 
    232 H232       -2.8337  -27.5718  -53.6204 H         1 UNK         0.0600 
    233 H233       -2.9199  -26.4144  -52.2929 H         1 UNK         0.0600 
    234 H234       -1.3873  -26.7283  -53.0914 H         1 UNK         0.0600 
    235 H235       -3.2363  -23.2136  -55.3241 H         1 UNK         0.3000 
    236 H236       -2.5075  -21.3683  -53.3532 H         1 UNK         0.0600 
    237 H237       -3.9176  -20.7824  -55.2850 H         1 UNK         0.0600 
    238 H238       -2.5165  -19.7263  -55.2589 H         1 UNK         0.0600 
    239 H239       -2.5829  -21.0623  -56.4037 H         1 UNK         0.0600 
    240 H240       -0.6737  -20.3461  -52.7893 H         1 UNK         0.3000 
    241 H241        1.4303  -19.9630  -52.3600 H         1 UNK         0.0600 
    242 H242        0.3261  -23.0677  -52.4377 H         1 UNK         0.3800 
    243 H243        1.7922  -23.8232  -51.8831 H         1 UNK         0.3800 
    244 H244        2.2365  -20.7794  -55.1906 H         1 UNK         0.0800 
    245 H245        3.2274  -19.9117  -54.0623 H         1 UNK         0.0800 
    246 H246        3.6616  -17.5979  -54.2977 H         1 UNK         0.0800 
    247 H247        2.5620  -16.3419  -54.7952 H         1 UNK         0.0800 
@<TRIPOS>BOND
     1    1    2 1    
     2    1  127 1    
     3    1  128 1    
     4    1  129 1    
     5    2    3 2    
     6    2    4 am   BACKBONE|DICT|INTERRES
     7    4    5 1    
     8    4  130 1    
     9    5    6 1    
    10    5   65 1    
    11    5  131 1    
    12    6    7 1    
    13    6  132 1    
    14    6  133 1    
    15    7    8 1    
    16    8    9 1    
    17    8  134 1    
    18    8  135 1    
    19    9   10 ar   
    20    9   14 ar   
    21   10   11 ar   
    22   10  136 1    
    23   11   12 ar   
    24   11  126 1    
    25   12   13 ar   
    26   12  137 1    
    27   13   14 ar   
    28   13   15 1    
    29   14  138 1    
    30   15   16 1    
    31   15  139 1    
    32   15  140 1    
    33   16   17 1    
    34   17   18 1    
    35   17  141 1    
    36   17  142 1    
    37   18   19 1    
    38   18   67 1    
    39   18  143 1    
    40   19   20 am   BACKBONE|DICT|INTERRES
    41   19  144 1    
    42   20   21 2    
    43   20   22 1    
    44   22   23 1    
    45   22   24 1    
    46   22  145 1    
    47   23  146 1    
    48   23  147 1    
    49   23  148 1    
    50   24   25 am   BACKBONE|DICT|INTERRES
    51   24  149 1    
    52   25   26 2    
    53   25   27 1    
    54   27   28 1    
    55   27   29 1    
    56   27  150 1    
    57   28  151 1    
    58   28  152 1    
    59   28  153 1    
    60   29   30 am   BACKBONE|DICT|INTERRES
    61   29  154 1    
    62   30   31 2    
    63   30   32 1    
    64   32   33 1    
    65   32   34 1    
    66   32  155 1    
    67   33  156 1    
    68   33  157 1    
    69   33  158 1    
    70   34   35 am   BACKBONE|DICT|INTERRES
    71   34  159 1    
    72   35   36 2    
    73   35   37 1    
    74   37   38 1    
    75   37   39 1    
    76   37  160 1    
    77   38  161 1    
    78   38  162 1    
    79   38  163 1    
    80   39   40 am   BACKBONE|DICT|INTERRES
    81   39  164 1    
    82   40   41 2    
    83   40   42 1    
    84   42   43 1    
    85   42   44 1    
    86   42  165 1    
    87   43  166 1    
    88   43  167 1    
    89   43  168 1    
    90   44   45 am   BACKBONE|DICT|INTERRES
    91   44  169 1    
    92   45   46 2    
    93   45   47 1    
    94   47   48 1    
    95   47   49 1    
    96   47  170 1    
    97   48  171 1    
    98   48  172 1    
    99   48  173 1    
   100   49   50 am   BACKBONE|DICT|INTERRES
   101   49  174 1    
   102   50   51 2    
   103   50   52 1    
   104   52   53 1    
   105   52   54 1    
   106   52  175 1    
   107   53  176 1    
   108   53  177 1    
   109   53  178 1    
   110   54   55 am   BACKBONE|DICT|INTERRES
   111   54  179 1    
   112   55   56 2    
   113   55   57 1    
   114   57   58 1    
   115   57   59 1    
   116   57  180 1    
   117   58  181 1    
   118   58  182 1    
   119   58  183 1    
   120   59   60 am   BACKBONE|DICT|INTERRES
   121   59  184 1    
   122   60   61 2    
   123   60   62 1    
   124   62   63 1    
   125   62   64 1    
   126   62  185 1    
   127   63  186 1    
   128   63  187 1    
   129   63  188 1    
   130   64   65 am   BACKBONE|DICT|INTERRES
   131   64  189 1    
   132   65   66 2    
   133   67   68 2    
   134   67   69 am   BACKBONE|DICT|INTERRES
   135   69   70 1    
   136   69  190 1    
   137   70   71 1    
   138   70   72 1    
   139   70  191 1    
   140   71  192 1    
   141   71  193 1    
   142   71  194 1    
   143   72   73 2    
   144   72   74 am   BACKBONE|DICT|INTERRES
   145   74   75 1    
   146   74  195 1    
   147   75   76 1    
   148   75   77 1    
   149   75  196 1    
   150   76  197 1    
   151   76  198 1    
   152   76  199 1    
   153   77   78 2    
   154   77   79 am   BACKBONE|DICT|INTERRES
   155   79   80 1    
   156   79  200 1    
   157   80   81 1    
   158   80   82 1    
   159   80  201 1    
   160   81  202 1    
   161   81  203 1    
   162   81  204 1    
   163   82   83 2    
   164   82   84 am   BACKBONE|DICT|INTERRES
   165   84   85 1    
   166   84  205 1    
   167   85   86 1    
   168   85   87 1    
   169   85  206 1    
   170   86  207 1    
   171   86  208 1    
   172   86  209 1    
   173   87   88 2    
   174   87   89 am   BACKBONE|DICT|INTERRES
   175   89   90 1    
   176   89  210 1    
   177   90   91 1    
   178   90   92 1    
   179   90  211 1    
   180   91  212 1    
   181   91  213 1    
   182   91  214 1    
   183   92   93 2    
   184   92   94 am   BACKBONE|DICT|INTERRES
   185   94   95 1    
   186   94  215 1    
   187   95   96 1    
   188   95   97 1    
   189   95  216 1    
   190   96  217 1    
   191   96  218 1    
   192   96  219 1    
   193   97   98 2    
   194   97   99 am   BACKBONE|DICT|INTERRES
   195   99  100 1    
   196   99  220 1    
   197  100  101 1    
   198  100  102 1    
   199  100  221 1    
   200  101  222 1    
   201  101  223 1    
   202  101  224 1    
   203  102  103 2    
   204  102  104 am   BACKBONE|DICT|INTERRES
   205  104  105 1    
   206  104  225 1    
   207  105  106 1    
   208  105  107 1    
   209  105  226 1    
   210  106  227 1    
   211  106  228 1    
   212  106  229 1    
   213  107  108 2    
   214  107  109 am   BACKBONE|DICT|INTERRES
   215  109  110 1    
   216  109  230 1    
   217  110  111 1    
   218  110  112 1    
   219  110  231 1    
   220  111  232 1    
   221  111  233 1    
   222  111  234 1    
   223  112  113 2    
   224  112  114 am   BACKBONE|DICT|INTERRES
   225  114  115 1    
   226  114  235 1    
   227  115  116 1    
   228  115  117 1    
   229  115  236 1    
   230  116  237 1    
   231  116  238 1    
   232  116  239 1    
   233  117  118 2    
   234  117  119 am   BACKBONE|DICT|INTERRES
   235  119  120 1    
   236  119  240 1    
   237  120  121 1    
   238  120  124 1    
   239  120  241 1    
   240  121  122 am   BACKBONE|DICT|INTERRES
   241  121  123 2    
   242  122  242 1    
   243  122  243 1    
   244  124  125 1    
   245  124  244 1    
   246  124  245 1    
   247  125  126 1    
   248  126  246 1    
   249  126  247 1    
@<TRIPOS>SUBSTRUCTURE
     1 UNK         1 GROUP             0       ****    0 ROOT    
