@<TRIPOS>MOLECULE
3R540
247   249    1
SMALL
USER_CHARGES


@<TRIPOS>ATOM
      1 CA         -3.0848  -10.1649  -45.0834 C.3       0 UNK        -0.1800 
      2 C          -1.6336   -9.7258  -45.2174 C.2       0 UNK         0.5000 
      3 O          -1.3678   -8.6087  -45.6611 O.2       0 UNK        -0.5000 
      4 N          -0.6975  -10.6007  -44.8400 N.am      1 UNK        -0.5000 
      5 CA          0.7467  -10.3804  -44.9306 C.3       1 UNK         0.1400 
      6 C6          1.3057  -10.5591  -46.3715 C.3       23 UNK        -0.0398 
      7 S7          0.9952  -12.2039  -47.1098 S.3       23 UNK        -0.2404 
      8 C8         -0.2989  -11.8189  -48.3243 C.3       23 UNK        -0.0205 
      9 C9         -0.8119  -13.0971  -48.9621 C.ar      23 UNK        -0.0193 
     10 C10        -0.1586  -13.6408  -50.0731 C.ar      23 UNK        -0.1150 
     11 C11        -0.5892  -14.8469  -50.6353 C.ar      23 UNK        -0.0193 
     12 C12        -1.6949  -15.4912  -50.0711 C.ar      23 UNK        -0.1150 
     13 C13        -2.3522  -14.9686  -48.9561 C.ar      23 UNK        -0.0193 
     14 C14        -1.9142  -13.7589  -48.4135 C.ar      23 UNK        -0.1150 
     15 C15        -3.4640  -15.7645  -48.2843 C.3       23 UNK        -0.0205 
     16 S16        -4.7228  -16.3685  -49.4548 S.3       23 UNK        -0.2404 
     17 C17        -5.5458  -17.6563  -48.4577 C.3       23 UNK        -0.0398 
     18 CA         -5.0640  -19.0846  -48.8222 C.3       11 UNK         0.1400 
     19 N          -3.6752  -19.3151  -48.4180 N.am      11 UNK        -0.5000 
     20 C          -2.9040  -20.3104  -48.8698 C.2       10 UNK         0.5000 
     21 O          -3.2458  -21.0711  -49.7744 O.2       10 UNK        -0.5000 
     22 CA         -1.5410  -20.5218  -48.1808 C.3       10 UNK         0.1400 
     23 CB         -0.3897  -20.2293  -49.1555 C.3       10 UNK        -0.1800 
     24 N          -1.3338  -19.7649  -46.9360 N.am      10 UNK        -0.5000 
     25 C          -2.0189  -19.9406  -45.7953 C.2       9 UNK         0.5000 
     26 O          -3.0348  -20.6326  -45.7215 O.2       9 UNK        -0.5000 
     27 CA         -1.5022  -19.2385  -44.5241 C.3       9 UNK         0.1400 
     28 CB         -0.5761  -20.1776  -43.7380 C.3       9 UNK        -0.1800 
     29 N          -0.7865  -17.9943  -44.7925 N.am      9 UNK        -0.5000 
     30 C          -1.3750  -16.8386  -45.1242 C.2       8 UNK         0.5000 
     31 O          -2.5955  -16.6918  -45.1943 O.2       8 UNK        -0.5000 
     32 CA         -0.4457  -15.6532  -45.4542 C.3       8 UNK         0.1400 
     33 CB         -0.1208  -14.8526  -44.1859 C.3       8 UNK        -0.1800 
     34 N           0.8032  -16.0356  -46.1194 N.am      8 UNK        -0.5000 
     35 C           0.8806  -16.7058  -47.2790 C.2       7 UNK         0.5000 
     36 O          -0.0940  -17.1538  -47.8768 O.2       7 UNK        -0.5000 
     37 CA          2.2880  -16.9810  -47.8248 C.3       7 UNK         0.1400 
     38 CB          2.9049  -15.7114  -48.4335 C.3       7 UNK        -0.1800 
     39 N           3.1486  -17.5031  -46.7649 N.am      7 UNK        -0.5000 
     40 C           3.1495  -18.7831  -46.3654 C.2       6 UNK         0.5000 
     41 O           2.4995  -19.6712  -46.9162 O.2       6 UNK        -0.5000 
     42 CA          4.0017  -19.1354  -45.1300 C.3       6 UNK         0.1400 
     43 CB          5.4256  -19.5280  -45.5517 C.3       6 UNK        -0.1800 
     44 N           4.0742  -18.0569  -44.1434 N.am      6 UNK        -0.5000 
     45 C           3.0305  -17.5891  -43.4449 C.2       5 UNK         0.5000 
     46 O           1.8886  -18.0376  -43.5378 O.2       5 UNK        -0.5000 
     47 CA          3.2989  -16.3857  -42.5206 C.3       5 UNK         0.1400 
     48 CB          3.7296  -16.8658  -41.1272 C.3       5 UNK        -0.1800 
     49 N           4.2888  -15.4294  -43.0272 N.am      5 UNK        -0.5000 
     50 C           4.2600  -14.8268  -44.2243 C.2       4 UNK         0.5000 
     51 O           3.4312  -15.0861  -45.0989 O.2       4 UNK        -0.5000 
     52 CA          5.3157  -13.7314  -44.4447 C.3       4 UNK         0.1400 
     53 CB          5.2994  -13.1769  -45.8810 C.3       4 UNK        -0.1800 
     54 N           5.0195  -12.6473  -43.5166 N.am      4 UNK        -0.5000 
     55 C           5.7126  -12.3256  -42.4180 C.2       3 UNK         0.5000 
     56 O           6.7791  -12.8553  -42.1045 O.2       3 UNK        -0.5000 
     57 CA          5.0958  -11.2516  -41.4944 C.3       3 UNK         0.1400 
     58 CB          5.6585   -9.8635  -41.8354 C.3       3 UNK        -0.1800 
     59 N           3.6317  -11.2013  -41.5603 N.am      3 UNK        -0.5000 
     60 C           2.8138  -12.1826  -41.1531 C.2       2 UNK         0.5000 
     61 O           3.2055  -13.1848  -40.5545 O.2       2 UNK        -0.5000 
     62 CA          1.3108  -12.0496  -41.4869 C.3       2 UNK         0.1400 
     63 CB          0.5296  -11.5883  -40.2471 C.3       2 UNK        -0.1800 
     64 N           0.9558  -11.1782  -42.6185 N.am      2 UNK        -0.5000 
     65 C           1.4481  -11.2439  -43.8654 C.2       1 UNK         0.5000 
     66 O           2.3897  -11.9668  -44.1798 O.2       1 UNK        -0.5000 
     67 C          -6.0315  -20.1474  -48.2471 C.2       11 UNK         0.5000 
     68 O          -7.1419  -20.2635  -48.7670 O.2       11 UNK        -0.5000 
     69 N          -5.6289  -20.8915  -47.2022 N.am      12 UNK        -0.5000 
     70 CA         -6.4839  -21.8759  -46.5325 C.3       12 UNK         0.1400 
     71 CB         -7.2002  -21.2129  -45.3445 C.3       12 UNK        -0.1800 
     72 C          -5.7322  -23.1371  -46.0784 C.2       12 UNK         0.5000 
     73 O          -6.2709  -24.2359  -46.2270 O.2       12 UNK        -0.5000 
     74 N          -4.5164  -22.9842  -45.5367 N.am      13 UNK        -0.5000 
     75 CA         -3.7161  -24.0776  -44.9794 C.3       13 UNK         0.1400 
     76 CB         -2.4843  -23.5000  -44.2704 C.3       13 UNK        -0.1800 
     77 C          -3.2860  -25.0968  -46.0463 C.2       13 UNK         0.5000 
     78 O          -3.0104  -24.7090  -47.1835 O.2       13 UNK        -0.5000 
     79 N          -3.2425  -26.3775  -45.6514 N.am      14 UNK        -0.5000 
     80 CA         -2.9213  -27.5424  -46.4862 C.3       14 UNK         0.1400 
     81 CB         -1.4309  -27.5278  -46.8872 C.3       14 UNK        -0.1800 
     82 C          -3.8694  -27.6793  -47.6967 C.2       14 UNK         0.5000 
     83 O          -3.4137  -27.9434  -48.8099 O.2       14 UNK        -0.5000 
     84 N          -5.1704  -27.4497  -47.4544 N.am      15 UNK        -0.5000 
     85 CA         -6.2526  -27.3854  -48.4448 C.3       15 UNK         0.1400 
     86 CB         -6.5131  -28.7744  -49.0657 C.3       15 UNK        -0.1800 
     87 C          -5.9905  -26.2912  -49.4995 C.2       15 UNK         0.5000 
     88 O          -6.0271  -26.5625  -50.7005 O.2       15 UNK        -0.5000 
     89 N          -5.6749  -25.0832  -49.0099 N.am      16 UNK        -0.5000 
     90 CA         -5.2411  -23.9053  -49.7675 C.3       16 UNK         0.1400 
     91 CB         -6.4184  -23.3159  -50.5701 C.3       16 UNK        -0.1800 
     92 C          -4.0035  -24.2081  -50.6349 C.2       16 UNK         0.5000 
     93 O          -4.0412  -24.0285  -51.8525 O.2       16 UNK        -0.5000 
     94 N          -2.9474  -24.7170  -49.9849 N.am      17 UNK        -0.5000 
     95 CA         -1.6681  -25.1349  -50.5645 C.3       17 UNK         0.1400 
     96 CB         -0.8574  -23.8949  -50.9951 C.3       17 UNK        -0.1800 
     97 C          -1.8402  -26.1706  -51.6961 C.2       17 UNK         0.5000 
     98 O          -1.3286  -25.9730  -52.7983 O.2       17 UNK        -0.5000 
     99 N          -2.6036  -27.2357  -51.4114 N.am      18 UNK        -0.5000 
    100 CA        -3.0216  -28.2953  -52.3363 C.3       18 UNK         0.1400 
    101 CB        -1.8196  -29.1767  -52.7344 C.3       18 UNK        -0.1800 
    102 C         -3.8024  -27.7426  -53.5491 C.2       18 UNK         0.5000 
    103 O         -3.5299  -28.1142  -54.6921 O.2       18 UNK        -0.5000 
    104 N         -4.7479  -26.8386  -53.2591 N.am      19 UNK        -0.5000 
    105 CA        -5.6222  -26.1071  -54.1793 C.3       19 UNK         0.1400 
    106 CB        -6.5491  -27.0749  -54.9440 C.3       19 UNK        -0.1800 
    107 C         -4.9012  -25.1119  -55.1162 C.2       19 UNK         0.5000 
    108 O         -5.5203  -24.6323  -56.0680 O.2       19 UNK        -0.5000 
    109 N         -3.6314  -24.7825  -54.8357 N.am      20 UNK        -0.5000 
    110 CA        -2.8777  -23.7502  -55.5530 C.3       20 UNK         0.1400 
    111 CB        -1.3736  -23.9487  -55.3178 C.3       20 UNK        -0.1800 
    112 C         -3.2950  -22.3260  -55.1413 C.2       20 UNK         0.5000 
    113 O         -3.1558  -21.4012  -55.9431 O.2       20 UNK        -0.5000 
    114 N         -3.7787  -22.1748  -53.8984 N.am      21 UNK        -0.5000 
    115 CA        -4.3095  -20.9594  -53.2739 C.3       21 UNK         0.1400 
    116 CB        -5.6990  -20.6342  -53.8569 C.3       21 UNK        -0.1800 
    117 C         -3.3424  -19.7589  -53.3143 C.2       21 UNK         0.5000 
    118 O         -3.7879  -18.6181  -53.4490 O.2       21 UNK        -0.5000 
    119 N         -2.0346  -20.0430  -53.2147 N.am      22 UNK        -0.5000 
    120 CA        -0.9337  -19.0697  -53.3288 C.3       22 UNK         0.1400 
    121 C         -0.7095  -18.5193  -54.7751 C.2       22 UNK         0.5000 
    122 N         -1.3034  -19.1000  -55.8123 N.am      22 UNK        -0.7600 
    123 O          0.0390  -17.5675  -54.9764 O.2       22 UNK        -0.5000 
    124 C124       -1.0531  -17.9573  -52.2512 C.3       23 UNK        -0.0398 
    125 S125        0.5250  -17.2124  -51.7083 S.3       23 UNK        -0.2404 
    126 C126        0.1441  -15.4280  -51.8462 C.3       23 UNK        -0.0205 
    127 H127       -3.1678  -11.1743  -44.6796 H         1 UNK         0.0600 
    128 H128       -3.5722  -10.1486  -46.0583 H         1 UNK         0.0600 
    129 H129       -3.6226   -9.4876  -44.4201 H         1 UNK         0.0600 
    130 H130       -0.9694  -11.5060  -44.4826 H         1 UNK         0.3000 
    131 H131        0.9500   -9.3493  -44.6335 H         1 UNK         0.0600 
    132 H132        0.8872   -9.7904  -47.0219 H         1 UNK         0.0800 
    133 H133        2.3829  -10.3847  -46.3795 H         1 UNK         0.0800 
    134 H134       -1.1164  -11.2864  -47.8364 H         1 UNK         0.0800 
    135 H135        0.1008  -11.1494  -49.0874 H         1 UNK         0.0800 
    136 H136        0.6996  -13.1299  -50.4865 H         1 UNK         0.1150 
    137 H137       -2.0420  -16.4290  -50.4646 H         1 UNK         0.1150 
    138 H138       -2.4013  -13.3530  -47.5382 H         1 UNK         0.1150 
    139 H139       -2.9978  -16.6180  -47.7938 H         1 UNK         0.0800 
    140 H140       -3.9509  -15.1784  -47.5034 H         1 UNK         0.0800 
    141 H141       -6.6164  -17.5530  -48.6451 H         1 UNK         0.0800 
    142 H142       -5.4070  -17.4555  -47.3938 H         1 UNK         0.0800 
    143 H143       -5.1145  -19.1862  -49.9090 H         1 UNK         0.0600 
    144 H144       -3.3128  -18.7374  -47.6742 H         1 UNK         0.3000 
    145 H145       -1.4939  -21.5819  -47.9224 H         1 UNK         0.0600 
    146 H146        0.5732  -20.4996  -48.7228 H         1 UNK         0.0600 
    147 H147       -0.4995  -20.7948  -50.0814 H         1 UNK         0.0600 
    148 H148       -0.3509  -19.1755  -49.4259 H         1 UNK         0.0600 
    149 H149       -0.5758  -19.0934  -46.9482 H         1 UNK         0.3000 
    150 H150       -2.3671  -19.0135  -43.8965 H         1 UNK         0.0600 
    151 H151       -1.0854  -21.1022  -43.4704 H         1 UNK         0.0600 
    152 H152       -0.2442  -19.7148  -42.8084 H         1 UNK         0.0600 
    153 H153        0.3114  -20.4425  -44.3146 H         1 UNK         0.0600 
    154 H154        0.2222  -18.0135  -44.6786 H         1 UNK         0.3000 
    155 H155       -0.9817  -14.9961  -46.1386 H         1 UNK         0.0600 
    156 H156       -1.0251  -14.4244  -43.7524 H         1 UNK         0.0600 
    157 H157        0.5608  -14.0313  -44.4033 H         1 UNK         0.0600 
    158 H158        0.3409  -15.4809  -43.4255 H         1 UNK         0.0600 
    159 H159        1.6658  -15.7002  -45.7004 H         1 UNK         0.3000 
    160 H160        2.2042  -17.7246  -48.6207 H         1 UNK         0.0600 
    161 H161        2.9859  -14.9037  -47.7056 H         1 UNK         0.0600 
    162 H162        2.2917  -15.3442  -49.2575 H         1 UNK         0.0600 
    163 H163        3.9008  -15.9075  -48.8304 H         1 UNK         0.0600 
    164 H164        3.6352  -16.8132  -46.2048 H         1 UNK         0.3000 
    165 H165        3.5382  -19.9985  -44.6473 H         1 UNK         0.0600 
    166 H166        6.0134  -19.8609  -44.6961 H         1 UNK         0.0600 
    167 H167        5.4074  -20.3482  -46.2708 H         1 UNK         0.0600 
    168 H168        5.9517  -18.6941  -46.0182 H         1 UNK         0.0600 
    169 H169        4.9739  -17.6196  -44.0098 H         1 UNK         0.3000 
    170 H170        2.3608  -15.8410  -42.4104 H         1 UNK         0.0600 
    171 H171        3.0002  -17.5617  -40.7104 H         1 UNK         0.0600 
    172 H172        4.6926  -17.3769  -41.1572 H         1 UNK         0.0600 
    173 H173        3.8133  -16.0307  -40.4312 H         1 UNK         0.0600 
    174 H174        4.9914  -15.1301  -42.3663 H         1 UNK         0.3000 
    175 H175        6.2998  -14.1618  -44.2498 H         1 UNK         0.0600 
    176 H176        4.3317  -12.7406  -46.1344 H         1 UNK         0.0600 
    177 H177        6.0578  -12.4054  -46.0129 H         1 UNK         0.0600 
    178 H178        5.5045  -13.9650  -46.6065 H         1 UNK         0.0600 
    179 H179        4.1059  -12.2194  -43.6602 H         1 UNK         0.3000 
    180 H180        5.3806  -11.4950  -40.4687 H         1 UNK         0.0600 
    181 H181        5.3882   -9.5575  -42.8469 H         1 UNK         0.0600 
    182 H182        6.7473   -9.8568  -41.7702 H         1 UNK         0.0600 
    183 H183        5.2881   -9.1064  -41.1440 H         1 UNK         0.0600 
    184 H184        3.2254  -10.4149  -42.0447 H         1 UNK         0.3000 
    185 H185        0.9660  -13.0524  -41.7471 H         1 UNK         0.0600 
    186 H186        0.7373  -12.2300  -39.3897 H         1 UNK         0.0600 
    187 H187        0.7928  -10.5681  -39.9650 H         1 UNK         0.0600 
    188 H188       -0.5460  -11.6230  -40.4213 H         1 UNK         0.0600 
    189 H189        0.1947  -10.5355  -42.4511 H         1 UNK         0.3000 
    190 H190       -4.6968  -20.7570  -46.8238 H         1 UNK         0.3000 
    191 H191       -7.2481  -22.2267  -47.2297 H         1 UNK         0.0600 
    192 H192       -7.8417  -20.3966  -45.6771 H         1 UNK         0.0600 
    193 H193       -7.8330  -21.9285  -44.8179 H         1 UNK         0.0600 
    194 H194       -6.4890  -20.8076  -44.6236 H         1 UNK         0.0600 
    195 H195       -4.0862  -22.0632  -45.5018 H         1 UNK         0.3000 
    196 H196       -4.3317  -24.5881  -44.2359 H         1 UNK         0.0600 
    197 H197       -1.9058  -24.2870  -43.7850 H         1 UNK         0.0600 
    198 H198       -2.7755  -22.7878  -43.4986 H         1 UNK         0.0600 
    199 H199       -1.8207  -22.9921  -44.9713 H         1 UNK         0.0600 
    200 H200       -3.4842  -26.5896  -44.6931 H         1 UNK         0.3000 
    201 H201       -3.0878  -28.4261  -45.8686 H         1 UNK         0.0600 
    202 H202       -0.7884  -27.4630  -46.0092 H         1 UNK         0.0600 
    203 H203       -1.1925  -26.6865  -47.5378 H         1 UNK         0.0600 
    204 H204       -1.1595  -28.4400  -47.4199 H         1 UNK         0.0600 
    205 H205       -5.4341  -27.2099  -46.5089 H         1 UNK         0.3000 
    206 H206       -7.1539  -27.0878  -47.9069 H         1 UNK         0.0600 
    207 H207       -6.7101  -29.5195  -48.2951 H         1 UNK         0.0600 
    208 H208       -7.3831  -28.7490  -49.7228 H         1 UNK         0.0600 
    209 H209       -5.6675  -29.1221  -49.6598 H         1 UNK         0.0600 
    210 H210       -5.6763  -24.9725  -48.0013 H         1 UNK         0.3000 
    211 H211       -4.9293  -23.1585  -49.0370 H         1 UNK         0.0600 
    212 H212       -6.7573  -23.9930  -51.3547 H         1 UNK         0.0600 
    213 H213       -6.1333  -22.3779  -51.0457 H         1 UNK         0.0600 
    214 H214       -7.2672  -23.1011  -49.9210 H         1 UNK         0.0600 
    215 H215       -3.0189  -24.8168  -48.9727 H         1 UNK         0.3000 
    216 H216       -1.1137  -25.6353  -49.7700 H         1 UNK         0.0600 
    217 H217        0.1248  -24.1789  -51.3744 H         1 UNK         0.0600 
    218 H218       -0.6982  -23.2242  -50.1514 H         1 UNK         0.0600 
    219 H219       -1.3635  -23.3308  -51.7790 H         1 UNK         0.0600 
    220 H220       -2.9699  -27.3271  -50.4647 H         1 UNK         0.3000 
    221 H221       -3.7217  -28.9224  -51.7823 H         1 UNK         0.0600 
    222 H222       -1.0904  -28.6253  -53.3286 H         1 UNK         0.0600 
    223 H223       -1.3093  -29.5664  -51.8537 H         1 UNK         0.0600 
    224 H224       -2.1435  -30.0331  -53.3269 H         1 UNK         0.0600 
    225 H225       -4.9113  -26.6238  -52.2783 H         1 UNK         0.3000 
    226 H226       -6.2554  -25.4917  -53.5387 H         1 UNK         0.0600 
    227 H227       -7.0641  -27.7497  -54.2602 H         1 UNK         0.0600 
    228 H228       -7.3156  -26.5302  -55.4963 H         1 UNK         0.0600 
    229 H229       -5.9982  -27.6805  -55.6639 H         1 UNK         0.0600 
    230 H230       -3.1848  -25.2013  -54.0290 H         1 UNK         0.3000 
    231 H231       -3.0681  -23.8591  -56.6228 H         1 UNK         0.0600 
    232 H232       -1.1029  -23.7776  -54.2757 H         1 UNK         0.0600 
    233 H233       -0.7904  -23.2542  -55.9237 H         1 UNK         0.0600 
    234 H234       -1.0604  -24.9581  -55.5851 H         1 UNK         0.0600 
    235 H235       -3.8228  -22.9996  -53.2998 H         1 UNK         0.3000 
    236 H236       -4.4415  -21.1947  -52.2179 H         1 UNK         0.0600 
    237 H237       -6.3669  -21.4923  -53.7804 H         1 UNK         0.0600 
    238 H238       -6.1692  -19.8105  -53.3186 H         1 UNK         0.0600 
    239 H239       -5.6367  -20.3498  -54.9078 H         1 UNK         0.0600 
    240 H240       -1.7650  -21.0110  -53.1206 H         1 UNK         0.3000 
    241 H241       -0.0350  -19.6455  -53.1060 H         1 UNK         0.0600 
    242 H242       -1.1369  -18.7361  -56.7369 H         1 UNK         0.3800 
    243 H243       -1.9394  -19.8826  -55.6945 H         1 UNK         0.3800 
    244 H244       -1.7375  -17.1807  -52.5952 H         1 UNK         0.0800 
    245 H245       -1.5101  -18.3789  -51.3554 H         1 UNK         0.0800 
    246 H246        1.0915  -14.9058  -51.9872 H         1 UNK         0.0800 
    247 H247       -0.4386  -15.2387  -52.7485 H         1 UNK         0.0800 
@<TRIPOS>BOND
     1    1    2 1    
     2    1  127 1    
     3    1  128 1    
     4    1  129 1    
     5    2    3 2    
     6    2    4 am   BACKBONE|DICT|INTERRES
     7    4    5 1    
     8    4  130 1    
     9    5    6 1    
    10    5   65 1    
    11    5  131 1    
    12    6    7 1    
    13    6  132 1    
    14    6  133 1    
    15    7    8 1    
    16    8    9 1    
    17    8  134 1    
    18    8  135 1    
    19    9   10 ar   
    20    9   14 ar   
    21   10   11 ar   
    22   10  136 1    
    23   11   12 ar   
    24   11  126 1    
    25   12   13 ar   
    26   12  137 1    
    27   13   14 ar   
    28   13   15 1    
    29   14  138 1    
    30   15   16 1    
    31   15  139 1    
    32   15  140 1    
    33   16   17 1    
    34   17   18 1    
    35   17  141 1    
    36   17  142 1    
    37   18   19 1    
    38   18   67 1    
    39   18  143 1    
    40   19   20 am   BACKBONE|DICT|INTERRES
    41   19  144 1    
    42   20   21 2    
    43   20   22 1    
    44   22   23 1    
    45   22   24 1    
    46   22  145 1    
    47   23  146 1    
    48   23  147 1    
    49   23  148 1    
    50   24   25 am   BACKBONE|DICT|INTERRES
    51   24  149 1    
    52   25   26 2    
    53   25   27 1    
    54   27   28 1    
    55   27   29 1    
    56   27  150 1    
    57   28  151 1    
    58   28  152 1    
    59   28  153 1    
    60   29   30 am   BACKBONE|DICT|INTERRES
    61   29  154 1    
    62   30   31 2    
    63   30   32 1    
    64   32   33 1    
    65   32   34 1    
    66   32  155 1    
    67   33  156 1    
    68   33  157 1    
    69   33  158 1    
    70   34   35 am   BACKBONE|DICT|INTERRES
    71   34  159 1    
    72   35   36 2    
    73   35   37 1    
    74   37   38 1    
    75   37   39 1    
    76   37  160 1    
    77   38  161 1    
    78   38  162 1    
    79   38  163 1    
    80   39   40 am   BACKBONE|DICT|INTERRES
    81   39  164 1    
    82   40   41 2    
    83   40   42 1    
    84   42   43 1    
    85   42   44 1    
    86   42  165 1    
    87   43  166 1    
    88   43  167 1    
    89   43  168 1    
    90   44   45 am   BACKBONE|DICT|INTERRES
    91   44  169 1    
    92   45   46 2    
    93   45   47 1    
    94   47   48 1    
    95   47   49 1    
    96   47  170 1    
    97   48  171 1    
    98   48  172 1    
    99   48  173 1    
   100   49   50 am   BACKBONE|DICT|INTERRES
   101   49  174 1    
   102   50   51 2    
   103   50   52 1    
   104   52   53 1    
   105   52   54 1    
   106   52  175 1    
   107   53  176 1    
   108   53  177 1    
   109   53  178 1    
   110   54   55 am   BACKBONE|DICT|INTERRES
   111   54  179 1    
   112   55   56 2    
   113   55   57 1    
   114   57   58 1    
   115   57   59 1    
   116   57  180 1    
   117   58  181 1    
   118   58  182 1    
   119   58  183 1    
   120   59   60 am   BACKBONE|DICT|INTERRES
   121   59  184 1    
   122   60   61 2    
   123   60   62 1    
   124   62   63 1    
   125   62   64 1    
   126   62  185 1    
   127   63  186 1    
   128   63  187 1    
   129   63  188 1    
   130   64   65 am   BACKBONE|DICT|INTERRES
   131   64  189 1    
   132   65   66 2    
   133   67   68 2    
   134   67   69 am   BACKBONE|DICT|INTERRES
   135   69   70 1    
   136   69  190 1    
   137   70   71 1    
   138   70   72 1    
   139   70  191 1    
   140   71  192 1    
   141   71  193 1    
   142   71  194 1    
   143   72   73 2    
   144   72   74 am   BACKBONE|DICT|INTERRES
   145   74   75 1    
   146   74  195 1    
   147   75   76 1    
   148   75   77 1    
   149   75  196 1    
   150   76  197 1    
   151   76  198 1    
   152   76  199 1    
   153   77   78 2    
   154   77   79 am   BACKBONE|DICT|INTERRES
   155   79   80 1    
   156   79  200 1    
   157   80   81 1    
   158   80   82 1    
   159   80  201 1    
   160   81  202 1    
   161   81  203 1    
   162   81  204 1    
   163   82   83 2    
   164   82   84 am   BACKBONE|DICT|INTERRES
   165   84   85 1    
   166   84  205 1    
   167   85   86 1    
   168   85   87 1    
   169   85  206 1    
   170   86  207 1    
   171   86  208 1    
   172   86  209 1    
   173   87   88 2    
   174   87   89 am   BACKBONE|DICT|INTERRES
   175   89   90 1    
   176   89  210 1    
   177   90   91 1    
   178   90   92 1    
   179   90  211 1    
   180   91  212 1    
   181   91  213 1    
   182   91  214 1    
   183   92   93 2    
   184   92   94 am   BACKBONE|DICT|INTERRES
   185   94   95 1    
   186   94  215 1    
   187   95   96 1    
   188   95   97 1    
   189   95  216 1    
   190   96  217 1    
   191   96  218 1    
   192   96  219 1    
   193   97   98 2    
   194   97   99 am   BACKBONE|DICT|INTERRES
   195   99  100 1    
   196   99  220 1    
   197  100  101 1    
   198  100  102 1    
   199  100  221 1    
   200  101  222 1    
   201  101  223 1    
   202  101  224 1    
   203  102  103 2    
   204  102  104 am   BACKBONE|DICT|INTERRES
   205  104  105 1    
   206  104  225 1    
   207  105  106 1    
   208  105  107 1    
   209  105  226 1    
   210  106  227 1    
   211  106  228 1    
   212  106  229 1    
   213  107  108 2    
   214  107  109 am   BACKBONE|DICT|INTERRES
   215  109  110 1    
   216  109  230 1    
   217  110  111 1    
   218  110  112 1    
   219  110  231 1    
   220  111  232 1    
   221  111  233 1    
   222  111  234 1    
   223  112  113 2    
   224  112  114 am   BACKBONE|DICT|INTERRES
   225  114  115 1    
   226  114  235 1    
   227  115  116 1    
   228  115  117 1    
   229  115  236 1    
   230  116  237 1    
   231  116  238 1    
   232  116  239 1    
   233  117  118 2    
   234  117  119 am   BACKBONE|DICT|INTERRES
   235  119  120 1    
   236  119  240 1    
   237  120  121 1    
   238  120  124 1    
   239  120  241 1    
   240  121  122 am   BACKBONE|DICT|INTERRES
   241  121  123 2    
   242  122  242 1    
   243  122  243 1    
   244  124  125 1    
   245  124  244 1    
   246  124  245 1    
   247  125  126 1    
   248  126  246 1    
   249  126  247 1    
@<TRIPOS>SUBSTRUCTURE
     1 UNK         1 GROUP             0       ****    0 ROOT    
