@<TRIPOS>MOLECULE
3R540
247   249    1
SMALL
USER_CHARGES


@<TRIPOS>ATOM
      1 CA          8.1970  -16.3710  -46.0000 C.3       0 UNK        -0.1800 
      2 C           6.8356  -15.8017  -46.3677 C.2       0 UNK         0.5000 
      3 O           5.9695  -15.6827  -45.4989 O.2       0 UNK        -0.5000 
      4 N           6.6442  -15.4288  -47.6412 N.am      1 UNK        -0.5000 
      5 CA          5.4065  -14.8829  -48.2189 C.3       1 UNK         0.1400 
      6 C6          5.3760  -15.0847  -49.7575 C.3       23 UNK        -0.0398 
      7 S7          3.6956  -14.9620  -50.4598 S.3       23 UNK        -0.2404 
      8 C8          3.1450  -16.6936  -50.3966 C.3       23 UNK        -0.0205 
      9 C9          1.6516  -16.7844  -50.6625 C.ar      23 UNK        -0.0193 
     10 C10         1.1664  -17.1328  -51.9268 C.ar      23 UNK        -0.1150 
     11 C11        -0.2110  -17.1876  -52.1718 C.ar      23 UNK        -0.0193 
     12 C12        -1.1010  -16.8886  -51.1337 C.ar      23 UNK        -0.1150 
     13 C13        -0.6271  -16.5472  -49.8658 C.ar      23 UNK        -0.0193 
     14 C14         0.7496  -16.4958  -49.6371 C.ar      23 UNK        -0.1150 
     15 C15        -1.5969  -16.1994  -48.7498 C.3       23 UNK        -0.0205 
     16 S16        -1.4215  -17.3155  -47.3285 S.3       23 UNK        -0.2404 
     17 C17        -2.2731  -18.8386  -47.8845 C.3       23 UNK        -0.0398 
     18 CA         -1.4025  -20.1278  -47.8338 C.3       11 UNK         0.1400 
     19 N          -0.4371  -20.1054  -46.7337 N.am      11 UNK        -0.5000 
     20 C           0.5277  -21.0010  -46.4998 C.2       10 UNK         0.5000 
     21 O           0.7116  -22.0143  -47.1723 O.2       10 UNK        -0.5000 
     22 CA          1.4247  -20.7132  -45.2851 C.3       10 UNK         0.1400 
     23 CB          2.5903  -19.8081  -45.7076 C.3       10 UNK        -0.1800 
     24 N           0.6953  -20.1044  -44.1659 N.am      10 UNK        -0.5000 
     25 C          -0.2935  -20.7153  -43.4969 C.2       9 UNK         0.5000 
     26 O          -0.6753  -21.8598  -43.7431 O.2       9 UNK        -0.5000 
     27 CA         -1.0215  -19.9003  -42.4134 C.3       9 UNK         0.1400 
     28 CB         -0.1121  -19.5886  -41.2150 C.3       9 UNK        -0.1800 
     29 N          -1.6341  -18.6675  -42.9137 N.am      9 UNK        -0.5000 
     30 C          -2.5815  -18.6150  -43.8643 C.2       8 UNK         0.5000 
     31 O          -2.9279  -19.5930  -44.5282 O.2       8 UNK        -0.5000 
     32 CA         -3.2661  -17.2533  -44.1184 C.3       8 UNK         0.1400 
     33 CB         -4.7138  -17.4015  -44.6309 C.3       8 UNK        -0.1800 
     34 N          -3.2053  -16.3325  -42.9813 N.am      8 UNK        -0.5000 
     35 C          -3.7221  -16.4953  -41.7527 C.2       7 UNK         0.5000 
     36 O          -4.4103  -17.4624  -41.4237 O.2       7 UNK        -0.5000 
     37 CA         -3.4119  -15.3894  -40.7148 C.3       7 UNK         0.1400 
     38 CB         -3.2096  -15.9597  -39.2950 C.3       7 UNK        -0.1800 
     39 N          -2.2888  -14.5158  -41.0900 N.am      7 UNK        -0.5000 
     40 C          -1.0160  -14.8840  -41.2947 C.2       6 UNK         0.5000 
     41 O          -0.5921  -16.0307  -41.1297 O.2       6 UNK        -0.5000 
     42 CA         -0.0743  -13.7897  -41.8314 C.3       6 UNK         0.1400 
     43 CB          0.8393  -13.2639  -40.7153 C.3       6 UNK        -0.1800 
     44 N           0.7501  -14.2865  -42.9320 N.am      6 UNK        -0.5000 
     45 C           0.2891  -14.7866  -44.0893 C.2       5 UNK         0.5000 
     46 O          -0.9021  -14.7839  -44.4028 O.2       5 UNK        -0.5000 
     47 CA          1.3249  -15.4065  -45.0508 C.3       5 UNK         0.1400 
     48 CB          1.6141  -14.4625  -46.2271 C.3       5 UNK        -0.1800 
     49 N           2.5831  -15.7394  -44.3784 N.am      5 UNK        -0.5000 
     50 C           2.7438  -16.7789  -43.5475 C.2       4 UNK         0.5000 
     51 O           1.8787  -17.6346  -43.3671 O.2       4 UNK        -0.5000 
     52 CA          4.0737  -16.8707  -42.7758 C.3       4 UNK         0.1400 
     53 CB          4.9361  -18.0330  -43.2891 C.3       4 UNK        -0.1800 
     54 N           4.8486  -15.6317  -42.8664 N.am      4 UNK        -0.5000 
     55 C           4.7831  -14.6326  -41.9769 C.2       3 UNK         0.5000 
     56 O           4.0585  -14.6479  -40.9826 O.2       3 UNK        -0.5000 
     57 CA          5.6615  -13.4010  -42.2547 C.3       3 UNK         0.1400 
     58 CB          7.1199  -13.6759  -41.8565 C.3       3 UNK        -0.1800 
     59 N           5.6180  -12.9710  -43.6523 N.am      3 UNK        -0.5000 
     60 C           4.5594  -12.4017  -44.2462 C.2       2 UNK         0.5000 
     61 O           3.4721  -12.2272  -43.6975 O.2       2 UNK        -0.5000 
     62 CA          4.7423  -12.0215  -45.7201 C.3       2 UNK         0.1400 
     63 CB          5.8160  -10.9291  -45.8951 C.3       2 UNK        -0.1800 
     64 N           5.0855  -13.2369  -46.4459 N.am      2 UNK        -0.5000 
     65 C           5.1337  -13.4237  -47.7660 C.2       1 UNK         0.5000 
     66 O           4.9799  -12.5193  -48.5881 O.2       1 UNK        -0.5000 
     67 C          -2.2935  -21.3872  -47.7583 C.2       11 UNK         0.5000 
     68 O          -2.5167  -22.0570  -48.7703 O.2       11 UNK        -0.5000 
     69 N          -2.7679  -21.6849  -46.5401 N.am      12 UNK        -0.5000 
     70 CA         -3.5504  -22.8683  -46.2042 C.3       12 UNK         0.1400 
     71 CB         -4.2973  -22.6249  -44.8850 C.3       12 UNK        -0.1800 
     72 C          -2.6854  -24.1357  -46.1131 C.2       12 UNK         0.5000 
     73 O          -3.1158  -25.1816  -46.5964 O.2       12 UNK        -0.5000 
     74 N          -1.4826  -24.0333  -45.5258 N.am      13 UNK        -0.5000 
     75 CA         -0.5420  -25.1500  -45.3647 C.3       13 UNK         0.1400 
     76 CB          0.6348  -24.7227  -44.4763 C.3       13 UNK        -0.1800 
     77 C          -0.0285  -25.7158  -46.7017 C.2       13 UNK         0.5000 
     78 O           0.1316  -26.9303  -46.8269 O.2       13 UNK        -0.5000 
     79 N           0.1761  -24.8334  -47.6888 N.am      14 UNK        -0.5000 
     80 CA          0.5059  -25.1863  -49.0715 C.3       14 UNK         0.1400 
     81 CB          1.0725  -23.9405  -49.7721 C.3       14 UNK        -0.1800 
     82 C          -0.6973  -25.7379  -49.8656 C.2       14 UNK         0.5000 
     83 O          -0.5053  -26.2228  -50.9806 O.2       14 UNK        -0.5000 
     84 N          -1.9102  -25.6131  -49.3030 N.am      15 UNK        -0.5000 
     85 CA         -3.2234  -25.9411  -49.8709 C.3       15 UNK         0.1400 
     86 CB         -3.3310  -27.4394  -50.2171 C.3       15 UNK        -0.1800 
     87 C          -3.6387  -25.0389  -51.0499 C.2       15 UNK         0.5000 
     88 O          -4.6652  -25.2979  -51.6768 O.2       15 UNK        -0.5000 
     89 N          -2.8720  -23.9751  -51.3175 N.am      16 UNK        -0.5000 
     90 CA         -3.0942  -23.0473  -52.4221 C.3       16 UNK         0.1400 
     91 CB         -1.8243  -22.2169  -52.6390 C.3       16 UNK        -0.1800 
     92 C          -4.3237  -22.1538  -52.1912 C.2       16 UNK         0.5000 
     93 O          -5.0643  -21.8880  -53.1385 O.2       16 UNK        -0.5000 
     94 N          -4.5556  -21.7552  -50.9317 N.am      17 UNK        -0.5000 
     95 CA         -5.7682  -21.0484  -50.5154 C.3       17 UNK         0.1400 
     96 CB         -5.5491  -20.4014  -49.1409 C.3       17 UNK        -0.1800 
     97 C          -7.0009  -21.9701  -50.4847 C.2       17 UNK         0.5000 
     98 O          -8.0990  -21.5181  -50.8065 O.2       17 UNK        -0.5000 
     99 N          -6.7961  -23.2462  -50.1253 N.am      18 UNK        -0.5000 
    100 CA        -7.8385  -24.2753  -50.0756 C.3       18 UNK         0.1400 
    101 CB        -7.3217  -25.4965  -49.2988 C.3       18 UNK        -0.1800 
    102 C         -8.3271  -24.6764  -51.4796 C.2       18 UNK         0.5000 
    103 O         -9.5313  -24.8240  -51.6892 O.2       18 UNK        -0.5000 
    104 N         -7.3847  -24.7986  -52.4242 N.am      19 UNK        -0.5000 
    105 CA        -7.6415  -25.0238  -53.8483 C.3       19 UNK         0.1400 
    106 CB        -6.3395  -25.5059  -54.5081 C.3       19 UNK        -0.1800 
    107 C         -8.1705  -23.7717  -54.5782 C.2       19 UNK         0.5000 
    108 O         -8.6642  -23.8948  -55.6996 O.2       19 UNK        -0.5000 
    109 N         -8.0303  -22.5977  -53.9435 N.am      20 UNK        -0.5000 
    110 CA        -8.3416  -21.2550  -54.4450 C.3       20 UNK         0.1400 
    111 CB        -9.8500  -21.0978  -54.7266 C.3       20 UNK        -0.1800 
    112 C         -7.4564  -20.8347  -55.6379 C.2       20 UNK         0.5000 
    113 O         -7.8540  -19.9826  -56.4344 O.2       20 UNK        -0.5000 
    114 N         -6.2485  -21.4097  -55.7181 N.am      21 UNK        -0.5000 
    115 CA        -5.2345  -21.1259  -56.7344 C.3       21 UNK         0.1400 
    116 CB        -4.1161  -22.1741  -56.6265 C.3       21 UNK        -0.1800 
    117 C         -4.6598  -19.7036  -56.6070 C.2       21 UNK         0.5000 
    118 O         -4.3048  -19.0939  -57.6163 O.2       21 UNK        -0.5000 
    119 N         -4.6143  -19.1991  -55.3689 N.am      22 UNK        -0.5000 
    120 CA        -4.2290  -17.8226  -55.0238 C.3       22 UNK         0.1400 
    121 C         -5.3934  -16.7930  -55.1461 C.2       22 UNK         0.5000 
    122 N         -6.5953  -17.1756  -55.5645 N.am      22 UNK        -0.7600 
    123 O         -5.2009  -15.6128  -54.8672 O.2       22 UNK        -0.5000 
    124 C124       -3.5535  -17.7599  -53.6295 C.3       23 UNK        -0.0398 
    125 S125       -2.0442  -18.7870  -53.5594 S.3       23 UNK        -0.2404 
    126 C126       -0.7182  -17.5358  -53.5681 C.3       23 UNK        -0.0205 
    127 H127        8.8629  -16.4203  -46.8618 H         1 UNK         0.0600 
    128 H128        8.0834  -17.3777  -45.5980 H         1 UNK         0.0600 
    129 H129        8.6684  -15.7501  -45.2384 H         1 UNK         0.0600 
    130 H130        7.4158  -15.5162  -48.2873 H         1 UNK         0.3000 
    131 H131        4.5903  -15.4805  -47.8071 H         1 UNK         0.0600 
    132 H132        6.0231  -14.3625  -50.2581 H         1 UNK         0.0800 
    133 H133        5.7753  -16.0665  -50.0164 H         1 UNK         0.0800 
    134 H134        3.3666  -17.1173  -49.4157 H         1 UNK         0.0800 
    135 H135        3.7042  -17.2824  -51.1255 H         1 UNK         0.0800 
    136 H136        1.8642  -17.3473  -52.7240 H         1 UNK         0.1150 
    137 H137       -2.1657  -16.9162  -51.3102 H         1 UNK         0.1150 
    138 H138        1.1192  -16.2201  -48.6598 H         1 UNK         0.1150 
    139 H139       -2.6307  -16.2098  -49.0986 H         1 UNK         0.0800 
    140 H140       -1.3953  -15.1800  -48.4181 H         1 UNK         0.0800 
    141 H141       -2.6436  -18.6934  -48.8999 H         1 UNK         0.0800 
    142 H142       -3.1583  -18.9358  -47.2534 H         1 UNK         0.0800 
    143 H143       -0.8259  -20.1837  -48.7595 H         1 UNK         0.0600 
    144 H144       -0.5090  -19.3134  -46.1122 H         1 UNK         0.3000 
    145 H145        1.8396  -21.6621  -44.9423 H         1 UNK         0.0600 
    146 H146        3.1180  -20.2215  -46.5682 H         1 UNK         0.0600 
    147 H147        3.3162  -19.7138  -44.9040 H         1 UNK         0.0600 
    148 H148        2.2500  -18.8079  -45.9793 H         1 UNK         0.0600 
    149 H149        0.9804  -19.1680  -43.8843 H         1 UNK         0.3000 
    150 H150       -1.8360  -20.5271  -42.0443 H         1 UNK         0.0600 
    151 H151        0.6800  -18.8872  -41.4728 H         1 UNK         0.0600 
    152 H152        0.3611  -20.4952  -40.8359 H         1 UNK         0.0600 
    153 H153       -0.6827  -19.1520  -40.3951 H         1 UNK         0.0600 
    154 H154       -1.3822  -17.8134  -42.4316 H         1 UNK         0.3000 
    155 H155       -2.6926  -16.7682  -44.9048 H         1 UNK         0.0600 
    156 H156       -5.1704  -16.4283  -44.8104 H         1 UNK         0.0600 
    157 H157       -5.3408  -17.9425  -43.9218 H         1 UNK         0.0600 
    158 H158       -4.7424  -17.9487  -45.5736 H         1 UNK         0.0600 
    159 H159       -2.6314  -15.5138  -43.1430 H         1 UNK         0.3000 
    160 H160       -4.2955  -14.7501  -40.6884 H         1 UNK         0.0600 
    161 H161       -2.3926  -16.6809  -39.2594 H         1 UNK         0.0600 
    162 H162       -4.1081  -16.4698  -38.9459 H         1 UNK         0.0600 
    163 H163       -2.9902  -15.1678  -38.5790 H         1 UNK         0.0600 
    164 H164       -2.5397  -13.5525  -41.2670 H         1 UNK         0.3000 
    165 H165       -0.6691  -12.9584  -42.2148 H         1 UNK         0.0600 
    166 H166        1.5135  -12.4911  -41.0859 H         1 UNK         0.0600 
    167 H167        0.2543  -12.8267  -39.9053 H         1 UNK         0.0600 
    168 H168        1.4477  -14.0615  -40.2868 H         1 UNK         0.0600 
    169 H169        1.7424  -14.3351  -42.7558 H         1 UNK         0.3000 
    170 H170        0.8923  -16.3254  -45.4521 H         1 UNK         0.0600 
    171 H171        2.3286  -14.9029  -46.9220 H         1 UNK         0.0600 
    172 H172        2.0155  -13.5076  -45.8881 H         1 UNK         0.0600 
    173 H173        0.7030  -14.2538  -46.7894 H         1 UNK         0.0600 
    174 H174        3.3441  -15.0853  -44.4725 H         1 UNK         0.3000 
    175 H175        3.8306  -17.0754  -41.7310 H         1 UNK         0.0600 
    176 H176        4.4651  -18.9898  -43.0633 H         1 UNK         0.0600 
    177 H177        5.0896  -17.9807  -44.3675 H         1 UNK         0.0600 
    178 H178        5.9160  -18.0396  -42.8115 H         1 UNK         0.0600 
    179 H179        5.4492  -15.5447  -43.6822 H         1 UNK         0.3000 
    180 H180        5.2898  -12.5814  -41.6357 H         1 UNK         0.0600 
    181 H181        7.5635  -14.4648  -42.4654 H         1 UNK         0.0600 
    182 H182        7.1876  -13.9885  -40.8136 H         1 UNK         0.0600 
    183 H183        7.7337  -12.7817  -41.9667 H         1 UNK         0.0600 
    184 H184        6.4697  -13.0839  -44.1824 H         1 UNK         0.3000 
    185 H185        3.7887  -11.6460  -46.0967 H         1 UNK         0.0600 
    186 H186        5.6007  -10.0665  -45.2634 H         1 UNK         0.0600 
    187 H187        6.8111  -11.2899  -45.6331 H         1 UNK         0.0600 
    188 H188        5.8542  -10.5704  -46.9234 H         1 UNK         0.0600 
    189 H189        5.2723  -14.0571  -45.8730 H         1 UNK         0.3000 
    190 H190       -2.5754  -21.0453  -45.7730 H         1 UNK         0.3000 
    191 H191       -4.2929  -23.0262  -46.9893 H         1 UNK         0.0600 
    192 H192       -4.9643  -21.7661  -44.9643 H         1 UNK         0.0600 
    193 H193       -4.9063  -23.4880  -44.6137 H         1 UNK         0.0600 
    194 H194       -3.6071  -22.4344  -44.0618 H         1 UNK         0.0600 
    195 H195       -1.2125  -23.1498  -45.1023 H         1 UNK         0.3000 
    196 H196       -1.0737  -25.9546  -44.8524 H         1 UNK         0.0600 
    197 H197        1.3279  -25.5504  -44.3209 H         1 UNK         0.0600 
    198 H198        0.2919  -24.3993  -43.4936 H         1 UNK         0.0600 
    199 H199        1.1971  -23.9047  -44.9250 H         1 UNK         0.0600 
    200 H200        0.0979  -23.8407  -47.4830 H         1 UNK         0.3000 
    201 H201        1.2779  -25.9583  -49.0624 H         1 UNK         0.0600 
    202 H202        1.3630  -24.1625  -50.7997 H         1 UNK         0.0600 
    203 H203        1.9593  -23.5692  -49.2583 H         1 UNK         0.0600 
    204 H204        0.3419  -23.1307  -49.8039 H         1 UNK         0.0600 
    205 H205       -1.9501  -25.2278  -48.3672 H         1 UNK         0.3000 
    206 H206       -3.9474  -25.7397  -49.0810 H         1 UNK         0.0600 
    207 H207       -3.0426  -28.0611  -49.3695 H         1 UNK         0.0600 
    208 H208       -4.3553  -27.7063  -50.4801 H         1 UNK         0.0600 
    209 H209       -2.6994  -27.7090  -51.0638 H         1 UNK         0.0600 
    210 H210       -2.0834  -23.7900  -50.7153 H         1 UNK         0.3000 
    211 H211       -3.2730  -23.6346  -53.3255 H         1 UNK         0.0600 
    212 H212       -0.9444  -22.8539  -52.7318 H         1 UNK         0.0600 
    213 H213       -1.6488  -21.5184  -51.8193 H         1 UNK         0.0600 
    214 H214       -1.9002  -21.6429  -53.5619 H         1 UNK         0.0600 
    215 H215       -3.8790  -21.9887  -50.2107 H         1 UNK         0.3000 
    216 H216       -5.9678  -20.2510  -51.2349 H         1 UNK         0.0600 
    217 H217       -6.4445  -19.8738  -48.8098 H         1 UNK         0.0600 
    218 H218       -4.7435  -19.6714  -49.1804 H         1 UNK         0.0600 
    219 H219       -5.3041  -21.1409  -48.3783 H         1 UNK         0.0600 
    220 H220       -5.8561  -23.5384  -49.9083 H         1 UNK         0.3000 
    221 H221       -8.6916  -23.8657  -49.5303 H         1 UNK         0.0600 
    222 H222       -6.4812  -25.9745  -49.8015 H         1 UNK         0.0600 
    223 H223       -6.9998  -25.2198  -48.2946 H         1 UNK         0.0600 
    224 H224       -8.1057  -26.2473  -49.1926 H         1 UNK         0.0600 
    225 H225       -6.4069  -24.7516  -52.1480 H         1 UNK         0.3000 
    226 H226       -8.3929  -25.8097  -53.9483 H         1 UNK         0.0600 
    227 H227       -6.4900  -25.7195  -55.5670 H         1 UNK         0.0600 
    228 H228       -5.5504  -24.7563  -54.4323 H         1 UNK         0.0600 
    229 H229       -5.9761  -26.4213  -54.0405 H         1 UNK         0.0600 
    230 H230       -7.5985  -22.6225  -53.0304 H         1 UNK         0.3000 
    231 H231       -8.0890  -20.5709  -53.6337 H         1 UNK         0.0600 
    232 H232      -10.1679  -21.6897  -55.5851 H         1 UNK         0.0600 
    233 H233      -10.1014  -20.0579  -54.9377 H         1 UNK         0.0600 
    234 H234      -10.4446  -21.4057  -53.8664 H         1 UNK         0.0600 
    235 H235       -5.9623  -22.0074  -54.9506 H         1 UNK         0.3000 
    236 H236       -5.7015  -21.2145  -57.7174 H         1 UNK         0.0600 
    237 H237       -3.6181  -22.1325  -55.6569 H         1 UNK         0.0600 
    238 H238       -4.5068  -23.1831  -56.7596 H         1 UNK         0.0600 
    239 H239       -3.3567  -22.0148  -57.3930 H         1 UNK         0.0600 
    240 H240       -4.9118  -19.7880  -54.6035 H         1 UNK         0.3000 
    241 H241       -3.4847  -17.4906  -55.7503 H         1 UNK         0.0600 
    242 H242       -6.7785  -18.1299  -55.8427 H         1 UNK         0.3800 
    243 H243       -7.3284  -16.4881  -55.6414 H         1 UNK         0.3800 
    244 H244       -4.2418  -18.1075  -52.8574 H         1 UNK         0.0800 
    245 H245       -3.3004  -16.7312  -53.3688 H         1 UNK         0.0800 
    246 H246       -1.0524  -16.6278  -54.0713 H         1 UNK         0.0800 
    247 H247        0.0995  -17.9313  -54.1726 H         1 UNK         0.0800 
@<TRIPOS>BOND
     1    1    2 1    
     2    1  127 1    
     3    1  128 1    
     4    1  129 1    
     5    2    3 2    
     6    2    4 am   BACKBONE|DICT|INTERRES
     7    4    5 1    
     8    4  130 1    
     9    5    6 1    
    10    5   65 1    
    11    5  131 1    
    12    6    7 1    
    13    6  132 1    
    14    6  133 1    
    15    7    8 1    
    16    8    9 1    
    17    8  134 1    
    18    8  135 1    
    19    9   10 ar   
    20    9   14 ar   
    21   10   11 ar   
    22   10  136 1    
    23   11   12 ar   
    24   11  126 1    
    25   12   13 ar   
    26   12  137 1    
    27   13   14 ar   
    28   13   15 1    
    29   14  138 1    
    30   15   16 1    
    31   15  139 1    
    32   15  140 1    
    33   16   17 1    
    34   17   18 1    
    35   17  141 1    
    36   17  142 1    
    37   18   19 1    
    38   18   67 1    
    39   18  143 1    
    40   19   20 am   BACKBONE|DICT|INTERRES
    41   19  144 1    
    42   20   21 2    
    43   20   22 1    
    44   22   23 1    
    45   22   24 1    
    46   22  145 1    
    47   23  146 1    
    48   23  147 1    
    49   23  148 1    
    50   24   25 am   BACKBONE|DICT|INTERRES
    51   24  149 1    
    52   25   26 2    
    53   25   27 1    
    54   27   28 1    
    55   27   29 1    
    56   27  150 1    
    57   28  151 1    
    58   28  152 1    
    59   28  153 1    
    60   29   30 am   BACKBONE|DICT|INTERRES
    61   29  154 1    
    62   30   31 2    
    63   30   32 1    
    64   32   33 1    
    65   32   34 1    
    66   32  155 1    
    67   33  156 1    
    68   33  157 1    
    69   33  158 1    
    70   34   35 am   BACKBONE|DICT|INTERRES
    71   34  159 1    
    72   35   36 2    
    73   35   37 1    
    74   37   38 1    
    75   37   39 1    
    76   37  160 1    
    77   38  161 1    
    78   38  162 1    
    79   38  163 1    
    80   39   40 am   BACKBONE|DICT|INTERRES
    81   39  164 1    
    82   40   41 2    
    83   40   42 1    
    84   42   43 1    
    85   42   44 1    
    86   42  165 1    
    87   43  166 1    
    88   43  167 1    
    89   43  168 1    
    90   44   45 am   BACKBONE|DICT|INTERRES
    91   44  169 1    
    92   45   46 2    
    93   45   47 1    
    94   47   48 1    
    95   47   49 1    
    96   47  170 1    
    97   48  171 1    
    98   48  172 1    
    99   48  173 1    
   100   49   50 am   BACKBONE|DICT|INTERRES
   101   49  174 1    
   102   50   51 2    
   103   50   52 1    
   104   52   53 1    
   105   52   54 1    
   106   52  175 1    
   107   53  176 1    
   108   53  177 1    
   109   53  178 1    
   110   54   55 am   BACKBONE|DICT|INTERRES
   111   54  179 1    
   112   55   56 2    
   113   55   57 1    
   114   57   58 1    
   115   57   59 1    
   116   57  180 1    
   117   58  181 1    
   118   58  182 1    
   119   58  183 1    
   120   59   60 am   BACKBONE|DICT|INTERRES
   121   59  184 1    
   122   60   61 2    
   123   60   62 1    
   124   62   63 1    
   125   62   64 1    
   126   62  185 1    
   127   63  186 1    
   128   63  187 1    
   129   63  188 1    
   130   64   65 am   BACKBONE|DICT|INTERRES
   131   64  189 1    
   132   65   66 2    
   133   67   68 2    
   134   67   69 am   BACKBONE|DICT|INTERRES
   135   69   70 1    
   136   69  190 1    
   137   70   71 1    
   138   70   72 1    
   139   70  191 1    
   140   71  192 1    
   141   71  193 1    
   142   71  194 1    
   143   72   73 2    
   144   72   74 am   BACKBONE|DICT|INTERRES
   145   74   75 1    
   146   74  195 1    
   147   75   76 1    
   148   75   77 1    
   149   75  196 1    
   150   76  197 1    
   151   76  198 1    
   152   76  199 1    
   153   77   78 2    
   154   77   79 am   BACKBONE|DICT|INTERRES
   155   79   80 1    
   156   79  200 1    
   157   80   81 1    
   158   80   82 1    
   159   80  201 1    
   160   81  202 1    
   161   81  203 1    
   162   81  204 1    
   163   82   83 2    
   164   82   84 am   BACKBONE|DICT|INTERRES
   165   84   85 1    
   166   84  205 1    
   167   85   86 1    
   168   85   87 1    
   169   85  206 1    
   170   86  207 1    
   171   86  208 1    
   172   86  209 1    
   173   87   88 2    
   174   87   89 am   BACKBONE|DICT|INTERRES
   175   89   90 1    
   176   89  210 1    
   177   90   91 1    
   178   90   92 1    
   179   90  211 1    
   180   91  212 1    
   181   91  213 1    
   182   91  214 1    
   183   92   93 2    
   184   92   94 am   BACKBONE|DICT|INTERRES
   185   94   95 1    
   186   94  215 1    
   187   95   96 1    
   188   95   97 1    
   189   95  216 1    
   190   96  217 1    
   191   96  218 1    
   192   96  219 1    
   193   97   98 2    
   194   97   99 am   BACKBONE|DICT|INTERRES
   195   99  100 1    
   196   99  220 1    
   197  100  101 1    
   198  100  102 1    
   199  100  221 1    
   200  101  222 1    
   201  101  223 1    
   202  101  224 1    
   203  102  103 2    
   204  102  104 am   BACKBONE|DICT|INTERRES
   205  104  105 1    
   206  104  225 1    
   207  105  106 1    
   208  105  107 1    
   209  105  226 1    
   210  106  227 1    
   211  106  228 1    
   212  106  229 1    
   213  107  108 2    
   214  107  109 am   BACKBONE|DICT|INTERRES
   215  109  110 1    
   216  109  230 1    
   217  110  111 1    
   218  110  112 1    
   219  110  231 1    
   220  111  232 1    
   221  111  233 1    
   222  111  234 1    
   223  112  113 2    
   224  112  114 am   BACKBONE|DICT|INTERRES
   225  114  115 1    
   226  114  235 1    
   227  115  116 1    
   228  115  117 1    
   229  115  236 1    
   230  116  237 1    
   231  116  238 1    
   232  116  239 1    
   233  117  118 2    
   234  117  119 am   BACKBONE|DICT|INTERRES
   235  119  120 1    
   236  119  240 1    
   237  120  121 1    
   238  120  124 1    
   239  120  241 1    
   240  121  122 am   BACKBONE|DICT|INTERRES
   241  121  123 2    
   242  122  242 1    
   243  122  243 1    
   244  124  125 1    
   245  124  244 1    
   246  124  245 1    
   247  125  126 1    
   248  126  246 1    
   249  126  247 1    
@<TRIPOS>SUBSTRUCTURE
     1 UNK         1 GROUP             0       ****    0 ROOT    
