@<TRIPOS>MOLECULE
3R540
247   249    1
SMALL
USER_CHARGES


@<TRIPOS>ATOM
      1 CA         -0.3487  -13.9964  -42.8138 C.3       0 UNK        -0.1800 
      2 C          -0.5228  -13.0530  -43.9923 C.2       0 UNK         0.5000 
      3 O          -1.1854  -12.0243  -43.8603 O.2       0 UNK        -0.5000 
      4 N           0.0758  -13.3954  -45.1412 N.am      1 UNK        -0.5000 
      5 CA          0.0627  -12.5921  -46.3737 C.3       1 UNK         0.1400 
      6 C6          0.6039  -13.3778  -47.5923 C.3       23 UNK        -0.0398 
      7 S7         -0.2694  -14.9532  -47.8783 S.3       23 UNK        -0.2404 
      8 C8          0.1488  -15.2368  -49.6235 C.3       23 UNK        -0.0205 
      9 C9         -0.1160  -16.6767  -50.0306 C.ar      23 UNK        -0.0193 
     10 C10        -1.3715  -17.0573  -50.5140 C.ar      23 UNK        -0.1150 
     11 C11        -1.6068  -18.3783  -50.9053 C.ar      23 UNK        -0.0193 
     12 C12        -0.5759  -19.3161  -50.8110 C.ar      23 UNK        -0.1150 
     13 C13         0.6862  -18.9485  -50.3380 C.ar      23 UNK        -0.0193 
     14 C14         0.9067  -17.6262  -49.9427 C.ar      23 UNK        -0.1150 
     15 C15         1.8260  -19.9605  -50.2932 C.3       23 UNK        -0.0205 
     16 S16         1.3935  -21.5184  -49.4515 S.3       23 UNK        -0.2404 
     17 C17         1.1043  -20.9441  -47.7460 C.3       23 UNK        -0.0398 
     18 CA         -0.1625  -21.5646  -47.1120 C.3       11 UNK         0.1400 
     19 N          -0.1322  -21.4572  -45.6508 N.am      11 UNK        -0.5000 
     20 C          -0.9990  -22.0518  -44.8195 C.2       10 UNK         0.5000 
     21 O          -1.9046  -22.7954  -45.1936 O.2       10 UNK        -0.5000 
     22 CA         -0.8608  -21.7247  -43.3222 C.3       10 UNK         0.1400 
     23 CB          0.2678  -22.5477  -42.6838 C.3       10 UNK        -0.1800 
     24 N          -0.6316  -20.3006  -43.0786 N.am      10 UNK        -0.5000 
     25 C          -1.5040  -19.3279  -43.3798 C.2       9 UNK         0.5000 
     26 O          -2.6217  -19.5331  -43.8513 O.2       9 UNK        -0.5000 
     27 CA         -1.0278  -17.8800  -43.1647 C.3       9 UNK         0.1400 
     28 CB         -1.1040  -17.5044  -41.6763 C.3       9 UNK        -0.1800 
     29 N           0.3291  -17.6574  -43.6689 N.am      9 UNK        -0.5000 
     30 C           0.7049  -17.8164  -44.9473 C.2       8 UNK         0.5000 
     31 O          -0.0635  -18.1279  -45.8540 O.2       8 UNK        -0.5000 
     32 CA          2.2034  -17.6654  -45.2543 C.3       8 UNK         0.1400 
     33 CB          2.5929  -16.1890  -45.4127 C.3       8 UNK        -0.1800 
     34 N           3.0269  -18.2871  -44.2192 N.am      8 UNK        -0.5000 
     35 C           3.1158  -19.6103  -44.0240 C.2       7 UNK         0.5000 
     36 O           2.5411  -20.4453  -44.7226 O.2       7 UNK        -0.5000 
     37 CA          3.9497  -20.0712  -42.8153 C.3       7 UNK         0.1400 
     38 CB          5.4455  -20.0949  -43.1633 C.3       7 UNK        -0.1800 
     39 N           3.7353  -19.2269  -41.6387 N.am      7 UNK        -0.5000 
     40 C           2.5765  -19.1507  -40.9696 C.2       6 UNK         0.5000 
     41 O           1.5824  -19.8192  -41.2504 O.2       6 UNK        -0.5000 
     42 CA          2.5014  -18.1281  -39.8214 C.3       6 UNK         0.1400 
     43 CB          2.9752  -18.7612  -38.5049 C.3       6 UNK        -0.1800 
     44 N           3.2615  -16.8997  -40.0695 N.am      6 UNK        -0.5000 
     45 C           3.0279  -16.0395  -41.0693 C.2       5 UNK         0.5000 
     46 O           2.1796  -16.2228  -41.9439 O.2       5 UNK        -0.5000 
     47 CA          3.8875  -14.7617  -41.0936 C.3       5 UNK         0.1400 
     48 CB          4.4477  -14.4902  -42.4992 C.3       5 UNK        -0.1800 
     49 N           3.1382  -13.5871  -40.6480 N.am      5 UNK        -0.5000 
     50 C           2.6455  -13.4022  -39.4130 C.2       4 UNK         0.5000 
     51 O           2.7846  -14.2121  -38.4951 O.2       4 UNK        -0.5000 
     52 CA          1.9336  -12.0617  -39.1566 C.3       4 UNK         0.1400 
     53 CB          1.7241  -11.7514  -37.6622 C.3       4 UNK        -0.1800 
     54 N           2.7083  -10.9949  -39.7804 N.am      4 UNK        -0.5000 
     55 C           2.2063   -9.9236  -40.3997 C.2       3 UNK         0.5000 
     56 O           1.0106   -9.6258  -40.4003 O.2       3 UNK        -0.5000 
     57 CA          3.2020   -9.0574  -41.2022 C.3       3 UNK         0.1400 
     58 CB          4.6889   -9.3567  -40.9012 C.3       3 UNK        -0.1800 
     59 N           2.9548   -9.1553  -42.6451 N.am      3 UNK        -0.5000 
     60 C           2.8773  -10.2775  -43.3755 C.2       2 UNK         0.5000 
     61 O           3.0350  -11.4188  -42.9259 O.2       2 UNK        -0.5000 
     62 CA          2.5775  -10.0921  -44.8683 C.3       2 UNK         0.1400 
     63 CB          3.8734   -9.9745  -45.6865 C.3       2 UNK        -0.1800 
     64 N           1.8219  -11.2545  -45.3077 N.am      2 UNK        -0.5000 
     65 C           0.8416  -11.2661  -46.2170 C.2       1 UNK         0.5000 
     66 O           0.5336  -10.2919  -46.9051 O.2       1 UNK        -0.5000 
     67 C          -1.4651  -20.9861  -47.7088 C.2       11 UNK         0.5000 
     68 O          -2.0767  -21.6238  -48.5690 O.2       11 UNK        -0.5000 
     69 N          -1.8923  -19.8205  -47.2033 N.am      12 UNK        -0.5000 
     70 CA         -3.1476  -19.1648  -47.5600 C.3       12 UNK         0.1400 
     71 CB         -3.1864  -17.7507  -46.9637 C.3       12 UNK        -0.1800 
     72 C          -4.3828  -19.9819  -47.1466 C.2       12 UNK         0.5000 
     73 O          -5.2965  -20.1373  -47.9564 O.2       12 UNK        -0.5000 
     74 N          -4.3719  -20.5288  -45.9222 N.am      13 UNK        -0.5000 
     75 CA         -5.4197  -21.4039  -45.3882 C.3       13 UNK         0.1400 
     76 CB         -5.1609  -21.6665  -43.8972 C.3       13 UNK        -0.1800 
     77 C          -5.5495  -22.7309  -46.1604 C.2       13 UNK         0.5000 
     78 O          -6.6664  -23.2014  -46.3782 O.2       13 UNK        -0.5000 
     79 N          -4.4104  -23.2887  -46.5918 N.am      14 UNK        -0.5000 
     80 CA         -4.3263  -24.4710  -47.4518 C.3       14 UNK         0.1400 
     81 CB         -2.9017  -25.0427  -47.3671 C.3       14 UNK        -0.1800 
     82 C          -4.7000  -24.1920  -48.9227 C.2       14 UNK         0.5000 
     83 O          -4.8838  -25.1456  -49.6790 O.2       14 UNK        -0.5000 
     84 N          -4.7805  -22.9068  -49.3016 N.am      15 UNK        -0.5000 
     85 CA         -5.0076  -22.3785  -50.6498 C.3       15 UNK         0.1400 
     86 CB         -6.4262  -22.7218  -51.1484 C.3       15 UNK        -0.1800 
     87 C          -3.8996  -22.7934  -51.6402 C.2       15 UNK         0.5000 
     88 O          -4.1874  -23.0735  -52.8035 O.2       15 UNK        -0.5000 
     89 N          -2.6514  -22.8353  -51.1512 N.am      16 UNK        -0.5000 
     90 CA         -1.4192  -23.2911  -51.8073 C.3       16 UNK         0.1400 
     91 CB         -1.1149  -22.4850  -53.0861 C.3       16 UNK        -0.1800 
     92 C          -1.3823  -24.8055  -52.1006 C.2       16 UNK         0.5000 
     93 O          -0.4002  -25.4619  -51.7522 O.2       16 UNK        -0.5000 
     94 N          -2.4326  -25.3325  -52.7365 N.am      17 UNK        -0.5000 
     95 CA         -2.5875  -26.7177  -53.1686 C.3       17 UNK         0.1400 
     96 CB         -1.7362  -26.9642  -54.4317 C.3       17 UNK        -0.1800 
     97 C          -4.0780  -27.0086  -53.4201 C.2       17 UNK         0.5000 
     98 O          -4.9214  -26.1324  -53.2196 O.2       17 UNK        -0.5000 
     99 N          -4.3828  -28.2333  -53.8743 N.am      18 UNK        -0.5000 
    100 CA        -5.7356  -28.6867  -54.2248 C.3       18 UNK         0.1400 
    101 CB        -5.6941  -30.1884  -54.5471 C.3       18 UNK        -0.1800 
    102 C         -6.3757  -27.9012  -55.3899 C.2       18 UNK         0.5000 
    103 O         -7.5993  -27.7664  -55.4332 O.2       18 UNK        -0.5000 
    104 N         -5.5372  -27.3781  -56.2899 N.am      19 UNK        -0.5000 
    105 CA        -5.8884  -26.4227  -57.3308 C.3       19 UNK         0.1400 
    106 CB        -6.2515  -27.1608  -58.6300 C.3       19 UNK        -0.1800 
    107 C         -4.6726  -25.5078  -57.5173 C.2       19 UNK         0.5000 
    108 O         -3.5516  -26.0128  -57.6208 O.2       19 UNK        -0.5000 
    109 N         -4.9043  -24.1930  -57.5369 N.am      20 UNK        -0.5000 
    110 CA        -3.8897  -23.1462  -57.6194 C.3       20 UNK         0.1400 
    111 CB        -3.0709  -23.0921  -56.3135 C.3       20 UNK        -0.1800 
    112 C         -4.5851  -21.7994  -57.8660 C.2       20 UNK         0.5000 
    113 O         -5.8132  -21.7108  -57.7646 O.2       20 UNK        -0.5000 
    114 N         -3.7821  -20.7602  -58.1338 N.am      21 UNK        -0.5000 
    115 CA        -4.2181  -19.3736  -58.3462 C.3       21 UNK         0.1400 
    116 CB        -2.9995  -18.5248  -58.7408 C.3       21 UNK        -0.1800 
    117 C         -4.9475  -18.7413  -57.1409 C.2       21 UNK         0.5000 
    118 O         -5.7158  -17.7968  -57.3275 O.2       21 UNK        -0.5000 
    119 N         -4.7179  -19.2870  -55.9397 N.am      22 UNK        -0.5000 
    120 CA        -5.4615  -18.9745  -54.7093 C.3       22 UNK         0.1400 
    121 C         -6.9462  -19.4533  -54.7163 C.2       22 UNK         0.5000 
    122 N         -7.3752  -20.3179  -55.6298 N.am      22 UNK        -0.7600 
    123 O         -7.7282  -19.0251  -53.8722 O.2       22 UNK        -0.5000 
    124 C124       -4.7372  -19.5238  -53.4548 C.3       23 UNK        -0.0398 
    125 S125       -3.0601  -18.8424  -53.2208 S.3       23 UNK        -0.2404 
    126 C126       -2.9771  -18.8061  -51.4043 C.3       23 UNK        -0.0205 
    127 H127        0.2012  -14.8912  -43.0998 H         1 UNK         0.0600 
    128 H128       -1.3217  -14.3008  -42.4289 H         1 UNK         0.0600 
    129 H129        0.2008  -13.5024  -42.0126 H         1 UNK         0.0600 
    130 H130        0.5679  -14.2737  -45.2023 H         1 UNK         0.3000 
    131 H131       -0.9770  -12.3290  -46.5801 H         1 UNK         0.0600 
    132 H132        1.6670  -13.5945  -47.4721 H         1 UNK         0.0800 
    133 H133        0.5156  -12.7687  -48.4942 H         1 UNK         0.0800 
    134 H134       -0.4282  -14.5551  -50.2501 H         1 UNK         0.0800 
    135 H135        1.1997  -14.9953  -49.7915 H         1 UNK         0.0800 
    136 H136       -2.1645  -16.3259  -50.5815 H         1 UNK         0.1150 
    137 H137       -0.7574  -20.3400  -51.0969 H         1 UNK         0.1150 
    138 H138        1.8794  -17.3290  -49.5766 H         1 UNK         0.1150 
    139 H139        2.1226  -20.1902  -51.3174 H         1 UNK         0.0800 
    140 H140        2.7052  -19.5342  -49.8076 H         1 UNK         0.0800 
    141 H141        1.0670  -19.8545  -47.7042 H         1 UNK         0.0800 
    142 H142        1.9855  -21.2344  -47.1734 H         1 UNK         0.0800 
    143 H143       -0.1574  -22.6335  -47.3367 H         1 UNK         0.0600 
    144 H144        0.6083  -20.8882  -45.2548 H         1 UNK         0.3000 
    145 H145       -1.7982  -21.9995  -42.8345 H         1 UNK         0.0600 
    146 H146        0.3136  -22.3829  -41.6072 H         1 UNK         0.0600 
    147 H147        0.1116  -23.6153  -42.8436 H         1 UNK         0.0600 
    148 H148        1.2415  -22.2908  -43.1018 H         1 UNK         0.0600 
    149 H149        0.2488  -20.0502  -42.6373 H         1 UNK         0.3000 
    150 H150       -1.6954  -17.2178  -43.7197 H         1 UNK         0.0600 
    151 H151       -2.1358  -17.5317  -41.3243 H         1 UNK         0.0600 
    152 H152       -0.7232  -16.5013  -41.4913 H         1 UNK         0.0600 
    153 H153       -0.5323  -18.1928  -41.0554 H         1 UNK         0.0600 
    154 H154        1.0253  -17.3556  -42.9930 H         1 UNK         0.3000 
    155 H155        2.4078  -18.1715  -46.2004 H         1 UNK         0.0600 
    156 H156        3.6666  -16.0748  -45.5627 H         1 UNK         0.0600 
    157 H157        2.3093  -15.5991  -44.5422 H         1 UNK         0.0600 
    158 H158        2.0993  -15.7551  -46.2809 H         1 UNK         0.0600 
    159 H159        3.4760  -17.6669  -43.5622 H         1 UNK         0.3000 
    160 H160        3.6406  -21.0886  -42.5658 H         1 UNK         0.0600 
    161 H161        5.8226  -19.0987  -43.3979 H         1 UNK         0.0600 
    162 H162        5.6336  -20.7299  -44.0300 H         1 UNK         0.0600 
    163 H163        6.0358  -20.4916  -42.3371 H         1 UNK         0.0600 
    164 H164        4.5046  -18.6455  -41.3406 H         1 UNK         0.3000 
    165 H165        1.4539  -17.8452  -39.7025 H         1 UNK         0.0600 
    166 H166        2.8361  -18.0782  -37.6666 H         1 UNK         0.0600 
    167 H167        2.4099  -19.6671  -38.2814 H         1 UNK         0.0600 
    168 H168        4.0305  -19.0339  -38.5453 H         1 UNK         0.0600 
    169 H169        3.9497  -16.6526  -39.3728 H         1 UNK         0.3000 
    170 H170        4.7350  -14.8998  -40.4191 H         1 UNK         0.0600 
    171 H171        4.9662  -15.3642  -42.8951 H         1 UNK         0.0600 
    172 H172        3.6580  -14.2254  -43.2025 H         1 UNK         0.0600 
    173 H173        5.1617  -13.6665  -42.4836 H         1 UNK         0.0600 
    174 H174        2.9809  -12.8702  -41.3488 H         1 UNK         0.3000 
    175 H175        0.9557  -12.1359  -39.6369 H         1 UNK         0.0600 
    176 H176        2.6735  -11.6897  -37.1292 H         1 UNK         0.0600 
    177 H177        1.2014  -10.8046  -37.5261 H         1 UNK         0.0600 
    178 H178        1.1234  -12.5242  -37.1812 H         1 UNK         0.0600 
    179 H179        3.7009  -11.1693  -39.8595 H         1 UNK         0.3000 
    180 H180        3.0075   -8.0227  -40.9164 H         1 UNK         0.0600 
    181 H181        5.3372   -8.6544  -41.4253 H         1 UNK         0.0600 
    182 H182        4.9814  -10.3612  -41.2094 H         1 UNK         0.0600 
    183 H183        4.9048   -9.2546  -39.8368 H         1 UNK         0.0600 
    184 H184        2.7837   -8.2742  -43.1090 H         1 UNK         0.3000 
    185 H185        1.9770   -9.1890  -44.9974 H         1 UNK         0.0600 
    186 H186        3.6590   -9.8481  -46.7479 H         1 UNK         0.0600 
    187 H187        4.4602   -9.1124  -45.3675 H         1 UNK         0.0600 
    188 H188        4.5003  -10.8601  -45.5743 H         1 UNK         0.0600 
    189 H189        1.9762  -12.0790  -44.7412 H         1 UNK         0.3000 
    190 H190       -1.2979  -19.3245  -46.5427 H         1 UNK         0.3000 
    191 H191       -3.1710  -19.0683  -48.6442 H         1 UNK         0.0600 
    192 H192       -4.1080  -17.2356  -47.2364 H         1 UNK         0.0600 
    193 H193       -2.3558  -17.1496  -47.3337 H         1 UNK         0.0600 
    194 H194       -3.1263  -17.7679  -45.8755 H         1 UNK         0.0600 
    195 H195       -3.6015  -20.3097  -45.2955 H         1 UNK         0.3000 
    196 H196       -6.3707  -20.8752  -45.4791 H         1 UNK         0.0600 
    197 H197       -4.2053  -22.1662  -43.7367 H         1 UNK         0.0600 
    198 H198       -5.1509  -20.7360  -43.3293 H         1 UNK         0.0600 
    199 H199       -5.9394  -22.2999  -43.4703 H         1 UNK         0.0600 
    200 H200       -3.5269  -22.8795  -46.3009 H         1 UNK         0.3000 
    201 H201       -5.0203  -25.2245  -47.0741 H         1 UNK         0.0600 
    202 H202       -2.1610  -24.3277  -47.7270 H         1 UNK         0.0600 
    203 H203       -2.8039  -25.9474  -47.9684 H         1 UNK         0.0600 
    204 H204       -2.6424  -25.3054  -46.3414 H         1 UNK         0.0600 
    205 H205       -4.6015  -22.2054  -48.5945 H         1 UNK         0.3000 
    206 H206       -4.9505  -21.2938  -50.5607 H         1 UNK         0.0600 
    207 H207       -7.1825  -22.4200  -50.4239 H         1 UNK         0.0600 
    208 H208       -6.6466  -22.2038  -52.0827 H         1 UNK         0.0600 
    209 H209       -6.5428  -23.7902  -51.3333 H         1 UNK         0.0600 
    210 H210       -2.5298  -22.5582  -50.1793 H         1 UNK         0.3000 
    211 H211       -0.6222  -23.0847  -51.0921 H         1 UNK         0.0600 
    212 H212       -0.0973  -22.6750  -53.4286 H         1 UNK         0.0600 
    213 H213       -1.2141  -21.4127  -52.9322 H         1 UNK         0.0600 
    214 H214       -1.7839  -22.7561  -53.9000 H         1 UNK         0.0600 
    215 H215       -3.2358  -24.7341  -52.9261 H         1 UNK         0.3000 
    216 H216       -2.2523  -27.3776  -52.3661 H         1 UNK         0.0600 
    217 H217       -2.0640  -26.3372  -55.2614 H         1 UNK         0.0600 
    218 H218       -1.7939  -28.0020  -54.7601 H         1 UNK         0.0600 
    219 H219       -0.6829  -26.7498  -54.2511 H         1 UNK         0.0600 
    220 H220       -3.6397  -28.9037  -54.0077 H         1 UNK         0.3000 
    221 H221       -6.3707  -28.5431  -53.3481 H         1 UNK         0.0600 
    222 H222       -5.3271  -30.7651  -53.6979 H         1 UNK         0.0600 
    223 H223       -5.0498  -30.3989  -55.4016 H         1 UNK         0.0600 
    224 H224       -6.6899  -30.5640  -54.7868 H         1 UNK         0.0600 
    225 H225       -4.5423  -27.5173  -56.1712 H         1 UNK         0.3000 
    226 H226       -6.7402  -25.8206  -57.0066 H         1 UNK         0.0600 
    227 H227       -5.4260  -27.7789  -58.9855 H         1 UNK         0.0600 
    228 H228       -7.1167  -27.8083  -58.4866 H         1 UNK         0.0600 
    229 H229       -6.5002  -26.4541  -59.4224 H         1 UNK         0.0600 
    230 H230       -5.8506  -23.8348  -57.4824 H         1 UNK         0.3000 
    231 H231       -3.2308  -23.3545  -58.4646 H         1 UNK         0.0600 
    232 H232       -3.7128  -22.8978  -55.4537 H         1 UNK         0.0600 
    233 H233       -2.3168  -22.3053  -56.3457 H         1 UNK         0.0600 
    234 H234       -2.5414  -24.0257  -56.1266 H         1 UNK         0.0600 
    235 H235       -2.7868  -20.9215  -58.1908 H         1 UNK         0.3000 
    236 H236       -4.9201  -19.3743  -59.1825 H         1 UNK         0.0600 
    237 H237       -2.5282  -18.9063  -59.6467 H         1 UNK         0.0600 
    238 H238       -3.2894  -17.4918  -58.9383 H         1 UNK         0.0600 
    239 H239       -2.2482  -18.5091  -57.9503 H         1 UNK         0.0600 
    240 H240       -4.0529  -20.0423  -55.8766 H         1 UNK         0.3000 
    241 H241       -5.4976  -17.8870  -54.6207 H         1 UNK         0.0600 
    242 H242       -8.3400  -20.6075  -55.6153 H         1 UNK         0.3800 
    243 H243       -6.7555  -20.6920  -56.3407 H         1 UNK         0.3800 
    244 H244       -4.6588  -20.6085  -53.5191 H         1 UNK         0.0800 
    245 H245       -5.3240  -19.3122  -52.5588 H         1 UNK         0.0800 
    246 H246       -3.7472  -18.1369  -51.0172 H         1 UNK         0.0800 
    247 H247       -3.2014  -19.7987  -51.0146 H         1 UNK         0.0800 
@<TRIPOS>BOND
     1    1    2 1    
     2    1  127 1    
     3    1  128 1    
     4    1  129 1    
     5    2    3 2    
     6    2    4 am   BACKBONE|DICT|INTERRES
     7    4    5 1    
     8    4  130 1    
     9    5    6 1    
    10    5   65 1    
    11    5  131 1    
    12    6    7 1    
    13    6  132 1    
    14    6  133 1    
    15    7    8 1    
    16    8    9 1    
    17    8  134 1    
    18    8  135 1    
    19    9   10 ar   
    20    9   14 ar   
    21   10   11 ar   
    22   10  136 1    
    23   11   12 ar   
    24   11  126 1    
    25   12   13 ar   
    26   12  137 1    
    27   13   14 ar   
    28   13   15 1    
    29   14  138 1    
    30   15   16 1    
    31   15  139 1    
    32   15  140 1    
    33   16   17 1    
    34   17   18 1    
    35   17  141 1    
    36   17  142 1    
    37   18   19 1    
    38   18   67 1    
    39   18  143 1    
    40   19   20 am   BACKBONE|DICT|INTERRES
    41   19  144 1    
    42   20   21 2    
    43   20   22 1    
    44   22   23 1    
    45   22   24 1    
    46   22  145 1    
    47   23  146 1    
    48   23  147 1    
    49   23  148 1    
    50   24   25 am   BACKBONE|DICT|INTERRES
    51   24  149 1    
    52   25   26 2    
    53   25   27 1    
    54   27   28 1    
    55   27   29 1    
    56   27  150 1    
    57   28  151 1    
    58   28  152 1    
    59   28  153 1    
    60   29   30 am   BACKBONE|DICT|INTERRES
    61   29  154 1    
    62   30   31 2    
    63   30   32 1    
    64   32   33 1    
    65   32   34 1    
    66   32  155 1    
    67   33  156 1    
    68   33  157 1    
    69   33  158 1    
    70   34   35 am   BACKBONE|DICT|INTERRES
    71   34  159 1    
    72   35   36 2    
    73   35   37 1    
    74   37   38 1    
    75   37   39 1    
    76   37  160 1    
    77   38  161 1    
    78   38  162 1    
    79   38  163 1    
    80   39   40 am   BACKBONE|DICT|INTERRES
    81   39  164 1    
    82   40   41 2    
    83   40   42 1    
    84   42   43 1    
    85   42   44 1    
    86   42  165 1    
    87   43  166 1    
    88   43  167 1    
    89   43  168 1    
    90   44   45 am   BACKBONE|DICT|INTERRES
    91   44  169 1    
    92   45   46 2    
    93   45   47 1    
    94   47   48 1    
    95   47   49 1    
    96   47  170 1    
    97   48  171 1    
    98   48  172 1    
    99   48  173 1    
   100   49   50 am   BACKBONE|DICT|INTERRES
   101   49  174 1    
   102   50   51 2    
   103   50   52 1    
   104   52   53 1    
   105   52   54 1    
   106   52  175 1    
   107   53  176 1    
   108   53  177 1    
   109   53  178 1    
   110   54   55 am   BACKBONE|DICT|INTERRES
   111   54  179 1    
   112   55   56 2    
   113   55   57 1    
   114   57   58 1    
   115   57   59 1    
   116   57  180 1    
   117   58  181 1    
   118   58  182 1    
   119   58  183 1    
   120   59   60 am   BACKBONE|DICT|INTERRES
   121   59  184 1    
   122   60   61 2    
   123   60   62 1    
   124   62   63 1    
   125   62   64 1    
   126   62  185 1    
   127   63  186 1    
   128   63  187 1    
   129   63  188 1    
   130   64   65 am   BACKBONE|DICT|INTERRES
   131   64  189 1    
   132   65   66 2    
   133   67   68 2    
   134   67   69 am   BACKBONE|DICT|INTERRES
   135   69   70 1    
   136   69  190 1    
   137   70   71 1    
   138   70   72 1    
   139   70  191 1    
   140   71  192 1    
   141   71  193 1    
   142   71  194 1    
   143   72   73 2    
   144   72   74 am   BACKBONE|DICT|INTERRES
   145   74   75 1    
   146   74  195 1    
   147   75   76 1    
   148   75   77 1    
   149   75  196 1    
   150   76  197 1    
   151   76  198 1    
   152   76  199 1    
   153   77   78 2    
   154   77   79 am   BACKBONE|DICT|INTERRES
   155   79   80 1    
   156   79  200 1    
   157   80   81 1    
   158   80   82 1    
   159   80  201 1    
   160   81  202 1    
   161   81  203 1    
   162   81  204 1    
   163   82   83 2    
   164   82   84 am   BACKBONE|DICT|INTERRES
   165   84   85 1    
   166   84  205 1    
   167   85   86 1    
   168   85   87 1    
   169   85  206 1    
   170   86  207 1    
   171   86  208 1    
   172   86  209 1    
   173   87   88 2    
   174   87   89 am   BACKBONE|DICT|INTERRES
   175   89   90 1    
   176   89  210 1    
   177   90   91 1    
   178   90   92 1    
   179   90  211 1    
   180   91  212 1    
   181   91  213 1    
   182   91  214 1    
   183   92   93 2    
   184   92   94 am   BACKBONE|DICT|INTERRES
   185   94   95 1    
   186   94  215 1    
   187   95   96 1    
   188   95   97 1    
   189   95  216 1    
   190   96  217 1    
   191   96  218 1    
   192   96  219 1    
   193   97   98 2    
   194   97   99 am   BACKBONE|DICT|INTERRES
   195   99  100 1    
   196   99  220 1    
   197  100  101 1    
   198  100  102 1    
   199  100  221 1    
   200  101  222 1    
   201  101  223 1    
   202  101  224 1    
   203  102  103 2    
   204  102  104 am   BACKBONE|DICT|INTERRES
   205  104  105 1    
   206  104  225 1    
   207  105  106 1    
   208  105  107 1    
   209  105  226 1    
   210  106  227 1    
   211  106  228 1    
   212  106  229 1    
   213  107  108 2    
   214  107  109 am   BACKBONE|DICT|INTERRES
   215  109  110 1    
   216  109  230 1    
   217  110  111 1    
   218  110  112 1    
   219  110  231 1    
   220  111  232 1    
   221  111  233 1    
   222  111  234 1    
   223  112  113 2    
   224  112  114 am   BACKBONE|DICT|INTERRES
   225  114  115 1    
   226  114  235 1    
   227  115  116 1    
   228  115  117 1    
   229  115  236 1    
   230  116  237 1    
   231  116  238 1    
   232  116  239 1    
   233  117  118 2    
   234  117  119 am   BACKBONE|DICT|INTERRES
   235  119  120 1    
   236  119  240 1    
   237  120  121 1    
   238  120  124 1    
   239  120  241 1    
   240  121  122 am   BACKBONE|DICT|INTERRES
   241  121  123 2    
   242  122  242 1    
   243  122  243 1    
   244  124  125 1    
   245  124  244 1    
   246  124  245 1    
   247  125  126 1    
   248  126  246 1    
   249  126  247 1    
@<TRIPOS>SUBSTRUCTURE
     1 UNK         1 GROUP             0       ****    0 ROOT    
