@<TRIPOS>MOLECULE
3R540
247   249    1
SMALL
USER_CHARGES


@<TRIPOS>ATOM
      1 CA         -3.1863   -9.5773  -52.4851 C.3       0 UNK        -0.1800 
      2 C          -2.6595  -10.7125  -51.6192 C.2       0 UNK         0.5000 
      3 O          -2.3476  -11.7853  -52.1367 O.2       0 UNK        -0.5000 
      4 N          -2.5526  -10.4825  -50.3041 N.am      1 UNK        -0.5000 
      5 CA         -2.0432  -11.4354  -49.3138 C.3       1 UNK         0.1400 
      6 C6         -2.6504  -11.1636  -47.9119 C.3       23 UNK        -0.0398 
      7 S7         -2.5103  -12.5732  -46.7554 S.3       23 UNK        -0.2404 
      8 C8         -4.0203  -13.5389  -47.0979 C.3       23 UNK        -0.0205 
      9 C9         -3.6615  -14.8831  -47.7100 C.ar      23 UNK        -0.0193 
     10 C10        -3.4624  -14.9917  -49.0887 C.ar      23 UNK        -0.1150 
     11 C11        -3.0074  -16.1859  -49.6472 C.ar      23 UNK        -0.0193 
     12 C12        -2.8193  -17.2957  -48.8222 C.ar      23 UNK        -0.1150 
     13 C13        -3.0823  -17.2280  -47.4518 C.ar      23 UNK        -0.0193 
     14 C14        -3.4891  -16.0099  -46.8973 C.ar      23 UNK        -0.1150 
     15 C15        -2.9018  -18.4659  -46.5811 C.3       23 UNK        -0.0205 
     16 S16        -4.0756  -19.7777  -47.0472 S.3       23 UNK        -0.2404 
     17 C17        -3.6784  -21.1234  -45.8818 C.3       23 UNK        -0.0398 
     18 CA         -2.6035  -22.0819  -46.4545 C.3       11 UNK         0.1400 
     19 N          -1.2403  -21.6455  -46.1488 N.am      11 UNK        -0.5000 
     20 C          -0.1522  -22.1051  -46.7813 C.2       10 UNK         0.5000 
     21 O          -0.1895  -22.9401  -47.6859 O.2       10 UNK        -0.5000 
     22 CA          1.2058  -21.5806  -46.2856 C.3       10 UNK         0.1400 
     23 CB          1.4233  -20.1242  -46.7250 C.3       10 UNK        -0.1800 
     24 N           1.3604  -21.6880  -44.8336 N.am      10 UNK        -0.5000 
     25 C           1.3337  -22.8378  -44.1434 C.2       9 UNK         0.5000 
     26 O           1.1457  -23.9412  -44.6551 O.2       9 UNK        -0.5000 
     27 CA          1.5206  -22.7366  -42.6214 C.3       9 UNK         0.1400 
     28 CB          3.0047  -22.5731  -42.2592 C.3       9 UNK        -0.1800 
     29 N           0.7502  -21.6271  -42.0644 N.am      9 UNK        -0.5000 
     30 C          -0.5653  -21.6801  -41.8139 C.2       8 UNK         0.5000 
     31 O          -1.2519  -22.6867  -41.9770 O.2       8 UNK        -0.5000 
     32 CA         -1.2399  -20.3838  -41.3285 C.3       8 UNK         0.1400 
     33 CB         -1.1527  -20.2687  -39.7994 C.3       8 UNK        -0.1800 
     34 N          -0.6784  -19.1777  -41.9357 N.am      8 UNK        -0.5000 
     35 C          -0.7003  -18.9070  -43.2476 C.2       7 UNK         0.5000 
     36 O          -1.2015  -19.6458  -44.0943 O.2       7 UNK        -0.5000 
     37 CA          0.0036  -17.6164  -43.6927 C.3       7 UNK         0.1400 
     38 CB         -0.9461  -16.4196  -43.5347 C.3       7 UNK        -0.1800 
     39 N           1.2618  -17.3409  -42.9883 N.am      7 UNK        -0.5000 
     40 C           2.3029  -18.1823  -42.8878 C.2       6 UNK         0.5000 
     41 O           2.2982  -19.3301  -43.3383 O.2       6 UNK        -0.5000 
     42 CA          3.5387  -17.6510  -42.1301 C.3       6 UNK         0.1400 
     43 CB          4.7746  -18.5651  -42.2694 C.3       6 UNK        -0.1800 
     44 N           3.8634  -16.2615  -42.4750 N.am      6 UNK        -0.5000 
     45 C           4.2292  -15.7933  -43.6770 C.2       5 UNK         0.5000 
     46 O           4.3956  -16.4922  -44.6784 O.2       5 UNK        -0.5000 
     47 CA          4.4178  -14.2687  -43.7802 C.3       5 UNK         0.1400 
     48 CB          5.7630  -13.9072  -44.4313 C.3       5 UNK        -0.1800 
     49 N           3.3337  -13.6849  -44.5641 N.am      5 UNK        -0.5000 
     50 C           2.0638  -13.5795  -44.1503 C.2       4 UNK         0.5000 
     51 O           1.6909  -13.8529  -43.0081 O.2       4 UNK        -0.5000 
     52 CA          1.0341  -13.1168  -45.2008 C.3       4 UNK         0.1400 
     53 CB          0.9601  -11.5828  -45.2274 C.3       4 UNK        -0.1800 
     54 N           1.2949  -13.6245  -46.5544 N.am      4 UNK        -0.5000 
     55 C           1.3876  -14.9235  -46.8852 C.2       3 UNK         0.5000 
     56 O           1.2470  -15.8319  -46.0707 O.2       3 UNK        -0.5000 
     57 CA          1.6825  -15.2867  -48.3546 C.3       3 UNK         0.1400 
     58 CB          0.9588  -16.5783  -48.7721 C.3       3 UNK        -0.1800 
     59 N           1.3153  -14.2226  -49.2862 N.am      3 UNK        -0.5000 
     60 C           2.1139  -13.2283  -49.6922 C.2       2 UNK         0.5000 
     61 O           3.2779  -13.0878  -49.3176 O.2       2 UNK        -0.5000 
     62 CA          1.4893  -12.1983  -50.6526 C.3       2 UNK         0.1400 
     63 CB          1.7328  -12.6050  -52.1137 C.3       2 UNK        -0.1800 
     64 N           0.0511  -12.0235  -50.4367 N.am      2 UNK        -0.5000 
     65 C          -0.4998  -11.4721  -49.3473 C.2       1 UNK         0.5000 
     66 O           0.1618  -10.9896  -48.4281 O.2       1 UNK        -0.5000 
     67 C          -2.8498  -23.5458  -46.0364 C.2       11 UNK         0.5000 
     68 O          -3.5976  -24.2328  -46.7298 O.2       11 UNK        -0.5000 
     69 N          -2.2056  -24.0277  -44.9618 N.am      12 UNK        -0.5000 
     70 CA         -2.2667  -25.4365  -44.5583 C.3       12 UNK         0.1400 
     71 CB         -1.6693  -25.6288  -43.1575 C.3       12 UNK        -0.1800 
     72 C          -1.5836  -26.3640  -45.5782 C.2       12 UNK         0.5000 
     73 O          -2.1658  -27.3823  -45.9523 O.2       12 UNK        -0.5000 
     74 N          -0.3919  -25.9703  -46.0504 N.am      13 UNK        -0.5000 
     75 CA          0.3721  -26.6753  -47.0829 C.3       13 UNK         0.1400 
     76 CB          1.7527  -26.0189  -47.2333 C.3       13 UNK        -0.1800 
     77 C          -0.3554  -26.7327  -48.4401 C.2       13 UNK         0.5000 
     78 O          -0.2781  -27.7502  -49.1293 O.2       13 UNK        -0.5000 
     79 N          -1.0768  -25.6564  -48.7793 N.am      14 UNK        -0.5000 
     80 CA         -1.9110  -25.5516  -49.9776 C.3       14 UNK         0.1400 
     81 CB         -2.0517  -24.0687  -50.3457 C.3       14 UNK        -0.1800 
     82 C          -3.2989  -26.2114  -49.8320 C.2       14 UNK         0.5000 
     83 O          -4.0576  -26.2077  -50.8004 O.2       14 UNK        -0.5000 
     84 N          -3.6234  -26.7463  -48.6449 N.am      15 UNK        -0.5000 
     85 CA         -4.8934  -27.3856  -48.2806 C.3       15 UNK         0.1400 
     86 CB         -5.0903  -28.7026  -49.0605 C.3       15 UNK        -0.1800 
     87 C          -6.0965  -26.4234  -48.3898 C.2       15 UNK         0.5000 
     88 O          -7.1203  -26.7633  -48.9848 O.2       15 UNK        -0.5000 
     89 N          -5.9265  -25.2281  -47.8087 N.am      16 UNK        -0.5000 
     90 CA         -6.8691  -24.1083  -47.7127 C.3       16 UNK         0.1400 
     91 CB         -8.1932  -24.5320  -47.0435 C.3       16 UNK        -0.1800 
     92 C          -7.0896  -23.3398  -49.0312 C.2       16 UNK         0.5000 
     93 O          -7.9658  -22.4743  -49.0834 O.2       16 UNK        -0.5000 
     94 N          -6.2831  -23.6208  -50.0639 N.am      17 UNK        -0.5000 
     95 CA         -6.2827  -22.8979  -51.3334 C.3       17 UNK         0.1400 
     96 CB         -5.7138  -23.8011  -52.4384 C.3       17 UNK        -0.1800 
     97 C          -5.5109  -21.5719  -51.1977 C.2       17 UNK         0.5000 
     98 O          -4.3482  -21.4775  -51.6062 O.2       17 UNK        -0.5000 
     99 N          -6.1829  -20.5619  -50.6289 N.am      18 UNK        -0.5000 
    100 CA        -5.7097  -19.1890  -50.4139 C.3       18 UNK         0.1400 
    101 CB        -6.6308  -18.5022  -49.3901 C.3       18 UNK        -0.1800 
    102 C         -5.5741  -18.3778  -51.7237 C.2       18 UNK         0.5000 
    103 O         -6.0940  -17.2672  -51.8395 O.2       18 UNK        -0.5000 
    104 N         -4.8694  -18.9671  -52.6889 N.am      19 UNK        -0.5000 
    105 CA        -4.5376  -18.4369  -54.0037 C.3       19 UNK         0.1400 
    106 CB        -5.7374  -18.5444  -54.9607 C.3       19 UNK        -0.1800 
    107 C         -3.3204  -19.2056  -54.5298 C.2       19 UNK         0.5000 
    108 O         -2.3396  -18.5829  -54.9322 O.2       19 UNK        -0.5000 
    109 N         -3.3685  -20.5449  -54.4353 N.am      20 UNK        -0.5000 
    110 CA        -2.2486  -21.4444  -54.7285 C.3       20 UNK         0.1400 
    111 CB        -2.7380  -22.8993  -54.7035 C.3       20 UNK        -0.1800 
    112 C         -1.0770  -21.2513  -53.7485 C.2       20 UNK         0.5000 
    113 O          0.0791  -21.2580  -54.1721 O.2       20 UNK        -0.5000 
    114 N         -1.4034  -21.0024  -52.4710 N.am      21 UNK        -0.5000 
    115 CA        -0.4643  -20.6207  -51.4102 C.3       21 UNK         0.1400 
    116 CB        -1.2378  -20.5054  -50.0869 C.3       21 UNK        -0.1800 
    117 C          0.3239  -19.3229  -51.6964 C.2       21 UNK         0.5000 
    118 O          1.4386  -19.1741  -51.1962 O.2       21 UNK        -0.5000 
    119 N         -0.2552  -18.4309  -52.5100 N.am      22 UNK        -0.5000 
    120 CA         0.3740  -17.2024  -53.0192 C.3       22 UNK         0.1400 
    121 C          1.1395  -17.4070  -54.3619 C.2       22 UNK         0.5000 
    122 N          1.2261  -18.6089  -54.9211 N.am      22 UNK        -0.7600 
    123 O          1.6941  -16.4541  -54.9026 O.2       22 UNK        -0.5000 
    124 C124       -0.6543  -16.0415  -53.1094 C.3       23 UNK        -0.0398 
    125 S125       -1.1057  -15.4078  -51.4614 S.3       23 UNK        -0.2404 
    126 C126       -2.6766  -16.2598  -51.1290 C.3       23 UNK        -0.0205 
    127 H127       -3.4225   -8.6919  -51.8942 H         1 UNK         0.0600 
    128 H128       -4.0919   -9.8914  -53.0042 H         1 UNK         0.0600 
    129 H129       -2.4426   -9.2998  -53.2320 H         1 UNK         0.0600 
    130 H130       -2.7926   -9.5685  -49.9466 H         1 UNK         0.3000 
    131 H131       -2.3724  -12.4261  -49.6177 H         1 UNK         0.0600 
    132 H132       -3.7073  -10.9111  -48.0051 H         1 UNK         0.0800 
    133 H133       -2.1872  -10.2893  -47.4514 H         1 UNK         0.0800 
    134 H134       -4.6935  -12.9943  -47.7610 H         1 UNK         0.0800 
    135 H135       -4.5654  -13.6856  -46.1644 H         1 UNK         0.0800 
    136 H136       -3.6228  -14.1395  -49.7304 H         1 UNK         0.1150 
    137 H137       -2.4636  -18.2180  -49.2432 H         1 UNK         0.1150 
    138 H138       -3.6576  -15.9328  -45.8326 H         1 UNK         0.1150 
    139 H139       -1.8804  -18.8334  -46.6873 H         1 UNK         0.0800 
    140 H140       -3.0436  -18.2207  -45.5282 H         1 UNK         0.0800 
    141 H141       -4.6200  -21.6483  -45.7093 H         1 UNK         0.0800 
    142 H142       -3.3900  -20.7197  -44.9114 H         1 UNK         0.0800 
    143 H143       -2.7027  -22.0807  -47.5424 H         1 UNK         0.0600 
    144 H144       -1.1350  -20.9619  -45.4016 H         1 UNK         0.3000 
    145 H145        1.9847  -22.1930  -46.7444 H         1 UNK         0.0600 
    146 H146        2.3980  -19.7549  -46.4052 H         1 UNK         0.0600 
    147 H147        1.3811  -20.0348  -47.8113 H         1 UNK         0.0600 
    148 H148        0.6647  -19.4594  -46.3125 H         1 UNK         0.0600 
    149 H149        1.5481  -20.8259  -44.3294 H         1 UNK         0.3000 
    150 H150        1.1702  -23.6701  -42.1755 H         1 UNK         0.0600 
    151 H151        3.5877  -23.4199  -42.6234 H         1 UNK         0.0600 
    152 H152        3.1439  -22.5228  -41.1793 H         1 UNK         0.0600 
    153 H153        3.4339  -21.6708  -42.6952 H         1 UNK         0.0600 
    154 H154        1.2273  -20.7388  -41.9882 H         1 UNK         0.3000 
    155 H155       -2.2941  -20.4369  -41.6087 H         1 UNK         0.0600 
    156 H156       -0.1198  -20.1816  -39.4600 H         1 UNK         0.0600 
    157 H157       -1.5839  -21.1470  -39.3170 H         1 UNK         0.0600 
    158 H158       -1.7008  -19.3989  -39.4370 H         1 UNK         0.0600 
    159 H159       -0.2336  -18.5174  -41.3155 H         1 UNK         0.3000 
    160 H160        0.2381  -17.7352  -44.7502 H         1 UNK         0.0600 
    161 H161       -1.1834  -16.2262  -42.4881 H         1 UNK         0.0600 
    162 H162       -1.8858  -16.5906  -44.0605 H         1 UNK         0.0600 
    163 H163       -0.5079  -15.5147  -43.9503 H         1 UNK         0.0600 
    164 H164        1.3701  -16.4043  -42.6246 H         1 UNK         0.3000 
    165 H165        3.2610  -17.6436  -41.0753 H         1 UNK         0.0600 
    166 H166        5.0699  -18.6955  -43.3109 H         1 UNK         0.0600 
    167 H167        5.6285  -18.1608  -41.7259 H         1 UNK         0.0600 
    168 H168        4.5729  -19.5566  -41.8628 H         1 UNK         0.0600 
    169 H169        3.7278  -15.5908  -41.7309 H         1 UNK         0.3000 
    170 H170        4.4010  -13.8335  -42.7786 H         1 UNK         0.0600 
    171 H171        5.8312  -14.2776  -45.4551 H         1 UNK         0.0600 
    172 H172        5.9110  -12.8274  -44.4558 H         1 UNK         0.0600 
    173 H173        6.5940  -14.3368  -43.8706 H         1 UNK         0.0600 
    174 H174        3.5369  -13.4786  -45.5309 H         1 UNK         0.3000 
    175 H175        0.0572  -13.4919  -44.8931 H         1 UNK         0.0600 
    176 H176        1.8636  -11.1416  -45.6497 H         1 UNK         0.0600 
    177 H177        0.1104  -11.2399  -45.8160 H         1 UNK         0.0600 
    178 H178        0.8334  -11.1778  -44.2225 H         1 UNK         0.0600 
    179 H179        1.3909  -12.9326  -47.2844 H         1 UNK         0.3000 
    180 H180        2.7560  -15.4726  -48.4252 H         1 UNK         0.0600 
    181 H181       -0.1202  -16.4865  -48.6521 H         1 UNK         0.0600 
    182 H182        1.2852  -17.4285  -48.1727 H         1 UNK         0.0600 
    183 H183        1.1620  -16.8242  -49.8134 H         1 UNK         0.0600 
    184 H184        0.3710  -14.2532  -49.6456 H         1 UNK         0.3000 
    185 H185        1.9790  -11.2383  -50.4768 H         1 UNK         0.0600 
    186 H186        1.3360  -11.8592  -52.8027 H         1 UNK         0.0600 
    187 H187        2.7996  -12.7023  -52.3188 H         1 UNK         0.0600 
    188 H188        1.2656  -13.5616  -52.3493 H         1 UNK         0.0600 
    189 H189       -0.5698  -12.3354  -51.1764 H         1 UNK         0.3000 
    190 H190       -1.5974  -23.4221  -44.4284 H         1 UNK         0.3000 
    191 H191       -3.3187  -25.7259  -44.5086 H         1 UNK         0.0600 
    192 H192       -1.6681  -26.6819  -42.8738 H         1 UNK         0.0600 
    193 H193       -2.2536  -25.0964  -42.4075 H         1 UNK         0.0600 
    194 H194       -0.6408  -25.2731  -43.1008 H         1 UNK         0.0600 
    195 H195        0.0379  -25.1337  -45.6631 H         1 UNK         0.3000 
    196 H196        0.5187  -27.7026  -46.7435 H         1 UNK         0.0600 
    197 H197        1.6709  -24.9748  -47.5372 H         1 UNK         0.0600 
    198 H198        2.3075  -26.0503  -46.2954 H         1 UNK         0.0600 
    199 H199        2.3523  -26.5349  -47.9841 H         1 UNK         0.0600 
    200 H200       -1.0314  -24.8369  -48.1835 H         1 UNK         0.3000 
    201 H201       -1.4023  -26.0530  -50.8034 H         1 UNK         0.0600 
    202 H202       -2.5758  -23.9410  -51.2922 H         1 UNK         0.0600 
    203 H203       -2.6057  -23.5182  -49.5848 H         1 UNK         0.0600 
    204 H204       -1.0719  -23.6060  -50.4613 H         1 UNK         0.0600 
    205 H205       -2.9413  -26.6901  -47.8987 H         1 UNK         0.3000 
    206 H206       -4.8085  -27.6439  -47.2241 H         1 UNK         0.0600 
    207 H207       -4.2331  -29.3644  -48.9369 H         1 UNK         0.0600 
    208 H208       -5.9689  -29.2397  -48.7016 H         1 UNK         0.0600 
    209 H209       -5.2286  -28.5284  -50.1279 H         1 UNK         0.0600 
    210 H210       -5.0147  -25.0315  -47.3940 H         1 UNK         0.3000 
    211 H211       -6.3899  -23.3927  -47.0431 H         1 UNK         0.0600 
    212 H212       -8.8063  -23.6620  -46.8061 H         1 UNK         0.0600 
    213 H213       -8.0116  -25.0627  -46.1090 H         1 UNK         0.0600 
    214 H214       -8.7875  -25.1787  -47.6892 H         1 UNK         0.0600 
    215 H215       -5.5878  -24.3459  -49.9541 H         1 UNK         0.3000 
    216 H216       -7.3118  -22.6606  -51.6117 H         1 UNK         0.0600 
    217 H217       -4.6866  -24.0947  -52.2323 H         1 UNK         0.0600 
    218 H218       -5.7237  -23.2926  -53.4031 H         1 UNK         0.0600 
    219 H219       -6.3031  -24.7121  -52.5439 H         1 UNK         0.0600 
    220 H220       -7.1154  -20.7627  -50.2898 H         1 UNK         0.3000 
    221 H221       -4.7121  -19.2473  -49.9762 H         1 UNK         0.0600 
    222 H222       -6.6972  -19.0790  -48.4677 H         1 UNK         0.0600 
    223 H223       -7.6418  -18.3758  -49.7789 H         1 UNK         0.0600 
    224 H224       -6.2498  -17.5147  -49.1249 H         1 UNK         0.0600 
    225 H225       -4.4846  -19.8813  -52.4650 H         1 UNK         0.3000 
    226 H226       -4.2561  -17.3867  -53.9006 H         1 UNK         0.0600 
    227 H227       -6.0856  -19.5731  -55.0599 H         1 UNK         0.0600 
    228 H228       -6.5756  -17.9414  -54.6116 H         1 UNK         0.0600 
    229 H229       -5.4740  -18.1869  -55.9569 H         1 UNK         0.0600 
    230 H230       -4.2128  -20.9841  -54.0998 H         1 UNK         0.3000 
    231 H231       -1.8878  -21.2189  -55.7342 H         1 UNK         0.0600 
    232 H232       -3.0835  -23.1881  -53.7113 H         1 UNK         0.0600 
    233 H233       -1.9359  -23.5842  -54.9816 H         1 UNK         0.0600 
    234 H234       -3.5572  -23.0554  -55.4055 H         1 UNK         0.0600 
    235 H235       -2.3783  -21.0762  -52.2033 H         1 UNK         0.3000 
    236 H236        0.2723  -21.4201  -51.3076 H         1 UNK         0.0600 
    237 H237       -1.3915  -21.4808  -49.6347 H         1 UNK         0.0600 
    238 H238       -0.7067  -19.9004  -49.3504 H         1 UNK         0.0600 
    239 H239       -2.2236  -20.0706  -50.2414 H         1 UNK         0.0600 
    240 H240       -1.1390  -18.6699  -52.9349 H         1 UNK         0.3000 
    241 H241        1.1474  -16.8926  -52.3140 H         1 UNK         0.0600 
    242 H242        1.7344  -18.7098  -55.7850 H         1 UNK         0.3800 
    243 H243        0.7941  -19.4246  -54.5021 H         1 UNK         0.3800 
    244 H244       -1.5478  -16.3441  -53.6563 H         1 UNK         0.0800 
    245 H245       -0.2408  -15.1945  -53.6591 H         1 UNK         0.0800 
    246 H246       -2.6070  -17.2997  -51.4487 H         1 UNK         0.0800 
    247 H247       -3.4747  -15.8019  -51.7152 H         1 UNK         0.0800 
@<TRIPOS>BOND
     1    1    2 1    
     2    1  127 1    
     3    1  128 1    
     4    1  129 1    
     5    2    3 2    
     6    2    4 am   BACKBONE|DICT|INTERRES
     7    4    5 1    
     8    4  130 1    
     9    5    6 1    
    10    5   65 1    
    11    5  131 1    
    12    6    7 1    
    13    6  132 1    
    14    6  133 1    
    15    7    8 1    
    16    8    9 1    
    17    8  134 1    
    18    8  135 1    
    19    9   10 ar   
    20    9   14 ar   
    21   10   11 ar   
    22   10  136 1    
    23   11   12 ar   
    24   11  126 1    
    25   12   13 ar   
    26   12  137 1    
    27   13   14 ar   
    28   13   15 1    
    29   14  138 1    
    30   15   16 1    
    31   15  139 1    
    32   15  140 1    
    33   16   17 1    
    34   17   18 1    
    35   17  141 1    
    36   17  142 1    
    37   18   19 1    
    38   18   67 1    
    39   18  143 1    
    40   19   20 am   BACKBONE|DICT|INTERRES
    41   19  144 1    
    42   20   21 2    
    43   20   22 1    
    44   22   23 1    
    45   22   24 1    
    46   22  145 1    
    47   23  146 1    
    48   23  147 1    
    49   23  148 1    
    50   24   25 am   BACKBONE|DICT|INTERRES
    51   24  149 1    
    52   25   26 2    
    53   25   27 1    
    54   27   28 1    
    55   27   29 1    
    56   27  150 1    
    57   28  151 1    
    58   28  152 1    
    59   28  153 1    
    60   29   30 am   BACKBONE|DICT|INTERRES
    61   29  154 1    
    62   30   31 2    
    63   30   32 1    
    64   32   33 1    
    65   32   34 1    
    66   32  155 1    
    67   33  156 1    
    68   33  157 1    
    69   33  158 1    
    70   34   35 am   BACKBONE|DICT|INTERRES
    71   34  159 1    
    72   35   36 2    
    73   35   37 1    
    74   37   38 1    
    75   37   39 1    
    76   37  160 1    
    77   38  161 1    
    78   38  162 1    
    79   38  163 1    
    80   39   40 am   BACKBONE|DICT|INTERRES
    81   39  164 1    
    82   40   41 2    
    83   40   42 1    
    84   42   43 1    
    85   42   44 1    
    86   42  165 1    
    87   43  166 1    
    88   43  167 1    
    89   43  168 1    
    90   44   45 am   BACKBONE|DICT|INTERRES
    91   44  169 1    
    92   45   46 2    
    93   45   47 1    
    94   47   48 1    
    95   47   49 1    
    96   47  170 1    
    97   48  171 1    
    98   48  172 1    
    99   48  173 1    
   100   49   50 am   BACKBONE|DICT|INTERRES
   101   49  174 1    
   102   50   51 2    
   103   50   52 1    
   104   52   53 1    
   105   52   54 1    
   106   52  175 1    
   107   53  176 1    
   108   53  177 1    
   109   53  178 1    
   110   54   55 am   BACKBONE|DICT|INTERRES
   111   54  179 1    
   112   55   56 2    
   113   55   57 1    
   114   57   58 1    
   115   57   59 1    
   116   57  180 1    
   117   58  181 1    
   118   58  182 1    
   119   58  183 1    
   120   59   60 am   BACKBONE|DICT|INTERRES
   121   59  184 1    
   122   60   61 2    
   123   60   62 1    
   124   62   63 1    
   125   62   64 1    
   126   62  185 1    
   127   63  186 1    
   128   63  187 1    
   129   63  188 1    
   130   64   65 am   BACKBONE|DICT|INTERRES
   131   64  189 1    
   132   65   66 2    
   133   67   68 2    
   134   67   69 am   BACKBONE|DICT|INTERRES
   135   69   70 1    
   136   69  190 1    
   137   70   71 1    
   138   70   72 1    
   139   70  191 1    
   140   71  192 1    
   141   71  193 1    
   142   71  194 1    
   143   72   73 2    
   144   72   74 am   BACKBONE|DICT|INTERRES
   145   74   75 1    
   146   74  195 1    
   147   75   76 1    
   148   75   77 1    
   149   75  196 1    
   150   76  197 1    
   151   76  198 1    
   152   76  199 1    
   153   77   78 2    
   154   77   79 am   BACKBONE|DICT|INTERRES
   155   79   80 1    
   156   79  200 1    
   157   80   81 1    
   158   80   82 1    
   159   80  201 1    
   160   81  202 1    
   161   81  203 1    
   162   81  204 1    
   163   82   83 2    
   164   82   84 am   BACKBONE|DICT|INTERRES
   165   84   85 1    
   166   84  205 1    
   167   85   86 1    
   168   85   87 1    
   169   85  206 1    
   170   86  207 1    
   171   86  208 1    
   172   86  209 1    
   173   87   88 2    
   174   87   89 am   BACKBONE|DICT|INTERRES
   175   89   90 1    
   176   89  210 1    
   177   90   91 1    
   178   90   92 1    
   179   90  211 1    
   180   91  212 1    
   181   91  213 1    
   182   91  214 1    
   183   92   93 2    
   184   92   94 am   BACKBONE|DICT|INTERRES
   185   94   95 1    
   186   94  215 1    
   187   95   96 1    
   188   95   97 1    
   189   95  216 1    
   190   96  217 1    
   191   96  218 1    
   192   96  219 1    
   193   97   98 2    
   194   97   99 am   BACKBONE|DICT|INTERRES
   195   99  100 1    
   196   99  220 1    
   197  100  101 1    
   198  100  102 1    
   199  100  221 1    
   200  101  222 1    
   201  101  223 1    
   202  101  224 1    
   203  102  103 2    
   204  102  104 am   BACKBONE|DICT|INTERRES
   205  104  105 1    
   206  104  225 1    
   207  105  106 1    
   208  105  107 1    
   209  105  226 1    
   210  106  227 1    
   211  106  228 1    
   212  106  229 1    
   213  107  108 2    
   214  107  109 am   BACKBONE|DICT|INTERRES
   215  109  110 1    
   216  109  230 1    
   217  110  111 1    
   218  110  112 1    
   219  110  231 1    
   220  111  232 1    
   221  111  233 1    
   222  111  234 1    
   223  112  113 2    
   224  112  114 am   BACKBONE|DICT|INTERRES
   225  114  115 1    
   226  114  235 1    
   227  115  116 1    
   228  115  117 1    
   229  115  236 1    
   230  116  237 1    
   231  116  238 1    
   232  116  239 1    
   233  117  118 2    
   234  117  119 am   BACKBONE|DICT|INTERRES
   235  119  120 1    
   236  119  240 1    
   237  120  121 1    
   238  120  124 1    
   239  120  241 1    
   240  121  122 am   BACKBONE|DICT|INTERRES
   241  121  123 2    
   242  122  242 1    
   243  122  243 1    
   244  124  125 1    
   245  124  244 1    
   246  124  245 1    
   247  125  126 1    
   248  126  246 1    
   249  126  247 1    
@<TRIPOS>SUBSTRUCTURE
     1 UNK         1 GROUP             0       ****    0 ROOT    
