@<TRIPOS>MOLECULE
3R540
247   249    1
SMALL
USER_CHARGES


@<TRIPOS>ATOM
      1 CA         -4.9729  -16.5005  -42.3042 C.3       0 UNK        -0.1800 
      2 C          -3.7655  -17.3998  -42.5670 C.2       0 UNK         0.5000 
      3 O          -3.4037  -18.1825  -41.6916 O.2       0 UNK        -0.5000 
      4 N          -3.1268  -17.3526  -43.7455 N.am      1 UNK        -0.5000 
      5 CA         -3.3546  -16.4321  -44.8649 C.3       1 UNK         0.1400 
      6 C6         -2.4961  -16.8414  -46.0863 C.3       23 UNK        -0.0398 
      7 S7         -2.9975  -15.9933  -47.6250 S.3       23 UNK        -0.2404 
      8 C8         -1.4100  -15.3439  -48.2261 C.3       23 UNK        -0.0205 
      9 C9         -0.6429  -16.3866  -49.0248 C.ar      23 UNK        -0.0193 
     10 C10        -0.8187  -16.4822  -50.4081 C.ar      23 UNK        -0.1150 
     11 C11        -0.1020  -17.4245  -51.1521 C.ar      23 UNK        -0.0193 
     12 C12         0.7874  -18.2835  -50.4994 C.ar      23 UNK        -0.1150 
     13 C13         0.9741  -18.1961  -49.1171 C.ar      23 UNK        -0.0193 
     14 C14         0.2572  -17.2433  -48.3876 C.ar      23 UNK        -0.1150 
     15 C15         1.9558  -19.1227  -48.4119 C.3       23 UNK        -0.0205 
     16 S16         1.4354  -20.8674  -48.4702 S.3       23 UNK        -0.2404 
     17 C17        -0.2541  -20.7567  -47.7989 C.3       23 UNK        -0.0398 
     18 CA         -0.7238  -22.0844  -47.1665 C.3       11 UNK         0.1400 
     19 N          -0.0100  -22.4053  -45.9272 N.am      11 UNK        -0.5000 
     20 C          -0.1169  -23.5644  -45.2632 C.2       10 UNK         0.5000 
     21 O          -0.8063  -24.5079  -45.6442 O.2       10 UNK        -0.5000 
     22 CA          0.6138  -23.6675  -43.9155 C.3       10 UNK         0.1400 
     23 CB          2.0937  -24.0245  -44.1117 C.3       10 UNK        -0.1800 
     24 N           0.4941  -22.4373  -43.1345 N.am      10 UNK        -0.5000 
     25 C          -0.6474  -22.0002  -42.5851 C.2       9 UNK         0.5000 
     26 O          -1.7184  -22.6013  -42.6685 O.2       9 UNK        -0.5000 
     27 CA         -0.5874  -20.6503  -41.8491 C.3       9 UNK         0.1400 
     28 CB         -0.1171  -20.8435  -40.4000 C.3       9 UNK        -0.1800 
     29 N           0.2854  -19.6852  -42.5194 N.am      9 UNK        -0.5000 
     30 C          -0.0096  -19.0988  -43.6863 C.2       8 UNK         0.5000 
     31 O          -1.0528  -19.2969  -44.3117 O.2       8 UNK        -0.5000 
     32 CA          1.0505  -18.1470  -44.2695 C.3       8 UNK         0.1400 
     33 CB          0.9538  -16.7709  -43.5938 C.3       8 UNK        -0.1800 
     34 N           2.4344  -18.6379  -44.2097 N.am      8 UNK        -0.5000 
     35 C           2.8559  -19.8288  -44.6670 C.2       7 UNK         0.5000 
     36 O           2.0909  -20.6864  -45.1042 O.2       7 UNK        -0.5000 
     37 CA          4.3710  -20.1081  -44.6599 C.3       7 UNK         0.1400 
     38 CB          4.7889  -21.0547  -45.8009 C.3       7 UNK        -0.1800 
     39 N           5.1358  -18.8700  -44.7879 N.am      7 UNK        -0.5000 
     40 C           6.0626  -18.4277  -43.9302 C.2       6 UNK         0.5000 
     41 O           6.3799  -19.0166  -42.8963 O.2       6 UNK        -0.5000 
     42 CA          6.7555  -17.0961  -44.2882 C.3       6 UNK         0.1400 
     43 CB          8.1481  -17.3606  -44.8815 C.3       6 UNK        -0.1800 
     44 N           5.9936  -16.2589  -45.2230 N.am      6 UNK        -0.5000 
     45 C           4.8282  -15.6684  -44.9319 C.2       5 UNK         0.5000 
     46 O           4.2470  -15.8062  -43.8529 O.2       5 UNK        -0.5000 
     47 CA          4.1854  -14.8259  -46.0472 C.3       5 UNK         0.1400 
     48 CB          3.2188  -15.6792  -46.8851 C.3       5 UNK        -0.1800 
     49 N           3.4551  -13.6995  -45.4733 N.am      5 UNK        -0.5000 
     50 C           4.0219  -12.5876  -44.9920 C.2       4 UNK         0.5000 
     51 O           5.2236  -12.3390  -45.1109 O.2       4 UNK        -0.5000 
     52 CA          3.0903  -11.5926  -44.2613 C.3       4 UNK         0.1400 
     53 CB          3.7837  -10.2546  -43.9445 C.3       4 UNK        -0.1800 
     54 N           1.8488  -11.3133  -44.9899 N.am      4 UNK        -0.5000 
     55 C           0.7855  -12.1219  -45.0569 C.2       3 UNK         0.5000 
     56 O           0.7518  -13.2492  -44.5567 O.2       3 UNK        -0.5000 
     57 CA         -0.4254  -11.5976  -45.8367 C.3       3 UNK         0.1400 
     58 CB         -0.2500  -11.8230  -47.3491 C.3       3 UNK        -0.1800 
     59 N          -1.6156  -12.2828  -45.3436 N.am      3 UNK        -0.5000 
     60 C          -2.8659  -11.8177  -45.4099 C.2       2 UNK         0.5000 
     61 O          -3.1707  -10.7909  -46.0200 O.2       2 UNK        -0.5000 
     62 CA         -3.9490  -12.6226  -44.6569 C.3       2 UNK         0.1400 
     63 CB         -5.3700  -12.0840  -44.9058 C.3       2 UNK        -0.1800 
     64 N          -3.9340  -14.0507  -44.9785 N.am      2 UNK        -0.5000 
     65 C          -3.1080  -14.9623  -44.4522 C.2       1 UNK         0.5000 
     66 O          -2.1958  -14.6827  -43.6725 O.2       1 UNK        -0.5000 
     67 C          -2.2523  -22.0648  -46.9751 C.2       11 UNK         0.5000 
     68 O          -2.9733  -22.4737  -47.8861 O.2       11 UNK        -0.5000 
     69 N          -2.7242  -21.6126  -45.8056 N.am      12 UNK        -0.5000 
     70 CA         -4.1348  -21.6736  -45.4289 C.3       12 UNK         0.1400 
     71 CB         -4.4004  -20.7380  -44.2431 C.3       12 UNK        -0.1800 
     72 C          -4.5902  -23.1119  -45.1265 C.2       12 UNK         0.5000 
     73 O          -5.6326  -23.5298  -45.6300 O.2       12 UNK        -0.5000 
     74 N          -3.7907  -23.8529  -44.3450 N.am      13 UNK        -0.5000 
     75 CA         -4.0549  -25.2417  -43.9557 C.3       13 UNK         0.1400 
     76 CB         -3.0276  -25.6832  -42.9026 C.3       13 UNK        -0.1800 
     77 C          -4.0686  -26.2219  -45.1445 C.2       13 UNK         0.5000 
     78 O          -4.9403  -27.0894  -45.2079 O.2       13 UNK        -0.5000 
     79 N          -3.1222  -26.0501  -46.0766 N.am      14 UNK        -0.5000 
     80 CA         -3.0136  -26.8242  -47.3158 C.3       14 UNK         0.1400 
     81 CB         -1.5769  -26.7027  -47.8496 C.3       14 UNK        -0.1800 
     82 C          -4.0178  -26.3854  -48.4002 C.2       14 UNK         0.5000 
     83 O          -4.1467  -27.0774  -49.4103 O.2       14 UNK        -0.5000 
     84 N          -4.6786  -25.2368  -48.1896 N.am      15 UNK        -0.5000 
     85 CA         -5.6135  -24.5552  -49.0909 C.3       15 UNK         0.1400 
     86 CB         -6.8499  -25.4286  -49.3870 C.3       15 UNK        -0.1800 
     87 C          -4.9528  -24.0046  -50.3724 C.2       15 UNK         0.5000 
     88 O          -5.6573  -23.6661  -51.3223 O.2       15 UNK        -0.5000 
     89 N          -3.6208  -23.8603  -50.3639 N.am      16 UNK        -0.5000 
     90 CA         -2.8263  -23.2404  -51.4256 C.3       16 UNK         0.1400 
     91 CB         -1.3355  -23.4603  -51.1298 C.3       16 UNK        -0.1800 
     92 C          -3.1312  -21.7395  -51.5790 C.2       16 UNK         0.5000 
     93 O          -3.1277  -21.2250  -52.6981 O.2       16 UNK        -0.5000 
     94 N          -3.4346  -21.0782  -50.4533 N.am      17 UNK        -0.5000 
     95 CA         -3.9044  -19.6953  -50.4043 C.3       17 UNK         0.1400 
     96 CB         -3.9291  -19.2219  -48.9441 C.3       17 UNK        -0.1800 
     97 C          -5.2932  -19.5299  -51.0495 C.2       17 UNK         0.5000 
     98 O          -5.5038  -18.5842  -51.8082 O.2       17 UNK        -0.5000 
     99 N          -6.2025  -20.4715  -50.7578 N.am      18 UNK        -0.5000 
    100 CA        -7.5675  -20.5092  -51.2883 C.3       18 UNK         0.1400 
    101 CB        -8.4094  -21.4922  -50.4607 C.3       18 UNK        -0.1800 
    102 C         -7.6086  -20.8742  -52.7833 C.2       18 UNK         0.5000 
    103 O         -8.3924  -20.2904  -53.5323 O.2       18 UNK        -0.5000 
    104 N         -6.7388  -21.8070  -53.1942 N.am      19 UNK        -0.5000 
    105 CA        -6.5296  -22.2152  -54.5852 C.3       19 UNK         0.1400 
    106 CB        -5.7361  -23.5312  -54.5987 C.3       19 UNK        -0.1800 
    107 C         -5.8076  -21.1517  -55.4377 C.2       19 UNK         0.5000 
    108 O         -5.8199  -21.2617  -56.6643 O.2       19 UNK        -0.5000 
    109 N         -5.1915  -20.1600  -54.7767 N.am      20 UNK        -0.5000 
    110 CA        -4.3912  -19.0700  -55.3358 C.3       20 UNK         0.1400 
    111 CB        -5.2550  -18.1317  -56.2037 C.3       20 UNK        -0.1800 
    112 C         -3.1369  -19.5950  -56.0598 C.2       20 UNK         0.5000 
    113 O         -2.8690  -19.2199  -57.2035 O.2       20 UNK        -0.5000 
    114 N         -2.3739  -20.4483  -55.3598 N.am      21 UNK        -0.5000 
    115 CA        -1.1415  -21.0930  -55.8334 C.3       21 UNK         0.1400 
    116 CB        -0.6377  -22.0518  -54.7445 C.3       21 UNK        -0.1800 
    117 C         -0.0203  -20.1154  -56.2479 C.2       21 UNK         0.5000 
    118 O          0.8733  -20.4998  -57.0033 O.2       21 UNK        -0.5000 
    119 N         -0.1047  -18.8699  -55.7668 N.am      22 UNK        -0.5000 
    120 CA         0.7200  -17.7292  -56.1881 C.3       22 UNK         0.1400 
    121 C          0.4391  -17.2375  -57.6411 C.2       22 UNK         0.5000 
    122 N         -0.6607  -17.6170  -58.2831 N.am      22 UNK        -0.7600 
    123 O          1.2424  -16.4957  -58.2000 O.2       22 UNK        -0.5000 
    124 C124        0.5907  -16.5496  -55.1913 C.3       23 UNK        -0.0398 
    125 S125        1.2222  -16.9369  -53.5237 S.3       23 UNK        -0.2404 
    126 C126       -0.2782  -17.5061  -52.6602 C.3       23 UNK        -0.0205 
    127 H127       -4.6481  -15.5150  -41.9707 H         1 UNK         0.0600 
    128 H128       -5.5985  -16.3851  -43.1884 H         1 UNK         0.0600 
    129 H129       -5.5971  -16.9289  -41.5197 H         1 UNK         0.0600 
    130 H130       -2.3630  -18.0068  -43.8868 H         1 UNK         0.3000 
    131 H131       -4.4028  -16.5392  -45.1503 H         1 UNK         0.0600 
    132 H132       -1.4389  -16.6724  -45.8793 H         1 UNK         0.0800 
    133 H133       -2.5958  -17.9130  -46.2671 H         1 UNK         0.0800 
    134 H134       -0.8118  -14.9905  -47.3857 H         1 UNK         0.0800 
    135 H135       -1.6036  -14.4704  -48.8505 H         1 UNK         0.0800 
    136 H136       -1.5091  -15.8152  -50.9051 H         1 UNK         0.1150 
    137 H137        1.3433  -19.0144  -51.0699 H         1 UNK         0.1150 
    138 H138        0.4018  -17.1603  -47.3228 H         1 UNK         0.1150 
    139 H139        2.0856  -18.8270  -47.3710 H         1 UNK         0.0800 
    140 H140        2.9364  -19.0299  -48.8803 H         1 UNK         0.0800 
    141 H141       -0.9004  -20.4689  -48.6305 H         1 UNK         0.0800 
    142 H142       -0.3084  -19.9482  -47.0674 H         1 UNK         0.0800 
    143 H143       -0.5126  -22.8906  -47.8716 H         1 UNK         0.0600 
    144 H144        0.6366  -21.7008  -45.5770 H         1 UNK         0.3000 
    145 H145        0.1490  -24.4744  -43.3453 H         1 UNK         0.0600 
    146 H146        2.6036  -24.1374  -43.1549 H         1 UNK         0.0600 
    147 H147        2.1970  -24.9679  -44.6492 H         1 UNK         0.0600 
    148 H148        2.6199  -23.2636  -44.6856 H         1 UNK         0.0600 
    149 H149        1.3114  -21.8472  -43.0898 H         1 UNK         0.3000 
    150 H150       -1.5996  -20.2416  -41.8262 H         1 UNK         0.0600 
    151 H151        0.9015  -21.2304  -40.3529 H         1 UNK         0.0600 
    152 H152       -0.7613  -21.5482  -39.8723 H         1 UNK         0.0600 
    153 H153       -0.1462  -19.9034  -39.8488 H         1 UNK         0.0600 
    154 H154        1.1639  -19.4675  -42.0727 H         1 UNK         0.3000 
    155 H155        0.8074  -18.0224  -45.3236 H         1 UNK         0.0600 
    156 H156        1.2803  -16.8089  -42.5541 H         1 UNK         0.0600 
    157 H157       -0.0713  -16.3991  -43.6008 H         1 UNK         0.0600 
    158 H158        1.5627  -16.0273  -44.1053 H         1 UNK         0.0600 
    159 H159        3.1248  -17.9879  -43.8572 H         1 UNK         0.3000 
    160 H160        4.5895  -20.6001  -43.7104 H         1 UNK         0.0600 
    161 H161        4.5228  -20.6476  -46.7773 H         1 UNK         0.0600 
    162 H162        4.3061  -22.0271  -45.7100 H         1 UNK         0.0600 
    163 H163        5.8648  -21.2299  -45.7928 H         1 UNK         0.0600 
    164 H164        4.9425  -18.3088  -45.6043 H         1 UNK         0.3000 
    165 H165        6.8811  -16.5359  -43.3593 H         1 UNK         0.0600 
    166 H166        8.6836  -16.4286  -45.0635 H         1 UNK         0.0600 
    167 H167        8.0868  -17.9041  -45.8252 H         1 UNK         0.0600 
    168 H168        8.7577  -17.9551  -44.1997 H         1 UNK         0.0600 
    169 H169        6.4093  -16.1087  -46.1313 H         1 UNK         0.3000 
    170 H170        4.9695  -14.4423  -46.7036 H         1 UNK         0.0600 
    171 H171        3.7401  -16.5100  -47.3618 H         1 UNK         0.0600 
    172 H172        2.4184  -16.1005  -46.2781 H         1 UNK         0.0600 
    173 H173        2.7582  -15.0898  -47.6783 H         1 UNK         0.0600 
    174 H174        2.4709  -13.8424  -45.2704 H         1 UNK         0.3000 
    175 H175        2.8299  -12.0578  -43.3081 H         1 UNK         0.0600 
    176 H176        4.0881   -9.7344  -44.8535 H         1 UNK         0.0600 
    177 H177        3.1249   -9.5920  -43.3828 H         1 UNK         0.0600 
    178 H178        4.6768  -10.4079  -43.3373 H         1 UNK         0.0600 
    179 H179        1.8123  -10.4252  -45.4694 H         1 UNK         0.3000 
    180 H180       -0.5267  -10.5285  -45.6376 H         1 UNK         0.0600 
    181 H181       -0.0080  -12.8596  -47.5775 H         1 UNK         0.0600 
    182 H182        0.5634  -11.2103  -47.7390 H         1 UNK         0.0600 
    183 H183       -1.1496  -11.5559  -47.9036 H         1 UNK         0.0600 
    184 H184       -1.4269  -13.1152  -44.7897 H         1 UNK         0.3000 
    185 H185       -3.7398  -12.5049  -43.5915 H         1 UNK         0.0600 
    186 H186       -6.1083  -12.6345  -44.3223 H         1 UNK         0.0600 
    187 H187       -5.4498  -11.0354  -44.6162 H         1 UNK         0.0600 
    188 H188       -5.6499  -12.1581  -45.9574 H         1 UNK         0.0600 
    189 H189       -4.6160  -14.3511  -45.6604 H         1 UNK         0.3000 
    190 H190       -2.0757  -21.2575  -45.1148 H         1 UNK         0.3000 
    191 H191       -4.7311  -21.3133  -46.2699 H         1 UNK         0.0600 
    192 H192       -5.4360  -20.8094  -43.9087 H         1 UNK         0.0600 
    193 H193       -4.2249  -19.7032  -44.5305 H         1 UNK         0.0600 
    194 H194       -3.7608  -20.9637  -43.3897 H         1 UNK         0.0600 
    195 H195       -2.9659  -23.4208  -43.9387 H         1 UNK         0.3000 
    196 H196       -5.0441  -25.2709  -43.4943 H         1 UNK         0.0600 
    197 H197       -2.0112  -25.6514  -43.2953 H         1 UNK         0.0600 
    198 H198       -3.0661  -25.0428  -42.0212 H         1 UNK         0.0600 
    199 H199       -3.2206  -26.7043  -42.5717 H         1 UNK         0.0600 
    200 H200       -2.3961  -25.3532  -45.9169 H         1 UNK         0.3000 
    201 H201       -3.2081  -27.8750  -47.0915 H         1 UNK         0.0600 
    202 H202       -1.3327  -25.6731  -48.1147 H         1 UNK         0.0600 
    203 H203       -1.4355  -27.3137  -48.7420 H         1 UNK         0.0600 
    204 H204       -0.8510  -27.0384  -47.1087 H         1 UNK         0.0600 
    205 H205       -4.4991  -24.7532  -47.3195 H         1 UNK         0.3000 
    206 H206       -5.9603  -23.6790  -48.5415 H         1 UNK         0.0600 
    207 H207       -7.2983  -25.8010  -48.4659 H         1 UNK         0.0600 
    208 H208       -7.6170  -24.8584  -49.9114 H         1 UNK         0.0600 
    209 H209       -6.6025  -26.2865  -50.0124 H         1 UNK         0.0600 
    210 H210       -3.1377  -24.0755  -49.5029 H         1 UNK         0.3000 
    211 H211       -3.0707  -23.7338  -52.3680 H         1 UNK         0.0600 
    212 H212       -0.7135  -23.0583  -51.9295 H         1 UNK         0.0600 
    213 H213       -1.1027  -24.5215  -51.0403 H         1 UNK         0.0600 
    214 H214       -1.0318  -22.9703  -50.2048 H         1 UNK         0.0600 
    215 H215       -3.3943  -21.5850  -49.5740 H         1 UNK         0.3000 
    216 H216       -3.1997  -19.0701  -50.9573 H         1 UNK         0.0600 
    217 H217       -4.5055  -19.8942  -48.3084 H         1 UNK         0.0600 
    218 H218       -4.3821  -18.2337  -48.8660 H         1 UNK         0.0600 
    219 H219       -2.9218  -19.1504  -48.5349 H         1 UNK         0.0600 
    220 H220       -5.9306  -21.2322  -50.1547 H         1 UNK         0.3000 
    221 H221       -8.0027  -19.5138  -51.1768 H         1 UNK         0.0600 
    222 H222       -8.4270  -21.2090  -49.4081 H         1 UNK         0.0600 
    223 H223       -8.0256  -22.5100  -50.5286 H         1 UNK         0.0600 
    224 H224       -9.4426  -21.5088  -50.8098 H         1 UNK         0.0600 
    225 H225       -6.1931  -22.3052  -52.4952 H         1 UNK         0.3000 
    226 H226       -7.5053  -22.3964  -55.0404 H         1 UNK         0.0600 
    227 H227       -4.7467  -23.4049  -54.1581 H         1 UNK         0.0600 
    228 H228       -6.2547  -24.3114  -54.0412 H         1 UNK         0.0600 
    229 H229       -5.5982  -23.8967  -55.6170 H         1 UNK         0.0600 
    230 H230       -5.2239  -20.1944  -53.7670 H         1 UNK         0.3000 
    231 H231       -4.0333  -18.4893  -54.4842 H         1 UNK         0.0600 
    232 H232       -5.6157  -18.6254  -57.1064 H         1 UNK         0.0600 
    233 H233       -4.6836  -17.2574  -56.5175 H         1 UNK         0.0600 
    234 H234       -6.1216  -17.7712  -55.6494 H         1 UNK         0.0600 
    235 H235       -2.6787  -20.7078  -54.4231 H         1 UNK         0.3000 
    236 H236       -1.3996  -21.6805  -56.7165 H         1 UNK         0.0600 
    237 H237       -1.3901  -22.8018  -54.5000 H         1 UNK         0.0600 
    238 H238        0.2568  -22.5837  -55.0711 H         1 UNK         0.0600 
    239 H239       -0.3862  -21.5152  -53.8288 H         1 UNK         0.0600 
    240 H240       -0.8795  -18.6576  -55.1594 H         1 UNK         0.3000 
    241 H241        1.7601  -18.0606  -56.1803 H         1 UNK         0.0600 
    242 H242       -0.8182  -17.2893  -59.2228 H         1 UNK         0.3800 
    243 H243       -1.3504  -18.2225  -57.8469 H         1 UNK         0.3800 
    244 H244       -0.4431  -16.2063  -55.1284 H         1 UNK         0.0800 
    245 H245        1.1657  -15.6921  -55.5458 H         1 UNK         0.0800 
    246 H246       -1.1357  -16.9081  -52.9721 H         1 UNK         0.0800 
    247 H247       -0.4954  -18.5375  -52.9413 H         1 UNK         0.0800 
@<TRIPOS>BOND
     1    1    2 1    
     2    1  127 1    
     3    1  128 1    
     4    1  129 1    
     5    2    3 2    
     6    2    4 am   BACKBONE|DICT|INTERRES
     7    4    5 1    
     8    4  130 1    
     9    5    6 1    
    10    5   65 1    
    11    5  131 1    
    12    6    7 1    
    13    6  132 1    
    14    6  133 1    
    15    7    8 1    
    16    8    9 1    
    17    8  134 1    
    18    8  135 1    
    19    9   10 ar   
    20    9   14 ar   
    21   10   11 ar   
    22   10  136 1    
    23   11   12 ar   
    24   11  126 1    
    25   12   13 ar   
    26   12  137 1    
    27   13   14 ar   
    28   13   15 1    
    29   14  138 1    
    30   15   16 1    
    31   15  139 1    
    32   15  140 1    
    33   16   17 1    
    34   17   18 1    
    35   17  141 1    
    36   17  142 1    
    37   18   19 1    
    38   18   67 1    
    39   18  143 1    
    40   19   20 am   BACKBONE|DICT|INTERRES
    41   19  144 1    
    42   20   21 2    
    43   20   22 1    
    44   22   23 1    
    45   22   24 1    
    46   22  145 1    
    47   23  146 1    
    48   23  147 1    
    49   23  148 1    
    50   24   25 am   BACKBONE|DICT|INTERRES
    51   24  149 1    
    52   25   26 2    
    53   25   27 1    
    54   27   28 1    
    55   27   29 1    
    56   27  150 1    
    57   28  151 1    
    58   28  152 1    
    59   28  153 1    
    60   29   30 am   BACKBONE|DICT|INTERRES
    61   29  154 1    
    62   30   31 2    
    63   30   32 1    
    64   32   33 1    
    65   32   34 1    
    66   32  155 1    
    67   33  156 1    
    68   33  157 1    
    69   33  158 1    
    70   34   35 am   BACKBONE|DICT|INTERRES
    71   34  159 1    
    72   35   36 2    
    73   35   37 1    
    74   37   38 1    
    75   37   39 1    
    76   37  160 1    
    77   38  161 1    
    78   38  162 1    
    79   38  163 1    
    80   39   40 am   BACKBONE|DICT|INTERRES
    81   39  164 1    
    82   40   41 2    
    83   40   42 1    
    84   42   43 1    
    85   42   44 1    
    86   42  165 1    
    87   43  166 1    
    88   43  167 1    
    89   43  168 1    
    90   44   45 am   BACKBONE|DICT|INTERRES
    91   44  169 1    
    92   45   46 2    
    93   45   47 1    
    94   47   48 1    
    95   47   49 1    
    96   47  170 1    
    97   48  171 1    
    98   48  172 1    
    99   48  173 1    
   100   49   50 am   BACKBONE|DICT|INTERRES
   101   49  174 1    
   102   50   51 2    
   103   50   52 1    
   104   52   53 1    
   105   52   54 1    
   106   52  175 1    
   107   53  176 1    
   108   53  177 1    
   109   53  178 1    
   110   54   55 am   BACKBONE|DICT|INTERRES
   111   54  179 1    
   112   55   56 2    
   113   55   57 1    
   114   57   58 1    
   115   57   59 1    
   116   57  180 1    
   117   58  181 1    
   118   58  182 1    
   119   58  183 1    
   120   59   60 am   BACKBONE|DICT|INTERRES
   121   59  184 1    
   122   60   61 2    
   123   60   62 1    
   124   62   63 1    
   125   62   64 1    
   126   62  185 1    
   127   63  186 1    
   128   63  187 1    
   129   63  188 1    
   130   64   65 am   BACKBONE|DICT|INTERRES
   131   64  189 1    
   132   65   66 2    
   133   67   68 2    
   134   67   69 am   BACKBONE|DICT|INTERRES
   135   69   70 1    
   136   69  190 1    
   137   70   71 1    
   138   70   72 1    
   139   70  191 1    
   140   71  192 1    
   141   71  193 1    
   142   71  194 1    
   143   72   73 2    
   144   72   74 am   BACKBONE|DICT|INTERRES
   145   74   75 1    
   146   74  195 1    
   147   75   76 1    
   148   75   77 1    
   149   75  196 1    
   150   76  197 1    
   151   76  198 1    
   152   76  199 1    
   153   77   78 2    
   154   77   79 am   BACKBONE|DICT|INTERRES
   155   79   80 1    
   156   79  200 1    
   157   80   81 1    
   158   80   82 1    
   159   80  201 1    
   160   81  202 1    
   161   81  203 1    
   162   81  204 1    
   163   82   83 2    
   164   82   84 am   BACKBONE|DICT|INTERRES
   165   84   85 1    
   166   84  205 1    
   167   85   86 1    
   168   85   87 1    
   169   85  206 1    
   170   86  207 1    
   171   86  208 1    
   172   86  209 1    
   173   87   88 2    
   174   87   89 am   BACKBONE|DICT|INTERRES
   175   89   90 1    
   176   89  210 1    
   177   90   91 1    
   178   90   92 1    
   179   90  211 1    
   180   91  212 1    
   181   91  213 1    
   182   91  214 1    
   183   92   93 2    
   184   92   94 am   BACKBONE|DICT|INTERRES
   185   94   95 1    
   186   94  215 1    
   187   95   96 1    
   188   95   97 1    
   189   95  216 1    
   190   96  217 1    
   191   96  218 1    
   192   96  219 1    
   193   97   98 2    
   194   97   99 am   BACKBONE|DICT|INTERRES
   195   99  100 1    
   196   99  220 1    
   197  100  101 1    
   198  100  102 1    
   199  100  221 1    
   200  101  222 1    
   201  101  223 1    
   202  101  224 1    
   203  102  103 2    
   204  102  104 am   BACKBONE|DICT|INTERRES
   205  104  105 1    
   206  104  225 1    
   207  105  106 1    
   208  105  107 1    
   209  105  226 1    
   210  106  227 1    
   211  106  228 1    
   212  106  229 1    
   213  107  108 2    
   214  107  109 am   BACKBONE|DICT|INTERRES
   215  109  110 1    
   216  109  230 1    
   217  110  111 1    
   218  110  112 1    
   219  110  231 1    
   220  111  232 1    
   221  111  233 1    
   222  111  234 1    
   223  112  113 2    
   224  112  114 am   BACKBONE|DICT|INTERRES
   225  114  115 1    
   226  114  235 1    
   227  115  116 1    
   228  115  117 1    
   229  115  236 1    
   230  116  237 1    
   231  116  238 1    
   232  116  239 1    
   233  117  118 2    
   234  117  119 am   BACKBONE|DICT|INTERRES
   235  119  120 1    
   236  119  240 1    
   237  120  121 1    
   238  120  124 1    
   239  120  241 1    
   240  121  122 am   BACKBONE|DICT|INTERRES
   241  121  123 2    
   242  122  242 1    
   243  122  243 1    
   244  124  125 1    
   245  124  244 1    
   246  124  245 1    
   247  125  126 1    
   248  126  246 1    
   249  126  247 1    
@<TRIPOS>SUBSTRUCTURE
     1 UNK         1 GROUP             0       ****    0 ROOT    
