@<TRIPOS>MOLECULE
3R540
247   249    1
SMALL
USER_CHARGES


@<TRIPOS>ATOM
      1 CA         -0.8162  -15.8106  -49.7384 C.3       0 UNK        -0.1800 
      2 C          -0.0690  -14.4968  -49.5638 C.2       0 UNK         0.5000 
      3 O          -0.2898  -13.8069  -48.5686 O.2       0 UNK        -0.5000 
      4 N           0.7866  -14.1495  -50.5378 N.am      1 UNK        -0.5000 
      5 CA          1.5748  -12.9110  -50.6556 C.3       1 UNK         0.1400 
      6 C6          2.9898  -12.9792  -50.0030 C.3       23 UNK        -0.0398 
      7 S7          3.0475  -13.3619  -48.2126 S.3       23 UNK        -0.2404 
      8 C8          4.0639  -14.8781  -48.1699 C.3       23 UNK        -0.0205 
      9 C9          3.3216  -16.0792  -48.7366 C.ar      23 UNK        -0.0193 
     10 C10         3.4501  -16.4138  -50.0882 C.ar      23 UNK        -0.1150 
     11 C11         2.7060  -17.4612  -50.6323 C.ar      23 UNK        -0.0193 
     12 C12         1.8705  -18.2133  -49.8054 C.ar      23 UNK        -0.1150 
     13 C13         1.7597  -17.9132  -48.4457 C.ar      23 UNK        -0.0193 
     14 C14         2.4857  -16.8429  -47.9154 C.ar      23 UNK        -0.1150 
     15 C15         0.7979  -18.7060  -47.5797 C.3       23 UNK        -0.0205 
     16 S16         1.3659  -20.4143  -47.3141 S.3       23 UNK        -0.2404 
     17 C17        -0.1661  -21.1495  -46.6717 C.3       23 UNK        -0.0398 
     18 CA         -0.1615  -22.6917  -46.6865 C.3       11 UNK         0.1400 
     19 N           0.7503  -23.2130  -45.6708 N.am      11 UNK        -0.5000 
     20 C           1.0057  -24.5007  -45.4145 C.2       10 UNK         0.5000 
     21 O           0.5603  -25.4303  -46.0863 O.2       10 UNK        -0.5000 
     22 CA          1.8447  -24.7907  -44.1534 C.3       10 UNK         0.1400 
     23 CB          3.3030  -25.0798  -44.5360 C.3       10 UNK        -0.1800 
     24 N           1.8175  -23.7041  -43.1646 N.am      10 UNK        -0.5000 
     25 C           0.7307  -23.2214  -42.5461 C.2       9 UNK         0.5000 
     26 O          -0.4059  -23.6532  -42.7425 O.2       9 UNK        -0.5000 
     27 CA          0.9301  -22.0088  -41.6165 C.3       9 UNK         0.1400 
     28 CB          1.5474  -22.4244  -40.2680 C.3       9 UNK        -0.1800 
     29 N           1.6628  -20.8948  -42.2389 N.am      9 UNK        -0.5000 
     30 C           2.9520  -20.8306  -42.6119 C.2       8 UNK         0.5000 
     31 O           3.7470  -21.7588  -42.4574 O.2       8 UNK        -0.5000 
     32 CA          3.4397  -19.5437  -43.3120 C.3       8 UNK         0.1400 
     33 CB          4.0836  -19.8736  -44.6686 C.3       8 UNK        -0.1800 
     34 N           2.3699  -18.5647  -43.5254 N.am      8 UNK        -0.5000 
     35 C           2.0669  -17.5724  -42.6777 C.2       7 UNK         0.5000 
     36 O           2.6758  -17.3603  -41.6287 O.2       7 UNK        -0.5000 
     37 CA          0.8673  -16.6758  -43.0472 C.3       7 UNK         0.1400 
     38 CB          1.3373  -15.4285  -43.8110 C.3       7 UNK        -0.1800 
     39 N          -0.1849  -17.3379  -43.8253 N.am      7 UNK        -0.5000 
     40 C          -0.8967  -18.4033  -43.4380 C.2       6 UNK         0.5000 
     41 O          -0.6590  -19.0346  -42.4077 O.2       6 UNK        -0.5000 
     42 CA         -2.0631  -18.8299  -44.3579 C.3       6 UNK         0.1400 
     43 CB         -2.8307  -20.0435  -43.8026 C.3       6 UNK        -0.1800 
     44 N          -3.0084  -17.7465  -44.6310 N.am      6 UNK        -0.5000 
     45 C          -2.7920  -16.7308  -45.4755 C.2       5 UNK         0.5000 
     46 O          -1.7361  -16.5815  -46.0988 O.2       5 UNK        -0.5000 
     47 CA         -3.9290  -15.7117  -45.6244 C.3       5 UNK         0.1400 
     48 CB         -4.1630  -14.9379  -44.3130 C.3       5 UNK        -0.1800 
     49 N          -3.5742  -14.7764  -46.6804 N.am      5 UNK        -0.5000 
     50 C          -4.4208  -14.0377  -47.4042 C.2       4 UNK         0.5000 
     51 O          -5.6473  -14.0843  -47.2865 O.2       4 UNK        -0.5000 
     52 CA         -3.7588  -13.0491  -48.3882 C.3       4 UNK         0.1400 
     53 CB         -4.7417  -12.0170  -48.9779 C.3       4 UNK        -0.1800 
     54 N          -2.5975  -12.3834  -47.7856 N.am      4 UNK        -0.5000 
     55 C          -2.5772  -11.6294  -46.6750 C.2       3 UNK         0.5000 
     56 O          -3.5791  -11.2836  -46.0477 O.2       3 UNK        -0.5000 
     57 CA         -1.1890  -11.2023  -46.1693 C.3       3 UNK         0.1400 
     58 CB         -0.5545  -12.3204  -45.3260 C.3       3 UNK        -0.1800 
     59 N          -0.2840  -10.8450  -47.2607 N.am      3 UNK        -0.5000 
     60 C          -0.3633   -9.7064  -47.9645 C.2       2 UNK         0.5000 
     61 O          -1.2006   -8.8293  -47.7479 O.2       2 UNK        -0.5000 
     62 CA          0.6733   -9.4913  -49.0841 C.3       2 UNK         0.1400 
     63 CB          1.7633   -8.5103  -48.6242 C.3       2 UNK        -0.1800 
     64 N           1.3144  -10.7334  -49.5149 N.am      2 UNK        -0.5000 
     65 C           0.7632  -11.6284  -50.3445 C.2       1 UNK         0.5000 
     66 O          -0.3373  -11.4670  -50.8775 O.2       1 UNK        -0.5000 
     67 C          -1.6115  -23.2088  -46.5361 C.2       11 UNK         0.5000 
     68 O          -2.3036  -23.3399  -47.5465 O.2       11 UNK        -0.5000 
     69 N          -2.0508  -23.4855  -45.2975 N.am      12 UNK        -0.5000 
     70 CA         -3.3679  -24.0605  -45.0158 C.3       12 UNK         0.1400 
     71 CB         -3.7373  -23.8219  -43.5443 C.3       12 UNK        -0.1800 
     72 C          -3.4195  -25.5619  -45.3472 C.2       12 UNK         0.5000 
     73 O          -4.4388  -26.0378  -45.8467 O.2       12 UNK        -0.5000 
     74 N          -2.3109  -26.2727  -45.0907 N.am      13 UNK        -0.5000 
     75 CA         -2.1417  -27.6934  -45.4048 C.3       13 UNK         0.1400 
     76 CB         -0.9010  -28.2404  -44.6826 C.3       13 UNK        -0.1800 
     77 C          -2.0605  -27.9532  -46.9204 C.2       13 UNK         0.5000 
     78 O          -2.5354  -28.9900  -47.3853 O.2       13 UNK        -0.5000 
     79 N          -1.5255  -26.9824  -47.6741 N.am      14 UNK        -0.5000 
     80 CA         -1.4825  -26.9364  -49.1390 C.3       14 UNK         0.1400 
     81 CB         -0.3912  -25.9373  -49.5597 C.3       14 UNK        -0.1800 
     82 C          -2.8597  -26.6117  -49.7680 C.2       14 UNK         0.5000 
     83 O          -2.9708  -25.7059  -50.5983 O.2       14 UNK        -0.5000 
     84 N          -3.8967  -27.3398  -49.3257 N.am      15 UNK        -0.5000 
     85 CA         -5.3066  -27.2937  -49.7408 C.3       15 UNK         0.1400 
     86 CB         -5.4396  -27.8140  -51.1870 C.3       15 UNK        -0.1800 
     87 C          -5.9967  -25.9218  -49.5639 C.2       15 UNK         0.5000 
     88 O          -7.0604  -25.7013  -50.1440 O.2       15 UNK        -0.5000 
     89 N          -5.3598  -25.0123  -48.8110 N.am      16 UNK        -0.5000 
     90 CA         -5.6561  -23.5818  -48.6730 C.3       16 UNK         0.1400 
     91 CB         -7.0274  -23.3549  -48.0073 C.3       16 UNK        -0.1800 
     92 C          -5.4992  -22.7732  -49.9822 C.2       16 UNK         0.5000 
     93 O          -5.8102  -21.5829  -49.9935 O.2       16 UNK        -0.5000 
     94 N          -4.9854  -23.3952  -51.0534 N.am      17 UNK        -0.5000 
     95 CA         -4.7513  -22.7629  -52.3526 C.3       17 UNK         0.1400 
     96 CB         -4.5285  -23.8515  -53.4121 C.3       17 UNK        -0.1800 
     97 C          -3.5561  -21.7998  -52.3017 C.2       17 UNK         0.5000 
     98 O          -3.5845  -20.7382  -52.9312 O.2       17 UNK        -0.5000 
     99 N          -2.5412  -22.1745  -51.5109 N.am      18 UNK        -0.5000 
    100 CA        -1.3916  -21.3331  -51.2016 C.3       18 UNK         0.1400 
    101 CB        -0.3171  -22.1628  -50.4946 C.3       18 UNK        -0.1800 
    102 C         -1.7929  -20.1051  -50.3687 C.2       18 UNK         0.5000 
    103 O         -1.3587  -18.9975  -50.6784 O.2       18 UNK        -0.5000 
    104 N         -2.6567  -20.3255  -49.3666 N.am      19 UNK        -0.5000 
    105 CA        -3.2375  -19.2855  -48.5154 C.3       19 UNK         0.1400 
    106 CB        -4.0299  -19.9491  -47.3787 C.3       19 UNK        -0.1800 
    107 C         -4.1245  -18.2970  -49.2912 C.2       19 UNK         0.5000 
    108 O         -4.1148  -17.1068  -48.9815 O.2       19 UNK        -0.5000 
    109 N         -4.8688  -18.8091  -50.2801 N.am      20 UNK        -0.5000 
    110 CA        -5.7375  -18.0279  -51.1525 C.3       20 UNK         0.1400 
    111 CB        -6.6411  -18.9681  -51.9669 C.3       20 UNK        -0.1800 
    112 C         -4.9543  -17.0731  -52.0695 C.2       20 UNK         0.5000 
    113 O         -5.2001  -15.8666  -52.0232 O.2       20 UNK        -0.5000 
    114 N         -4.0468  -17.6176  -52.8943 N.am      21 UNK        -0.5000 
    115 CA        -3.3537  -16.8533  -53.9360 C.3       21 UNK         0.1400 
    116 CB        -4.3359  -16.4960  -55.0769 C.3       21 UNK        -0.1800 
    117 C         -2.0935  -17.5667  -54.4595 C.2       21 UNK         0.5000 
    118 O         -1.8183  -17.4984  -55.6591 O.2       21 UNK        -0.5000 
    119 N         -1.3385  -18.2310  -53.5732 N.am      22 UNK        -0.5000 
    120 CA        -0.0767  -18.9280  -53.9026 C.3       22 UNK         0.1400 
    121 C         -0.2386  -20.1481  -54.8647 C.2       22 UNK         0.5000 
    122 N         -1.4062  -20.7755  -54.9414 N.am      22 UNK        -0.7600 
    123 O          0.7088  -20.5568  -55.5307 O.2       22 UNK        -0.5000 
    124 C124        1.0654  -17.9614  -54.3344 C.3       23 UNK        -0.0398 
    125 S125        1.4996  -16.7904  -53.0060 S.3       23 UNK        -0.2404 
    126 C126        2.7660  -17.7541  -52.1195 C.3       23 UNK        -0.0205 
    127 H127       -1.8588  -15.6222  -49.9932 H         1 UNK         0.0600 
    128 H128       -0.7937  -16.3833  -48.8118 H         1 UNK         0.0600 
    129 H129       -0.3784  -16.4235  -50.5260 H         1 UNK         0.0600 
    130 H130        0.9010  -14.7911  -51.3101 H         1 UNK         0.3000 
    131 H131        1.7606  -12.8288  -51.7276 H         1 UNK         0.0600 
    132 H132        3.5345  -12.0485  -50.1686 H         1 UNK         0.0800 
    133 H133        3.5805  -13.7150  -50.5424 H         1 UNK         0.0800 
    134 H134        4.3479  -15.0798  -47.1360 H         1 UNK         0.0800 
    135 H135        4.9956  -14.7119  -48.7127 H         1 UNK         0.0800 
    136 H136        4.1013  -15.8402  -50.7309 H         1 UNK         0.1150 
    137 H137        1.2839  -19.0183  -50.2243 H         1 UNK         0.1150 
    138 H138        2.3813  -16.5850  -46.8720 H         1 UNK         0.1150 
    139 H139        0.6456  -18.2161  -46.6175 H         1 UNK         0.0800 
    140 H140       -0.1691  -18.7130  -48.0791 H         1 UNK         0.0800 
    141 H141       -0.9924  -20.7577  -47.2631 H         1 UNK         0.0800 
    142 H142       -0.3075  -20.7975  -45.6513 H         1 UNK         0.0800 
    143 H143        0.2106  -23.0434  -47.6485 H         1 UNK         0.0600 
    144 H144        1.1911  -22.5288  -45.0757 H         1 UNK         0.3000 
    145 H145        1.4259  -25.6817  -43.6816 H         1 UNK         0.0600 
    146 H146        3.8891  -25.3699  -43.6638 H         1 UNK         0.0600 
    147 H147        3.3647  -25.8978  -45.2551 H         1 UNK         0.0600 
    148 H148        3.7801  -24.2081  -44.9859 H         1 UNK         0.0600 
    149 H149        2.7033  -23.2498  -42.9558 H         1 UNK         0.3000 
    150 H150       -0.0658  -21.6162  -41.4046 H         1 UNK         0.0600 
    151 H151        0.9240  -23.1683  -39.7706 H         1 UNK         0.0600 
    152 H152        1.6330  -21.5706  -39.5957 H         1 UNK         0.0600 
    153 H153        2.5398  -22.8604  -40.3842 H         1 UNK         0.0600 
    154 H154        1.0892  -20.0736  -42.4014 H         1 UNK         0.3000 
    155 H155        4.2137  -19.1073  -42.6773 H         1 UNK         0.0600 
    156 H156        3.4083  -20.4408  -45.3071 H         1 UNK         0.0600 
    157 H157        4.9841  -20.4747  -44.5370 H         1 UNK         0.0600 
    158 H158        4.3744  -18.9691  -45.2033 H         1 UNK         0.0600 
    159 H159        1.8220  -18.6653  -44.3664 H         1 UNK         0.3000 
    160 H160        0.4149  -16.3465  -42.1097 H         1 UNK         0.0600 
    161 H161        1.7567  -15.6849  -44.7837 H         1 UNK         0.0600 
    162 H162        2.1052  -14.8915  -43.2527 H         1 UNK         0.0600 
    163 H163        0.5125  -14.7354  -43.9746 H         1 UNK         0.0600 
    164 H164       -0.4732  -16.8797  -44.6856 H         1 UNK         0.3000 
    165 H165       -1.6301  -19.1164  -45.3145 H         1 UNK         0.0600 
    166 H166       -3.6299  -20.3579  -44.4724 H         1 UNK         0.0600 
    167 H167       -2.1659  -20.8979  -43.6690 H         1 UNK         0.0600 
    168 H168       -3.2801  -19.8243  -42.8333 H         1 UNK         0.0600 
    169 H169       -3.8782  -17.7783  -44.1189 H         1 UNK         0.3000 
    170 H170       -4.8341  -16.2524  -45.9083 H         1 UNK         0.0600 
    171 H171       -4.4554  -15.6055  -43.5020 H         1 UNK         0.0600 
    172 H172       -3.2638  -14.4075  -43.9964 H         1 UNK         0.0600 
    173 H173       -4.9595  -14.2020  -44.4245 H         1 UNK         0.0600 
    174 H174       -2.5824  -14.7420  -46.8840 H         1 UNK         0.3000 
    175 H175       -3.3756  -13.6499  -49.2142 H         1 UNK         0.0600 
    176 H176       -5.2108  -11.4117  -48.2018 H         1 UNK         0.0600 
    177 H177       -4.2356  -11.3433  -49.6694 H         1 UNK         0.0600 
    178 H178       -5.5390  -12.5130  -49.5326 H         1 UNK         0.0600 
    179 H179       -1.6971  -12.6629  -48.1706 H         1 UNK         0.3000 
    180 H180       -1.3201  -10.3287  -45.5270 H         1 UNK         0.0600 
    181 H181        0.3998  -12.0041  -44.9048 H         1 UNK         0.0600 
    182 H182       -0.3774  -13.2217  -45.9142 H         1 UNK         0.0600 
    183 H183       -1.2024  -12.5963  -44.4930 H         1 UNK         0.0600 
    184 H184        0.3976  -11.5400  -47.5329 H         1 UNK         0.3000 
    185 H185        0.1526   -9.0468  -49.9351 H         1 UNK         0.0600 
    186 H186        2.4716   -8.3028  -49.4266 H         1 UNK         0.0600 
    187 H187        1.3288   -7.5565  -48.3219 H         1 UNK         0.0600 
    188 H188        2.3232   -8.9003  -47.7733 H         1 UNK         0.0600 
    189 H189        2.2081  -10.9468  -49.0950 H         1 UNK         0.3000 
    190 H190       -1.4257  -23.3825  -44.5048 H         1 UNK         0.3000 
    191 H191       -4.1121  -23.5536  -45.6338 H         1 UNK         0.0600 
    192 H192       -4.7280  -24.2209  -43.3230 H         1 UNK         0.0600 
    193 H193       -3.7580  -22.7592  -43.3066 H         1 UNK         0.0600 
    194 H194       -3.0325  -24.3039  -42.8661 H         1 UNK         0.0600 
    195 H195       -1.5070  -25.7948  -44.7109 H         1 UNK         0.3000 
    196 H196       -3.0153  -28.2277  -45.0253 H         1 UNK         0.0600 
    197 H197        0.0170  -27.7703  -45.0346 H         1 UNK         0.0600 
    198 H198       -0.9684  -28.0824  -43.6062 H         1 UNK         0.0600 
    199 H199       -0.7995  -29.3139  -44.8471 H         1 UNK         0.0600 
    200 H200       -1.1136  -26.1928  -47.1912 H         1 UNK         0.3000 
    201 H201       -1.1909  -27.9221  -49.5067 H         1 UNK         0.0600 
    202 H202       -0.6192  -24.9325  -49.2070 H         1 UNK         0.0600 
    203 H203       -0.2897  -25.8935  -50.6448 H         1 UNK         0.0600 
    204 H204        0.5802  -26.2198  -49.1534 H         1 UNK         0.0600 
    205 H205       -3.6773  -28.0417  -48.6243 H         1 UNK         0.3000 
    206 H206       -5.8385  -27.9851  -49.0859 H         1 UNK         0.0600 
    207 H207       -4.9682  -28.7903  -51.2997 H         1 UNK         0.0600 
    208 H208       -6.4862  -27.9284  -51.4715 H         1 UNK         0.0600 
    209 H209       -4.9781  -27.1341  -51.9041 H         1 UNK         0.0600 
    210 H210       -4.5028  -25.3135  -48.3675 H         1 UNK         0.3000 
    211 H211       -4.9010  -23.1880  -47.9935 H         1 UNK         0.0600 
    212 H212       -7.1723  -22.3021  -47.7621 H         1 UNK         0.0600 
    213 H213       -7.1110  -23.9179  -47.0777 H         1 UNK         0.0600 
    214 H214       -7.8504  -23.6522  -48.6573 H         1 UNK         0.0600 
    215 H215       -4.6801  -24.3555  -50.9530 H         1 UNK         0.3000 
    216 H216       -5.6380  -22.1882  -52.6278 H         1 UNK         0.0600 
    217 H217       -3.6611  -24.4707  -53.1786 H         1 UNK         0.0600 
    218 H218       -4.3641  -23.4109  -54.3963 H         1 UNK         0.0600 
    219 H219       -5.3957  -24.5077  -53.4894 H         1 UNK         0.0600 
    220 H220       -2.5965  -23.0724  -51.0495 H         1 UNK         0.3000 
    221 H221       -0.9754  -20.9866  -52.1431 H         1 UNK         0.0600 
    222 H222        0.0631  -22.9517  -51.1437 H         1 UNK         0.0600 
    223 H223       -0.7220  -22.6320  -49.6025 H         1 UNK         0.0600 
    224 H224        0.5309  -21.5452  -50.1957 H         1 UNK         0.0600 
    225 H225       -2.9705  -21.2711  -49.2047 H         1 UNK         0.3000 
    226 H226       -2.4235  -18.7110  -48.0722 H         1 UNK         0.0600 
    227 H227       -4.8831  -20.5134  -47.7537 H         1 UNK         0.0600 
    228 H228       -3.4061  -20.6342  -46.8067 H         1 UNK         0.0600 
    229 H229       -4.4189  -19.2014  -46.6874 H         1 UNK         0.0600 
    230 H230       -4.8861  -19.8149  -50.4053 H         1 UNK         0.3000 
    231 H231       -6.3834  -17.4186  -50.5167 H         1 UNK         0.0600 
    232 H232       -6.0637  -19.6494  -52.5915 H         1 UNK         0.0600 
    233 H233       -7.3021  -18.4015  -52.6239 H         1 UNK         0.0600 
    234 H234       -7.2721  -19.5702  -51.3130 H         1 UNK         0.0600 
    235 H235       -3.8861  -18.6198  -52.8757 H         1 UNK         0.3000 
    236 H236       -2.9955  -15.9215  -53.4933 H         1 UNK         0.0600 
    237 H237       -5.1837  -15.9133  -54.7179 H         1 UNK         0.0600 
    238 H238       -3.8496  -15.8943  -55.8457 H         1 UNK         0.0600 
    239 H239       -4.7276  -17.3929  -55.5577 H         1 UNK         0.0600 
    240 H240       -1.6006  -18.2453  -52.5934 H         1 UNK         0.3000 
    241 H241        0.2585  -19.3732  -52.9677 H         1 UNK         0.0600 
    242 H242       -1.5000  -21.5604  -55.5654 H         1 UNK         0.3800 
    243 H243       -2.1917  -20.4951  -54.3657 H         1 UNK         0.3800 
    244 H244        0.7829  -17.3964  -55.2230 H         1 UNK         0.0800 
    245 H245        1.9678  -18.5100  -54.6088 H         1 UNK         0.0800 
    246 H246        2.6181  -18.8227  -52.2825 H         1 UNK         0.0800 
    247 H247        3.7522  -17.5146  -52.5199 H         1 UNK         0.0800 
@<TRIPOS>BOND
     1    1    2 1    
     2    1  127 1    
     3    1  128 1    
     4    1  129 1    
     5    2    3 2    
     6    2    4 am   BACKBONE|DICT|INTERRES
     7    4    5 1    
     8    4  130 1    
     9    5    6 1    
    10    5   65 1    
    11    5  131 1    
    12    6    7 1    
    13    6  132 1    
    14    6  133 1    
    15    7    8 1    
    16    8    9 1    
    17    8  134 1    
    18    8  135 1    
    19    9   10 ar   
    20    9   14 ar   
    21   10   11 ar   
    22   10  136 1    
    23   11   12 ar   
    24   11  126 1    
    25   12   13 ar   
    26   12  137 1    
    27   13   14 ar   
    28   13   15 1    
    29   14  138 1    
    30   15   16 1    
    31   15  139 1    
    32   15  140 1    
    33   16   17 1    
    34   17   18 1    
    35   17  141 1    
    36   17  142 1    
    37   18   19 1    
    38   18   67 1    
    39   18  143 1    
    40   19   20 am   BACKBONE|DICT|INTERRES
    41   19  144 1    
    42   20   21 2    
    43   20   22 1    
    44   22   23 1    
    45   22   24 1    
    46   22  145 1    
    47   23  146 1    
    48   23  147 1    
    49   23  148 1    
    50   24   25 am   BACKBONE|DICT|INTERRES
    51   24  149 1    
    52   25   26 2    
    53   25   27 1    
    54   27   28 1    
    55   27   29 1    
    56   27  150 1    
    57   28  151 1    
    58   28  152 1    
    59   28  153 1    
    60   29   30 am   BACKBONE|DICT|INTERRES
    61   29  154 1    
    62   30   31 2    
    63   30   32 1    
    64   32   33 1    
    65   32   34 1    
    66   32  155 1    
    67   33  156 1    
    68   33  157 1    
    69   33  158 1    
    70   34   35 am   BACKBONE|DICT|INTERRES
    71   34  159 1    
    72   35   36 2    
    73   35   37 1    
    74   37   38 1    
    75   37   39 1    
    76   37  160 1    
    77   38  161 1    
    78   38  162 1    
    79   38  163 1    
    80   39   40 am   BACKBONE|DICT|INTERRES
    81   39  164 1    
    82   40   41 2    
    83   40   42 1    
    84   42   43 1    
    85   42   44 1    
    86   42  165 1    
    87   43  166 1    
    88   43  167 1    
    89   43  168 1    
    90   44   45 am   BACKBONE|DICT|INTERRES
    91   44  169 1    
    92   45   46 2    
    93   45   47 1    
    94   47   48 1    
    95   47   49 1    
    96   47  170 1    
    97   48  171 1    
    98   48  172 1    
    99   48  173 1    
   100   49   50 am   BACKBONE|DICT|INTERRES
   101   49  174 1    
   102   50   51 2    
   103   50   52 1    
   104   52   53 1    
   105   52   54 1    
   106   52  175 1    
   107   53  176 1    
   108   53  177 1    
   109   53  178 1    
   110   54   55 am   BACKBONE|DICT|INTERRES
   111   54  179 1    
   112   55   56 2    
   113   55   57 1    
   114   57   58 1    
   115   57   59 1    
   116   57  180 1    
   117   58  181 1    
   118   58  182 1    
   119   58  183 1    
   120   59   60 am   BACKBONE|DICT|INTERRES
   121   59  184 1    
   122   60   61 2    
   123   60   62 1    
   124   62   63 1    
   125   62   64 1    
   126   62  185 1    
   127   63  186 1    
   128   63  187 1    
   129   63  188 1    
   130   64   65 am   BACKBONE|DICT|INTERRES
   131   64  189 1    
   132   65   66 2    
   133   67   68 2    
   134   67   69 am   BACKBONE|DICT|INTERRES
   135   69   70 1    
   136   69  190 1    
   137   70   71 1    
   138   70   72 1    
   139   70  191 1    
   140   71  192 1    
   141   71  193 1    
   142   71  194 1    
   143   72   73 2    
   144   72   74 am   BACKBONE|DICT|INTERRES
   145   74   75 1    
   146   74  195 1    
   147   75   76 1    
   148   75   77 1    
   149   75  196 1    
   150   76  197 1    
   151   76  198 1    
   152   76  199 1    
   153   77   78 2    
   154   77   79 am   BACKBONE|DICT|INTERRES
   155   79   80 1    
   156   79  200 1    
   157   80   81 1    
   158   80   82 1    
   159   80  201 1    
   160   81  202 1    
   161   81  203 1    
   162   81  204 1    
   163   82   83 2    
   164   82   84 am   BACKBONE|DICT|INTERRES
   165   84   85 1    
   166   84  205 1    
   167   85   86 1    
   168   85   87 1    
   169   85  206 1    
   170   86  207 1    
   171   86  208 1    
   172   86  209 1    
   173   87   88 2    
   174   87   89 am   BACKBONE|DICT|INTERRES
   175   89   90 1    
   176   89  210 1    
   177   90   91 1    
   178   90   92 1    
   179   90  211 1    
   180   91  212 1    
   181   91  213 1    
   182   91  214 1    
   183   92   93 2    
   184   92   94 am   BACKBONE|DICT|INTERRES
   185   94   95 1    
   186   94  215 1    
   187   95   96 1    
   188   95   97 1    
   189   95  216 1    
   190   96  217 1    
   191   96  218 1    
   192   96  219 1    
   193   97   98 2    
   194   97   99 am   BACKBONE|DICT|INTERRES
   195   99  100 1    
   196   99  220 1    
   197  100  101 1    
   198  100  102 1    
   199  100  221 1    
   200  101  222 1    
   201  101  223 1    
   202  101  224 1    
   203  102  103 2    
   204  102  104 am   BACKBONE|DICT|INTERRES
   205  104  105 1    
   206  104  225 1    
   207  105  106 1    
   208  105  107 1    
   209  105  226 1    
   210  106  227 1    
   211  106  228 1    
   212  106  229 1    
   213  107  108 2    
   214  107  109 am   BACKBONE|DICT|INTERRES
   215  109  110 1    
   216  109  230 1    
   217  110  111 1    
   218  110  112 1    
   219  110  231 1    
   220  111  232 1    
   221  111  233 1    
   222  111  234 1    
   223  112  113 2    
   224  112  114 am   BACKBONE|DICT|INTERRES
   225  114  115 1    
   226  114  235 1    
   227  115  116 1    
   228  115  117 1    
   229  115  236 1    
   230  116  237 1    
   231  116  238 1    
   232  116  239 1    
   233  117  118 2    
   234  117  119 am   BACKBONE|DICT|INTERRES
   235  119  120 1    
   236  119  240 1    
   237  120  121 1    
   238  120  124 1    
   239  120  241 1    
   240  121  122 am   BACKBONE|DICT|INTERRES
   241  121  123 2    
   242  122  242 1    
   243  122  243 1    
   244  124  125 1    
   245  124  244 1    
   246  124  245 1    
   247  125  126 1    
   248  126  246 1    
   249  126  247 1    
@<TRIPOS>SUBSTRUCTURE
     1 UNK         1 GROUP             0       ****    0 ROOT    
