@<TRIPOS>MOLECULE
3R540
247   249    1
SMALL
USER_CHARGES


@<TRIPOS>ATOM
      1 CA          5.0098  -11.5033  -47.7356 C.3       0 UNK        -0.1800 
      2 C           6.2099  -12.3620  -48.1296 C.2       0 UNK         0.5000 
      3 O           7.2992  -11.8179  -48.2993 O.2       0 UNK        -0.5000 
      4 N           6.0870  -13.6862  -48.3082 N.am      1 UNK        -0.5000 
      5 CA          4.9149  -14.5491  -48.1141 C.3       1 UNK         0.1400 
      6 C6          3.7405  -14.2456  -49.0831 C.3       23 UNK        -0.0398 
      7 S7          2.6500  -15.6887  -49.3155 S.3       23 UNK        -0.2404 
      8 C8          3.5283  -16.5978  -50.6180 C.3       23 UNK        -0.0205 
      9 C9          2.8354  -17.9184  -50.9047 C.ar      23 UNK        -0.0193 
     10 C10         1.8988  -18.0080  -51.9363 C.ar      23 UNK        -0.1150 
     11 C11         1.2687  -19.2219  -52.2193 C.ar      23 UNK        -0.0193 
     12 C12         1.5711  -20.3484  -51.4461 C.ar      23 UNK        -0.1150 
     13 C13         2.5078  -20.2753  -50.4070 C.ar      23 UNK        -0.0193 
     14 C14         3.1406  -19.0537  -50.1482 C.ar      23 UNK        -0.1150 
     15 C15         2.8686  -21.5442  -49.6340 C.3       23 UNK        -0.0205 
     16 S16         3.2802  -21.3152  -47.8628 S.3       23 UNK        -0.2404 
     17 C17         1.7515  -20.6159  -47.1512 C.3       23 UNK        -0.0398 
     18 CA          0.7382  -21.6918  -46.6760 C.3       11 UNK         0.1400 
     19 N          -0.1447  -21.2002  -45.6107 N.am      11 UNK        -0.5000 
     20 C          -1.0820  -21.9297  -44.9838 C.2       10 UNK         0.5000 
     21 O          -1.2450  -23.1362  -45.1635 O.2       10 UNK        -0.5000 
     22 CA         -2.0445  -21.1775  -44.0453 C.3       10 UNK         0.1400 
     23 CB         -1.4218  -20.9856  -42.6551 C.3       10 UNK        -0.1800 
     24 N          -2.4702  -19.8872  -44.5929 N.am      10 UNK        -0.5000 
     25 C          -3.1947  -19.7488  -45.7136 C.2       9 UNK         0.5000 
     26 O          -3.6322  -20.6983  -46.3605 O.2       9 UNK        -0.5000 
     27 CA         -3.4307  -18.3194  -46.2332 C.3       9 UNK         0.1400 
     28 CB         -4.6322  -17.6718  -45.5308 C.3       9 UNK        -0.1800 
     29 N          -2.2517  -17.4651  -46.0925 N.am      9 UNK        -0.5000 
     30 C          -1.0831  -17.6738  -46.7165 C.2       8 UNK         0.5000 
     31 O          -0.8930  -18.5872  -47.5194 O.2       8 UNK        -0.5000 
     32 CA          0.0816  -16.7431  -46.3289 C.3       8 UNK         0.1400 
     33 CB         -0.0691  -15.3776  -47.0146 C.3       8 UNK        -0.1800 
     34 N           0.1827  -16.5661  -44.8774 N.am      8 UNK        -0.5000 
     35 C           0.4283  -17.5583  -44.0088 C.2       7 UNK         0.5000 
     36 O           0.7011  -18.7082  -44.3516 O.2       7 UNK        -0.5000 
     37 CA          0.2760  -17.2363  -42.5104 C.3       7 UNK         0.1400 
     38 CB          1.5810  -16.7064  -41.9008 C.3       7 UNK        -0.1800 
     39 N          -0.8040  -16.2821  -42.2668 N.am      7 UNK        -0.5000 
     40 C          -2.1062  -16.5943  -42.3155 C.2       6 UNK         0.5000 
     41 O          -2.5258  -17.7301  -42.5347 O.2       6 UNK        -0.5000 
     42 CA         -3.1043  -15.4362  -42.1264 C.3       6 UNK         0.1400 
     43 CB         -3.3564  -15.1779  -40.6336 C.3       6 UNK        -0.1800 
     44 N          -2.6523  -14.1975  -42.7624 N.am      6 UNK        -0.5000 
     45 C          -2.5254  -14.0324  -44.0866 C.2       5 UNK         0.5000 
     46 O          -2.8466  -14.8880  -44.9096 O.2       5 UNK        -0.5000 
     47 CA         -1.8884  -12.7145  -44.5712 C.3       5 UNK         0.1400 
     48 CB         -2.9744  -11.6645  -44.8478 C.3       5 UNK        -0.1800 
     49 N          -0.9019  -12.1566  -43.6403 N.am      5 UNK        -0.5000 
     50 C           0.2195  -12.7733  -43.2441 C.2       4 UNK         0.5000 
     51 O           0.5519  -13.9010  -43.6179 O.2       4 UNK        -0.5000 
     52 CA          1.0666  -12.0302  -42.2042 C.3       4 UNK         0.1400 
     53 CB          0.3478  -12.0194  -40.8389 C.3       4 UNK        -0.1800 
     54 N           2.3673  -12.6813  -42.0736 N.am      4 UNK        -0.5000 
     55 C           3.4430  -12.1392  -41.4916 C.2       3 UNK         0.5000 
     56 O           3.4734  -10.9849  -41.0618 O.2       3 UNK        -0.5000 
     57 CA          4.6893  -13.0285  -41.3251 C.3       3 UNK         0.1400 
     58 CB          4.7270  -13.6220  -39.9077 C.3       3 UNK        -0.1800 
     59 N           4.7863  -14.1242  -42.2911 N.am      3 UNK        -0.5000 
     60 C           5.1654  -13.9819  -43.5672 C.2       2 UNK         0.5000 
     61 O           5.4009  -12.8879  -44.0865 O.2       2 UNK        -0.5000 
     62 CA          5.3981  -15.2880  -44.3610 C.3       2 UNK         0.1400 
     63 CB          4.3731  -16.3981  -44.0412 C.3       2 UNK        -0.1800 
     64 N           5.4911  -15.0799  -45.8083 N.am      2 UNK        -0.5000 
     65 C           4.5191  -14.6521  -46.6259 C.2       1 UNK         0.5000 
     66 O           3.3895  -14.3352  -46.2525 O.2       1 UNK        -0.5000 
     67 C          -0.0806  -22.2266  -47.8648 C.2       11 UNK         0.5000 
     68 O           0.1213  -23.3632  -48.2899 O.2       11 UNK        -0.5000 
     69 N          -1.0137  -21.3995  -48.3502 N.am      12 UNK        -0.5000 
     70 CA         -1.9024  -21.6979  -49.4678 C.3       12 UNK         0.1400 
     71 CB         -2.7226  -20.4417  -49.7751 C.3       12 UNK        -0.1800 
     72 C          -2.8147  -22.9098  -49.2048 C.2       12 UNK         0.5000 
     73 O          -2.9995  -23.7339  -50.1000 O.2       12 UNK        -0.5000 
     74 N          -3.3417  -23.0145  -47.9777 N.am      13 UNK        -0.5000 
     75 CA         -4.1335  -24.1472  -47.5028 C.3       13 UNK         0.1400 
     76 CB         -4.7506  -23.8129  -46.1363 C.3       13 UNK        -0.1800 
     77 C          -3.3132  -25.4469  -47.4288 C.2       13 UNK         0.5000 
     78 O          -3.7835  -26.4808  -47.9028 O.2       13 UNK        -0.5000 
     79 N          -2.0936  -25.3686  -46.8755 N.am      14 UNK        -0.5000 
     80 CA         -1.1508  -26.4870  -46.7755 C.3       14 UNK         0.1400 
     81 CB          0.0370  -26.0826  -45.8892 C.3       14 UNK        -0.1800 
     82 C          -0.6618  -26.9850  -48.1486 C.2       14 UNK         0.5000 
     83 O          -0.5259  -28.1928  -48.3467 O.2       14 UNK        -0.5000 
     84 N          -0.4431  -26.0480  -49.0801 N.am      15 UNK        -0.5000 
     85 CA         -0.0978  -26.3110  -50.4778 C.3       15 UNK         0.1400 
     86 CB          0.4464  -25.0146  -51.1009 C.3       15 UNK        -0.1800 
     87 C          -1.2778  -26.8477  -51.3146 C.2       15 UNK         0.5000 
     88 O          -1.0460  -27.3524  -52.4139 O.2       15 UNK        -0.5000 
     89 N          -2.5092  -26.7080  -50.7976 N.am      16 UNK        -0.5000 
     90 CA         -3.7930  -26.9979  -51.4456 C.3       16 UNK         0.1400 
     91 CB         -3.9603  -28.5109  -51.6939 C.3       16 UNK        -0.1800 
     92 C          -4.0065  -26.1422  -52.7121 C.2       16 UNK         0.5000 
     93 O          -4.5035  -26.6328  -53.7285 O.2       16 UNK        -0.5000 
     94 N          -3.6042  -24.8683  -52.6281 N.am      17 UNK        -0.5000 
     95 CA         -3.6078  -23.8969  -53.7155 C.3       17 UNK         0.1400 
     96 CB         -2.5738  -22.8030  -53.3974 C.3       17 UNK        -0.1800 
     97 C          -5.0173  -23.3252  -53.9471 C.2       17 UNK         0.5000 
     98 O          -5.2906  -22.1893  -53.5577 O.2       17 UNK        -0.5000 
     99 N          -5.8892  -24.1430  -54.5540 N.am      18 UNK        -0.5000 
    100 CA        -7.2458  -23.8200  -55.0149 C.3       18 UNK         0.1400 
    101 CB        -7.1748  -22.9095  -56.2582 C.3       18 UNK        -0.1800 
    102 C         -8.1554  -23.2547  -53.9028 C.2       18 UNK         0.5000 
    103 O         -8.7956  -22.2189  -54.0894 O.2       18 UNK        -0.5000 
    104 N         -8.1733  -23.9526  -52.7571 N.am      19 UNK        -0.5000 
    105 CA        -8.8862  -23.5975  -51.5229 C.3       19 UNK         0.1400 
    106 CB       -10.4157  -23.6029  -51.7346 C.3       19 UNK        -0.1800 
    107 C         -8.3565  -22.2911  -50.8923 C.2       19 UNK         0.5000 
    108 O         -9.1386  -21.4369  -50.4718 O.2       19 UNK        -0.5000 
    109 N         -7.0213  -22.1886  -50.8332 N.am      20 UNK        -0.5000 
    110 CA        -6.2288  -21.0953  -50.2664 C.3       20 UNK         0.1400 
    111 CB        -6.4604  -20.9663  -48.7457 C.3       20 UNK        -0.1800 
    112 C         -6.3984  -19.7653  -51.0310 C.2       20 UNK         0.5000 
    113 O         -6.6695  -18.7246  -50.4293 O.2       20 UNK        -0.5000 
    114 N         -6.2335  -19.8280  -52.3578 N.am      21 UNK        -0.5000 
    115 CA        -6.4381  -18.7154  -53.2876 C.3       21 UNK         0.1400 
    116 CB        -6.5984  -19.2839  -54.7060 C.3       21 UNK        -0.1800 
    117 C         -5.3330  -17.6393  -53.2686 C.2       21 UNK         0.5000 
    118 O         -5.5468  -16.5659  -53.8346 O.2       21 UNK        -0.5000 
    119 N         -4.1769  -17.9290  -52.6537 N.am      22 UNK        -0.5000 
    120 CA        -3.0052  -17.0298  -52.6106 C.3       22 UNK         0.1400 
    121 C         -3.2081  -15.7182  -51.7924 C.2       22 UNK         0.5000 
    122 N         -4.2196  -15.6167  -50.9378 N.am      22 UNK        -0.7600 
    123 O         -2.4330  -14.7772  -51.9384 O.2       22 UNK        -0.5000 
    124 C124       -1.7057  -17.7399  -52.1413 C.3       23 UNK        -0.0398 
    125 S125       -1.4364  -19.3897  -52.8817 S.3       23 UNK        -0.2404 
    126 C126        0.3064  -19.3223  -53.3965 C.3       23 UNK        -0.0205 
    127 H127        4.4863  -11.9001  -46.8680 H         1 UNK         0.0600 
    128 H128        4.3113  -11.4152  -48.5665 H         1 UNK         0.0600 
    129 H129        5.3377  -10.4965  -47.4766 H         1 UNK         0.0600 
    130 H130        6.9209  -14.1863  -48.5828 H         1 UNK         0.3000 
    131 H131        5.2840  -15.5423  -48.3736 H         1 UNK         0.0600 
    132 H132        3.1328  -13.4133  -48.7273 H         1 UNK         0.0800 
    133 H133        4.1222  -13.9444  -50.0595 H         1 UNK         0.0800 
    134 H134        3.5743  -15.9877  -51.5214 H         1 UNK         0.0800 
    135 H135        4.5597  -16.7813  -50.3146 H         1 UNK         0.0800 
    136 H136        1.6730  -17.1330  -52.5295 H         1 UNK         0.1150 
    137 H137        1.0903  -21.2900  -51.6724 H         1 UNK         0.1150 
    138 H138        3.8784  -18.9827  -49.3619 H         1 UNK         0.1150 
    139 H139        2.0706  -22.2803  -49.7228 H         1 UNK         0.0800 
    140 H140        3.7353  -21.9919  -50.1215 H         1 UNK         0.0800 
    141 H141        1.3094  -19.9072  -47.8525 H         1 UNK         0.0800 
    142 H142        2.0682  -20.0147  -46.2983 H         1 UNK         0.0800 
    143 H143        1.2940  -22.5301  -46.2507 H         1 UNK         0.0600 
    144 H144       -0.0463  -20.2219  -45.3563 H         1 UNK         0.3000 
    145 H145       -2.9386  -21.7930  -43.9273 H         1 UNK         0.0600 
    146 H146       -2.1089  -20.4747  -41.9805 H         1 UNK         0.0600 
    147 H147       -1.1788  -21.9484  -42.2041 H         1 UNK         0.0600 
    148 H148       -0.5006  -20.4066  -42.6996 H         1 UNK         0.0600 
    149 H149       -2.2052  -19.0575  -44.0742 H         1 UNK         0.3000 
    150 H150       -3.6614  -18.3899  -47.2982 H         1 UNK         0.0600 
    151 H151       -4.8499  -16.6891  -45.9495 H         1 UNK         0.0600 
    152 H152       -5.5284  -18.2821  -45.6495 H         1 UNK         0.0600 
    153 H153       -4.4572  -17.5482  -44.4621 H         1 UNK         0.0600 
    154 H154       -2.3491  -16.6507  -45.4926 H         1 UNK         0.3000 
    155 H155        1.0112  -17.1988  -46.6769 H         1 UNK         0.0600 
    156 H156       -1.0017  -14.8863  -46.7455 H         1 UNK         0.0600 
    157 H157       -0.0705  -15.4890  -48.0992 H         1 UNK         0.0600 
    158 H158        0.7515  -14.7093  -46.7542 H         1 UNK         0.0600 
    159 H159        0.0405  -15.6296  -44.5145 H         1 UNK         0.3000 
    160 H160        0.0309  -18.1675  -41.9959 H         1 UNK         0.0600 
    161 H161        1.9018  -15.7767  -42.3679 H         1 UNK         0.0600 
    162 H162        2.3826  -17.4356  -42.0190 H         1 UNK         0.0600 
    163 H163        1.4690  -16.5208  -40.8325 H         1 UNK         0.0600 
    164 H164       -0.5362  -15.3143  -42.1598 H         1 UNK         0.3000 
    165 H165       -4.0492  -15.7316  -42.5875 H         1 UNK         0.0600 
    166 H166       -4.1171  -14.4104  -40.4895 H         1 UNK         0.0600 
    167 H167       -3.7101  -16.0820  -40.1361 H         1 UNK         0.0600 
    168 H168       -2.4501  -14.8536  -40.1206 H         1 UNK         0.0600 
    169 H169       -2.3774  -13.4418  -42.1531 H         1 UNK         0.3000 
    170 H170       -1.3714  -12.9228  -45.5092 H         1 UNK         0.0600 
    171 H171       -3.7109  -12.0427  -45.5582 H         1 UNK         0.0600 
    172 H172       -3.5081  -11.3871  -43.9379 H         1 UNK         0.0600 
    173 H173       -2.5473  -10.7582  -45.2773 H         1 UNK         0.0600 
    174 H174       -1.1053  -11.2366  -43.2766 H         1 UNK         0.3000 
    175 H175        1.2125  -11.0065  -42.5552 H         1 UNK         0.0600 
    176 H176        0.1984  -13.0305  -40.4576 H         1 UNK         0.0600 
    177 H177        0.9153  -11.4641  -40.0921 H         1 UNK         0.0600 
    178 H178       -0.6318  -11.5451  -40.9067 H         1 UNK         0.0600 
    179 H179        2.4200  -13.6072  -42.4777 H         1 UNK         0.3000 
    180 H180        5.5650  -12.3865  -41.4442 H         1 UNK         0.0600 
    181 H181        3.8837  -14.2905  -39.7289 H         1 UNK         0.0600 
    182 H182        4.6876  -12.8357  -39.1526 H         1 UNK         0.0600 
    183 H183        5.6452  -14.1851  -39.7391 H         1 UNK         0.0600 
    184 H184        4.6277  -15.0536  -41.9311 H         1 UNK         0.3000 
    185 H185        6.3793  -15.6512  -44.0525 H         1 UNK         0.0600 
    186 H186        4.4451  -16.7190  -43.0025 H         1 UNK         0.0600 
    187 H187        3.3501  -16.0690  -44.2239 H         1 UNK         0.0600 
    188 H188        4.5476  -17.2818  -44.6550 H         1 UNK         0.0600 
    189 H189        6.4032  -15.2489  -46.2080 H         1 UNK         0.3000 
    190 H190       -1.0922  -20.4693  -47.9474 H         1 UNK         0.3000 
    191 H191       -1.2754  -21.9217  -50.3332 H         1 UNK         0.0600 
    192 H192       -3.1925  -20.5122  -50.7545 H         1 UNK         0.0600 
    193 H193       -2.0838  -19.5625  -49.7842 H         1 UNK         0.0600 
    194 H194       -3.4988  -20.2666  -49.0317 H         1 UNK         0.0600 
    195 H195       -3.2022  -22.2507  -47.3205 H         1 UNK         0.3000 
    196 H196       -4.9478  -24.3053  -48.2131 H         1 UNK         0.0600 
    197 H197       -5.3680  -24.6359  -45.7746 H         1 UNK         0.0600 
    198 H198       -5.3869  -22.9300  -46.1940 H         1 UNK         0.0600 
    199 H199       -3.9849  -23.6211  -45.3844 H         1 UNK         0.0600 
    200 H200       -1.7863  -24.4833  -46.4818 H         1 UNK         0.3000 
    201 H201       -1.6688  -27.3162  -46.2894 H         1 UNK         0.0600 
    202 H202       -0.2943  -25.8141  -44.8860 H         1 UNK         0.0600 
    203 H203        0.5757  -25.2291  -46.3020 H         1 UNK         0.0600 
    204 H204        0.7480  -26.9036  -45.7884 H         1 UNK         0.0600 
    205 H205       -0.4958  -25.0698  -48.8043 H         1 UNK         0.3000 
    206 H206        0.6930  -27.0632  -50.5027 H         1 UNK         0.0600 
    207 H207        1.3243  -24.6569  -50.5627 H         1 UNK         0.0600 
    208 H208        0.7431  -25.1702  -52.1388 H         1 UNK         0.0600 
    209 H209       -0.3006  -24.2200  -51.0884 H         1 UNK         0.0600 
    210 H210       -2.5802  -26.2705  -49.8882 H         1 UNK         0.3000 
    211 H211       -4.5653  -26.6923  -50.7384 H         1 UNK         0.0600 
    212 H212       -3.2576  -28.8816  -52.4405 H         1 UNK         0.0600 
    213 H213       -4.9653  -28.7382  -52.0509 H         1 UNK         0.0600 
    214 H214       -3.8060  -29.0787  -50.7763 H         1 UNK         0.0600 
    215 H215       -3.2675  -24.5286  -51.7288 H         1 UNK         0.3000 
    216 H216       -3.2919  -24.3926  -54.6359 H         1 UNK         0.0600 
    217 H217       -2.5255  -22.0671  -54.2008 H         1 UNK         0.0600 
    218 H218       -1.5750  -23.2236  -53.2806 H         1 UNK         0.0600 
    219 H219       -2.8196  -22.2693  -52.4794 H         1 UNK         0.0600 
    220 H220       -5.5763  -25.0911  -54.7334 H         1 UNK         0.3000 
    221 H221       -7.7000  -24.7619  -55.3258 H         1 UNK         0.0600 
    222 H222       -6.7134  -21.9491  -56.0302 H         1 UNK         0.0600 
    223 H223       -6.5944  -23.3765  -57.0538 H         1 UNK         0.0600 
    224 H224       -8.1695  -22.7105  -56.6588 H         1 UNK         0.0600 
    225 H225       -7.6090  -24.7894  -52.7120 H         1 UNK         0.3000 
    226 H226       -8.6602  -24.3877  -50.8054 H         1 UNK         0.0600 
    227 H227      -10.7502  -24.5438  -52.1714 H         1 UNK         0.0600 
    228 H228      -10.9393  -23.4824  -50.7856 H         1 UNK         0.0600 
    229 H229      -10.7416  -22.7941  -52.3890 H         1 UNK         0.0600 
    230 H230       -6.4842  -22.9227  -51.2712 H         1 UNK         0.3000 
    231 H231       -5.1978  -21.4059  -50.4124 H         1 UNK         0.0600 
    232 H232       -7.4773  -20.6504  -48.5130 H         1 UNK         0.0600 
    233 H233       -5.7856  -20.2316  -48.3053 H         1 UNK         0.0600 
    234 H234       -6.2794  -21.9139  -48.2398 H         1 UNK         0.0600 
    235 H235       -5.9806  -20.7206  -52.7814 H         1 UNK         0.3000 
    236 H236       -7.3722  -18.2185  -53.0177 H         1 UNK         0.0600 
    237 H237       -7.4432  -19.9698  -54.7591 H         1 UNK         0.0600 
    238 H238       -6.7819  -18.4911  -55.4323 H         1 UNK         0.0600 
    239 H239       -5.7052  -19.8225  -55.0248 H         1 UNK         0.0600 
    240 H240       -4.0613  -18.8418  -52.2412 H         1 UNK         0.3000 
    241 H241       -2.8330  -16.7114  -53.6408 H         1 UNK         0.0600 
    242 H242       -4.3461  -14.7630  -50.4177 H         1 UNK         0.3800 
    243 H243       -4.8690  -16.3790  -50.8196 H         1 UNK         0.3800 
    244 H244       -0.8492  -17.1059  -52.3743 H         1 UNK         0.0800 
    245 H245       -1.6969  -17.8458  -51.0573 H         1 UNK         0.0800 
    246 H246        0.4461  -18.4876  -54.0852 H         1 UNK         0.0800 
    247 H247        0.5345  -20.2240  -53.9666 H         1 UNK         0.0800 
@<TRIPOS>BOND
     1    1    2 1    
     2    1  127 1    
     3    1  128 1    
     4    1  129 1    
     5    2    3 2    
     6    2    4 am   BACKBONE|DICT|INTERRES
     7    4    5 1    
     8    4  130 1    
     9    5    6 1    
    10    5   65 1    
    11    5  131 1    
    12    6    7 1    
    13    6  132 1    
    14    6  133 1    
    15    7    8 1    
    16    8    9 1    
    17    8  134 1    
    18    8  135 1    
    19    9   10 ar   
    20    9   14 ar   
    21   10   11 ar   
    22   10  136 1    
    23   11   12 ar   
    24   11  126 1    
    25   12   13 ar   
    26   12  137 1    
    27   13   14 ar   
    28   13   15 1    
    29   14  138 1    
    30   15   16 1    
    31   15  139 1    
    32   15  140 1    
    33   16   17 1    
    34   17   18 1    
    35   17  141 1    
    36   17  142 1    
    37   18   19 1    
    38   18   67 1    
    39   18  143 1    
    40   19   20 am   BACKBONE|DICT|INTERRES
    41   19  144 1    
    42   20   21 2    
    43   20   22 1    
    44   22   23 1    
    45   22   24 1    
    46   22  145 1    
    47   23  146 1    
    48   23  147 1    
    49   23  148 1    
    50   24   25 am   BACKBONE|DICT|INTERRES
    51   24  149 1    
    52   25   26 2    
    53   25   27 1    
    54   27   28 1    
    55   27   29 1    
    56   27  150 1    
    57   28  151 1    
    58   28  152 1    
    59   28  153 1    
    60   29   30 am   BACKBONE|DICT|INTERRES
    61   29  154 1    
    62   30   31 2    
    63   30   32 1    
    64   32   33 1    
    65   32   34 1    
    66   32  155 1    
    67   33  156 1    
    68   33  157 1    
    69   33  158 1    
    70   34   35 am   BACKBONE|DICT|INTERRES
    71   34  159 1    
    72   35   36 2    
    73   35   37 1    
    74   37   38 1    
    75   37   39 1    
    76   37  160 1    
    77   38  161 1    
    78   38  162 1    
    79   38  163 1    
    80   39   40 am   BACKBONE|DICT|INTERRES
    81   39  164 1    
    82   40   41 2    
    83   40   42 1    
    84   42   43 1    
    85   42   44 1    
    86   42  165 1    
    87   43  166 1    
    88   43  167 1    
    89   43  168 1    
    90   44   45 am   BACKBONE|DICT|INTERRES
    91   44  169 1    
    92   45   46 2    
    93   45   47 1    
    94   47   48 1    
    95   47   49 1    
    96   47  170 1    
    97   48  171 1    
    98   48  172 1    
    99   48  173 1    
   100   49   50 am   BACKBONE|DICT|INTERRES
   101   49  174 1    
   102   50   51 2    
   103   50   52 1    
   104   52   53 1    
   105   52   54 1    
   106   52  175 1    
   107   53  176 1    
   108   53  177 1    
   109   53  178 1    
   110   54   55 am   BACKBONE|DICT|INTERRES
   111   54  179 1    
   112   55   56 2    
   113   55   57 1    
   114   57   58 1    
   115   57   59 1    
   116   57  180 1    
   117   58  181 1    
   118   58  182 1    
   119   58  183 1    
   120   59   60 am   BACKBONE|DICT|INTERRES
   121   59  184 1    
   122   60   61 2    
   123   60   62 1    
   124   62   63 1    
   125   62   64 1    
   126   62  185 1    
   127   63  186 1    
   128   63  187 1    
   129   63  188 1    
   130   64   65 am   BACKBONE|DICT|INTERRES
   131   64  189 1    
   132   65   66 2    
   133   67   68 2    
   134   67   69 am   BACKBONE|DICT|INTERRES
   135   69   70 1    
   136   69  190 1    
   137   70   71 1    
   138   70   72 1    
   139   70  191 1    
   140   71  192 1    
   141   71  193 1    
   142   71  194 1    
   143   72   73 2    
   144   72   74 am   BACKBONE|DICT|INTERRES
   145   74   75 1    
   146   74  195 1    
   147   75   76 1    
   148   75   77 1    
   149   75  196 1    
   150   76  197 1    
   151   76  198 1    
   152   76  199 1    
   153   77   78 2    
   154   77   79 am   BACKBONE|DICT|INTERRES
   155   79   80 1    
   156   79  200 1    
   157   80   81 1    
   158   80   82 1    
   159   80  201 1    
   160   81  202 1    
   161   81  203 1    
   162   81  204 1    
   163   82   83 2    
   164   82   84 am   BACKBONE|DICT|INTERRES
   165   84   85 1    
   166   84  205 1    
   167   85   86 1    
   168   85   87 1    
   169   85  206 1    
   170   86  207 1    
   171   86  208 1    
   172   86  209 1    
   173   87   88 2    
   174   87   89 am   BACKBONE|DICT|INTERRES
   175   89   90 1    
   176   89  210 1    
   177   90   91 1    
   178   90   92 1    
   179   90  211 1    
   180   91  212 1    
   181   91  213 1    
   182   91  214 1    
   183   92   93 2    
   184   92   94 am   BACKBONE|DICT|INTERRES
   185   94   95 1    
   186   94  215 1    
   187   95   96 1    
   188   95   97 1    
   189   95  216 1    
   190   96  217 1    
   191   96  218 1    
   192   96  219 1    
   193   97   98 2    
   194   97   99 am   BACKBONE|DICT|INTERRES
   195   99  100 1    
   196   99  220 1    
   197  100  101 1    
   198  100  102 1    
   199  100  221 1    
   200  101  222 1    
   201  101  223 1    
   202  101  224 1    
   203  102  103 2    
   204  102  104 am   BACKBONE|DICT|INTERRES
   205  104  105 1    
   206  104  225 1    
   207  105  106 1    
   208  105  107 1    
   209  105  226 1    
   210  106  227 1    
   211  106  228 1    
   212  106  229 1    
   213  107  108 2    
   214  107  109 am   BACKBONE|DICT|INTERRES
   215  109  110 1    
   216  109  230 1    
   217  110  111 1    
   218  110  112 1    
   219  110  231 1    
   220  111  232 1    
   221  111  233 1    
   222  111  234 1    
   223  112  113 2    
   224  112  114 am   BACKBONE|DICT|INTERRES
   225  114  115 1    
   226  114  235 1    
   227  115  116 1    
   228  115  117 1    
   229  115  236 1    
   230  116  237 1    
   231  116  238 1    
   232  116  239 1    
   233  117  118 2    
   234  117  119 am   BACKBONE|DICT|INTERRES
   235  119  120 1    
   236  119  240 1    
   237  120  121 1    
   238  120  124 1    
   239  120  241 1    
   240  121  122 am   BACKBONE|DICT|INTERRES
   241  121  123 2    
   242  122  242 1    
   243  122  243 1    
   244  124  125 1    
   245  124  244 1    
   246  124  245 1    
   247  125  126 1    
   248  126  246 1    
   249  126  247 1    
@<TRIPOS>SUBSTRUCTURE
     1 UNK         1 GROUP             0       ****    0 ROOT    
