@<TRIPOS>MOLECULE
3R540
247   249    1
SMALL
USER_CHARGES


@<TRIPOS>ATOM
      1 CA          7.5447  -14.1489  -49.5293 C.3       0 UNK        -0.1800 
      2 C           6.5330  -15.0684  -48.8593 C.2       0 UNK         0.5000 
      3 O           6.5823  -16.2824  -49.0600 O.2       0 UNK        -0.5000 
      4 N           5.6140  -14.4938  -48.0742 N.am      1 UNK        -0.5000 
      5 CA          4.5893  -15.2160  -47.3131 C.3       1 UNK         0.1400 
      6 C6          3.4427  -14.2775  -46.8583 C.3       23 UNK        -0.0398 
      7 S7          2.5417  -13.5010  -48.2451 S.3       23 UNK        -0.2404 
      8 C8          0.8764  -14.2320  -48.0886 C.3       23 UNK        -0.0205 
      9 C9          0.6673  -15.4190  -49.0193 C.ar      23 UNK        -0.0193 
     10 C10        -0.2947  -15.3535  -50.0311 C.ar      23 UNK        -0.1150 
     11 C11        -0.5269  -16.4534  -50.8599 C.ar      23 UNK        -0.0193 
     12 C12         0.2265  -17.6172  -50.6894 C.ar      23 UNK        -0.1150 
     13 C13         1.1955  -17.7009  -49.6867 C.ar      23 UNK        -0.0193 
     14 C14         1.4006  -16.5970  -48.8496 C.ar      23 UNK        -0.1150 
     15 C15         2.0026  -18.9921  -49.5428 C.3       23 UNK        -0.0205 
     16 S16         2.4862  -19.4186  -47.8342 S.3       23 UNK        -0.2404 
     17 C17         0.8660  -19.4759  -47.0042 C.3       23 UNK        -0.0398 
     18 CA          0.3517  -20.9015  -46.7053 C.3       11 UNK         0.1400 
     19 N          -0.6834  -20.8544  -45.6746 N.am      11 UNK        -0.5000 
     20 C          -1.2708  -21.9038  -45.0897 C.2       10 UNK         0.5000 
     21 O          -0.9629  -23.0741  -45.3064 O.2       10 UNK        -0.5000 
     22 CA         -2.4316  -21.5810  -44.1342 C.3       10 UNK         0.1400 
     23 CB         -1.9058  -21.2219  -42.7362 C.3       10 UNK        -0.1800 
     24 N          -3.2622  -20.4872  -44.6418 N.am      10 UNK        -0.5000 
     25 C          -4.0850  -20.5901  -45.6945 C.2       9 UNK         0.5000 
     26 O          -4.2593  -21.6326  -46.3257 O.2       9 UNK        -0.5000 
     27 CA         -4.8054  -19.3024  -46.1367 C.3       9 UNK         0.1400 
     28 CB         -6.0369  -19.0371  -45.2584 C.3       9 UNK        -0.1800 
     29 N          -3.9348  -18.1244  -46.1266 N.am      9 UNK        -0.5000 
     30 C          -2.8940  -17.9598  -46.9547 C.2       8 UNK         0.5000 
     31 O          -2.5593  -18.7902  -47.7964 O.2       8 UNK        -0.5000 
     32 CA         -2.0550  -16.6789  -46.7887 C.3       8 UNK         0.1400 
     33 CB         -2.7389  -15.5042  -47.5034 C.3       8 UNK        -0.1800 
     34 N          -1.7576  -16.2948  -45.4040 N.am      8 UNK        -0.5000 
     35 C          -1.2924  -17.0939  -44.4304 C.2       7 UNK         0.5000 
     36 O          -1.1178  -18.3028  -44.5734 O.2       7 UNK        -0.5000 
     37 CA         -0.9468  -16.4601  -43.0681 C.3       7 UNK         0.1400 
     38 CB          0.4980  -16.7980  -42.6694 C.3       7 UNK        -0.1800 
     39 N          -1.1203  -15.0074  -43.0348 N.am      7 UNK        -0.5000 
     40 C          -2.2930  -14.3781  -42.8697 C.2       6 UNK         0.5000 
     41 O          -3.3629  -14.9697  -42.7250 O.2       6 UNK        -0.5000 
     42 CA         -2.2816  -12.8352  -42.8805 C.3       6 UNK         0.1400 
     43 CB         -2.4521  -12.2892  -41.4544 C.3       6 UNK        -0.1800 
     44 N          -1.0695  -12.2541  -43.4611 N.am      6 UNK        -0.5000 
     45 C          -0.7092  -12.3310  -44.7499 C.2       5 UNK         0.5000 
     46 O          -1.3826  -12.8900  -45.6146 O.2       5 UNK        -0.5000 
     47 CA          0.6566  -11.7195  -45.1191 C.3       5 UNK         0.1400 
     48 CB          0.4872  -10.2768  -45.6162 C.3       5 UNK        -0.1800 
     49 N           1.6185  -11.7427  -44.0117 N.am      5 UNK        -0.5000 
     50 C           2.1305  -12.8599  -43.4801 C.2       4 UNK         0.5000 
     51 O           1.8563  -13.9939  -43.8779 O.2       4 UNK        -0.5000 
     52 CA          3.0581  -12.6811  -42.2745 C.3       4 UNK         0.1400 
     53 CB          2.2435  -12.6225  -40.9705 C.3       4 UNK        -0.1800 
     54 N           3.9914  -13.8002  -42.2206 N.am      4 UNK        -0.5000 
     55 C           5.2231  -13.7565  -41.7045 C.2       3 UNK         0.5000 
     56 O           5.6978  -12.7461  -41.1833 O.2       3 UNK        -0.5000 
     57 CA          6.0997  -15.0229  -41.7938 C.3       3 UNK         0.1400 
     58 CB          6.1574  -15.7569  -40.4397 C.3       3 UNK        -0.1800 
     59 N           5.7722  -15.9434  -42.8921 N.am      3 UNK        -0.5000 
     60 C           4.7175  -16.7545  -43.0393 C.2       2 UNK         0.5000 
     61 O           3.7725  -16.7960  -42.2524 O.2       2 UNK        -0.5000 
     62 CA          4.7162  -17.6363  -44.3075 C.3       2 UNK         0.1400 
     63 CB          3.7234  -18.8086  -44.2011 C.3       2 UNK        -0.1800 
     64 N           4.4048  -16.8702  -45.5156 N.am      2 UNK        -0.5000 
     65 C           5.1908  -15.9513  -46.0941 C.2       1 UNK         0.5000 
     66 O           6.3184  -15.6629  -45.6816 O.2       1 UNK        -0.5000 
     67 C          -0.1474  -21.6271  -47.9746 C.2       11 UNK         0.5000 
     68 O           0.5408  -22.5154  -48.4779 O.2       11 UNK        -0.5000 
     69 N          -1.3606  -21.2816  -48.4317 N.am      12 UNK        -0.5000 
     70 CA         -2.0576  -21.9454  -49.5324 C.3       12 UNK         0.1400 
     71 CB         -3.3460  -21.1823  -49.8702 C.3       12 UNK        -0.1800 
     72 C          -2.3633  -23.4203  -49.2259 C.2       12 UNK         0.5000 
     73 O          -2.0920  -24.2740  -50.0683 O.2       12 UNK        -0.5000 
     74 N          -2.8692  -23.7026  -48.0159 N.am      13 UNK        -0.5000 
     75 CA         -3.1563  -25.0580  -47.5412 C.3       13 UNK         0.1400 
     76 CB         -3.8730  -24.9962  -46.1848 C.3       13 UNK        -0.1800 
     77 C          -1.9004  -25.9469  -47.4628 C.2       13 UNK         0.5000 
     78 O          -1.9538  -27.1044  -47.8780 O.2       13 UNK        -0.5000 
     79 N          -0.7800  -25.3811  -46.9914 N.am      14 UNK        -0.5000 
     80 CA          0.5364  -26.0253  -46.9618 C.3       14 UNK         0.1400 
     81 CB          1.5139  -25.1547  -46.1579 C.3       14 UNK        -0.1800 
     82 C           1.0976  -26.3204  -48.3675 C.2       14 UNK         0.5000 
     83 O           1.7748  -27.3322  -48.5510 O.2       14 UNK        -0.5000 
     84 N           0.7711  -25.4588  -49.3399 N.am      15 UNK        -0.5000 
     85 CA          1.0720  -25.6316  -50.7630 C.3       15 UNK         0.1400 
     86 CB          1.1106  -24.2463  -51.4308 C.3       15 UNK        -0.1800 
     87 C           0.0829  -26.5717  -51.4904 C.2       15 UNK         0.5000 
     88 O           0.2567  -26.8079  -52.6868 O.2       15 UNK        -0.5000 
     89 N          -0.9272  -27.0857  -50.7708 N.am      16 UNK        -0.5000 
     90 CA         -2.0095  -27.9633  -51.2283 C.3       16 UNK         0.1400 
     91 CB         -1.4581  -29.3119  -51.7377 C.3       16 UNK        -0.1800 
     92 C          -2.9786  -27.2863  -52.2216 C.2       16 UNK         0.5000 
     93 O          -3.5760  -27.9673  -53.0578 O.2       16 UNK        -0.5000 
     94 N          -3.1382  -25.9642  -52.0987 N.am      17 UNK        -0.5000 
     95 CA         -4.1016  -25.1537  -52.8362 C.3       17 UNK         0.1400 
     96 CB         -3.3900  -23.8845  -53.3344 C.3       17 UNK        -0.1800 
     97 C          -5.2786  -24.7766  -51.9213 C.2       17 UNK         0.5000 
     98 O          -5.1675  -24.8493  -50.6947 O.2       17 UNK        -0.5000 
     99 N          -6.3853  -24.3434  -52.5349 N.am      18 UNK        -0.5000 
    100 CA        -7.5033  -23.7131  -51.8353 C.3       18 UNK         0.1400 
    101 CB        -8.7398  -23.7264  -52.7473 C.3       18 UNK        -0.1800 
    102 C         -7.1329  -22.2683  -51.4643 C.2       18 UNK         0.5000 
    103 O         -6.5060  -21.5825  -52.2743 O.2       18 UNK        -0.5000 
    104 N         -7.5601  -21.8082  -50.2823 N.am      19 UNK        -0.5000 
    105 CA        -7.2894  -20.4578  -49.7739 C.3       19 UNK         0.1400 
    106 CB        -7.7616  -20.3645  -48.3154 C.3       19 UNK        -0.1800 
    107 C         -7.9163  -19.3326  -50.6220 C.2       19 UNK         0.5000 
    108 O         -7.3701  -18.2308  -50.6652 O.2       19 UNK        -0.5000 
    109 N         -9.0350  -19.6369  -51.2954 N.am      20 UNK        -0.5000 
    110 CA        -9.7140  -18.7368  -52.2288 C.3       20 UNK         0.1400 
    111 CB       -11.1277  -19.2726  -52.5024 C.3       20 UNK        -0.1800 
    112 C         -8.9428  -18.5510  -53.5506 C.2       20 UNK         0.5000 
    113 O         -9.0105  -17.4733  -54.1427 O.2       20 UNK        -0.5000 
    114 N         -8.2284  -19.5976  -53.9873 N.am      21 UNK        -0.5000 
    115 CA        -7.3712  -19.5767  -55.1728 C.3       21 UNK         0.1400 
    116 CB        -7.2607  -20.9997  -55.7442 C.3       21 UNK        -0.1800 
    117 C         -5.9789  -19.0150  -54.8400 C.2       21 UNK         0.5000 
    118 O         -5.4328  -18.2297  -55.6148 O.2       21 UNK        -0.5000 
    119 N         -5.4443  -19.4280  -53.6844 N.am      22 UNK        -0.5000 
    120 CA        -4.1366  -19.0566  -53.1265 C.3       22 UNK         0.1400 
    121 C         -2.9086  -19.6965  -53.8475 C.2       22 UNK         0.5000 
    122 N         -3.0946  -20.6195  -54.7832 N.am      22 UNK        -0.7600 
    123 O         -1.7639  -19.3856  -53.5359 O.2       22 UNK        -0.5000 
    124 C124       -4.0025  -17.5238  -52.8874 C.3       23 UNK        -0.0398 
    125 S125       -3.1491  -17.1314  -51.3239 S.3       23 UNK        -0.2404 
    126 C126       -1.5994  -16.3999  -51.9330 C.3       23 UNK        -0.0205 
    127 H127        7.3737  -13.1028  -49.2738 H         1 UNK         0.0600 
    128 H128        7.4825  -14.2484  -50.6129 H         1 UNK         0.0600 
    129 H129        8.5552  -14.4137  -49.2186 H         1 UNK         0.0600 
    130 H130        5.6314  -13.4930  -47.9427 H         1 UNK         0.3000 
    131 H131        4.1796  -15.9796  -47.9745 H         1 UNK         0.0600 
    132 H132        2.7288  -14.8195  -46.2376 H         1 UNK         0.0800 
    133 H133        3.8343  -13.4799  -46.2244 H         1 UNK         0.0800 
    134 H134        0.1490  -13.4497  -48.3106 H         1 UNK         0.0800 
    135 H135        0.6712  -14.5352  -47.0611 H         1 UNK         0.0800 
    136 H136       -0.8810  -14.4547  -50.1613 H         1 UNK         0.1150 
    137 H137        0.0439  -18.4647  -51.3361 H         1 UNK         0.1150 
    138 H138        2.1230  -16.6557  -48.0536 H         1 UNK         0.1150 
    139 H139        1.4422  -19.8325  -49.9558 H         1 UNK         0.0800 
    140 H140        2.9070  -18.9004  -50.1452 H         1 UNK         0.0800 
    141 H141        0.1229  -18.9093  -47.5637 H         1 UNK         0.0800 
    142 H142        0.9984  -18.9330  -46.0679 H         1 UNK         0.0800 
    143 H143        1.1773  -21.4859  -46.2935 H         1 UNK         0.0600 
    144 H144       -0.9787  -19.9256  -45.3804 H         1 UNK         0.3000 
    145 H145       -3.0536  -22.4739  -44.0450 H         1 UNK         0.0600 
    146 H146       -2.7260  -21.0414  -42.0413 H         1 UNK         0.0600 
    147 H147       -1.3056  -22.0352  -42.3263 H         1 UNK         0.0600 
    148 H148       -1.2789  -20.3297  -42.7542 H         1 UNK         0.0600 
    149 H149       -3.1146  -19.5775  -44.2287 H         1 UNK         0.3000 
    150 H150       -5.1460  -19.4552  -47.1629 H         1 UNK         0.0600 
    151 H151       -6.7081  -19.8970  -45.2573 H         1 UNK         0.0600 
    152 H152       -6.6060  -18.1829  -45.6257 H         1 UNK         0.0600 
    153 H153       -5.7593  -18.8359  -44.2230 H         1 UNK         0.0600 
    154 H154       -4.1346  -17.4050  -45.4471 H         1 UNK         0.3000 
    155 H155       -1.0978  -16.8599  -47.2779 H         1 UNK         0.0600 
    156 H156       -3.6658  -15.2144  -47.0075 H         1 UNK         0.0600 
    157 H157       -2.0900  -14.6301  -47.5378 H         1 UNK         0.0600 
    158 H158       -2.9832  -15.7618  -48.5347 H         1 UNK         0.0600 
    159 H159       -1.8513  -15.3109  -45.1927 H         1 UNK         0.3000 
    160 H160       -1.6113  -16.9086  -42.3268 H         1 UNK         0.0600 
    161 H161        1.2093  -16.4819  -43.4325 H         1 UNK         0.0600 
    162 H162        0.6272  -17.8725  -42.5340 H         1 UNK         0.0600 
    163 H163        0.7783  -16.3187  -41.7313 H         1 UNK         0.0600 
    164 H164       -0.2842  -14.4575  -43.1857 H         1 UNK         0.3000 
    165 H165       -3.1341  -12.5076  -43.4791 H         1 UNK         0.0600 
    166 H166       -2.5240  -11.2014  -41.4537 H         1 UNK         0.0600 
    167 H167       -3.3636  -12.6730  -40.9941 H         1 UNK         0.0600 
    168 H168       -1.6162  -12.5720  -40.8131 H         1 UNK         0.0600 
    169 H169       -0.4511  -11.7752  -42.8238 H         1 UNK         0.3000 
    170 H170        1.0711  -12.3121  -45.9346 H         1 UNK         0.0600 
    171 H171       -0.2052  -10.2335  -46.4582 H         1 UNK         0.0600 
    172 H172        0.0962   -9.6239  -44.8349 H         1 UNK         0.0600 
    173 H173        1.4366   -9.8637  -45.9574 H         1 UNK         0.0600 
    174 H174        1.8865  -10.8467  -43.6299 H         1 UNK         0.3000 
    175 H175        3.6113  -11.7484  -42.4037 H         1 UNK         0.0600 
    176 H176        1.6757  -13.5405  -40.8118 H         1 UNK         0.0600 
    177 H177        2.8917  -12.4776  -40.1061 H         1 UNK         0.0600 
    178 H178        1.5344  -11.7941  -40.9849 H         1 UNK         0.0600 
    179 H179        3.6507  -14.6689  -42.6186 H         1 UNK         0.3000 
    180 H180        7.1094  -14.6714  -42.0116 H         1 UNK         0.0600 
    181 H181        5.1741  -16.1025  -40.1199 H         1 UNK         0.0600 
    182 H182        6.5374  -15.0983  -39.6577 H         1 UNK         0.0600 
    183 H183        6.8200  -16.6211  -40.4861 H         1 UNK         0.0600 
    184 H184        6.4123  -15.9064  -43.6796 H         1 UNK         0.3000 
    185 H185        5.7172  -18.0595  -44.4148 H         1 UNK         0.0600 
    186 H186        3.9075  -19.3966  -43.3011 H         1 UNK         0.0600 
    187 H187        2.6898  -18.4633  -44.1612 H         1 UNK         0.0600 
    188 H188        3.8187  -19.4840  -45.0511 H         1 UNK         0.0600 
    189 H189        3.4940  -17.0482  -45.9109 H         1 UNK         0.3000 
    190 H190       -1.8454  -20.4949  -48.0057 H         1 UNK         0.3000 
    191 H191       -1.4049  -21.9121  -50.4071 H         1 UNK         0.0600 
    192 H192       -4.0346  -21.1629  -49.0255 H         1 UNK         0.0600 
    193 H193       -3.8679  -21.6430  -50.7101 H         1 UNK         0.0600 
    194 H194       -3.1259  -20.1504  -50.1427 H         1 UNK         0.0600 
    195 H195       -3.1036  -22.9401  -47.3890 H         1 UNK         0.3000 
    196 H196       -3.8380  -25.5164  -48.2608 H         1 UNK         0.0600 
    197 H197       -4.1327  -25.9962  -45.8356 H         1 UNK         0.0600 
    198 H198       -4.7991  -24.4253  -46.2544 H         1 UNK         0.0600 
    199 H199       -3.2507  -24.5332  -45.4196 H         1 UNK         0.0600 
    200 H200       -0.8328  -24.4397  -46.6095 H         1 UNK         0.3000 
    201 H201        0.4276  -26.9803  -46.4439 H         1 UNK         0.0600 
    202 H202        1.1621  -25.0083  -45.1365 H         1 UNK         0.0600 
    203 H203        1.6432  -24.1713  -46.6104 H         1 UNK         0.0600 
    204 H204        2.4975  -25.6222  -46.0997 H         1 UNK         0.0600 
    205 H205        0.2433  -24.6296  -49.0927 H         1 UNK         0.3000 
    206 H206        2.0648  -26.0758  -50.8578 H         1 UNK         0.0600 
    207 H207        1.8227  -23.5879  -50.9328 H         1 UNK         0.0600 
    208 H208        1.4148  -24.3222  -52.4753 H         1 UNK         0.0600 
    209 H209        0.1358  -23.7596  -51.4096 H         1 UNK         0.0600 
    210 H210       -0.9941  -26.8079  -49.7994 H         1 UNK         0.3000 
    211 H211       -2.6072  -28.1771  -50.3415 H         1 UNK         0.0600 
    212 H212       -0.9152  -29.2012  -52.6766 H         1 UNK         0.0600 
    213 H213       -2.2660  -30.0234  -51.9117 H         1 UNK         0.0600 
    214 H214       -0.7833  -29.7620  -51.0096 H         1 UNK         0.0600 
    215 H215       -2.6652  -25.4796  -51.3374 H         1 UNK         0.3000 
    216 H216       -4.4894  -25.7010  -53.6977 H         1 UNK         0.0600 
    217 H217       -4.0681  -23.2549  -53.9113 H         1 UNK         0.0600 
    218 H218       -2.5480  -24.1331  -53.9804 H         1 UNK         0.0600 
    219 H219       -3.0093  -23.2824  -52.5087 H         1 UNK         0.0600 
    220 H220       -6.3936  -24.2756  -53.5418 H         1 UNK         0.3000 
    221 H221       -7.7285  -24.2768  -50.9274 H         1 UNK         0.0600 
    222 H222       -8.5694  -23.1706  -53.6704 H         1 UNK         0.0600 
    223 H223       -9.0180  -24.7452  -53.0173 H         1 UNK         0.0600 
    224 H224       -9.5995  -23.2778  -52.2480 H         1 UNK         0.0600 
    225 H225       -8.0780  -22.4238  -49.6717 H         1 UNK         0.3000 
    226 H226       -6.2087  -20.3047  -49.7913 H         1 UNK         0.0600 
    227 H227       -7.2272  -21.0735  -47.6823 H         1 UNK         0.0600 
    228 H228       -7.5834  -19.3679  -47.9095 H         1 UNK         0.0600 
    229 H229       -8.8291  -20.5681  -48.2239 H         1 UNK         0.0600 
    230 H230       -9.4264  -20.5602  -51.1839 H         1 UNK         0.3000 
    231 H231       -9.8062  -17.7562  -51.7569 H         1 UNK         0.0600 
    232 H232      -11.6712  -18.6116  -53.1789 H         1 UNK         0.0600 
    233 H233      -11.7082  -19.3420  -51.5823 H         1 UNK         0.0600 
    234 H234      -11.1027  -20.2623  -52.9603 H         1 UNK         0.0600 
    235 H235       -8.1842  -20.4263  -53.4124 H         1 UNK         0.3000 
    236 H236       -7.8219  -18.9396  -55.9369 H         1 UNK         0.0600 
    237 H237       -8.2409  -21.3900  -56.0182 H         1 UNK         0.0600 
    238 H238       -6.6440  -21.0110  -56.6438 H         1 UNK         0.0600 
    239 H239       -6.8131  -21.6923  -55.0307 H         1 UNK         0.0600 
    240 H240       -5.9457  -20.1335  -53.1478 H         1 UNK         0.3000 
    241 H241       -4.1527  -19.5405  -52.1513 H         1 UNK         0.0600 
    242 H242       -4.0238  -20.8943  -55.0536 H         1 UNK         0.3800 
    243 H243       -2.2937  -21.0317  -55.2340 H         1 UNK         0.3800 
    244 H244       -3.5221  -17.0289  -53.7329 H         1 UNK         0.0800 
    245 H245       -4.9910  -17.0691  -52.8072 H         1 UNK         0.0800 
    246 H246       -1.2501  -16.9322  -52.8180 H         1 UNK         0.0800 
    247 H247       -1.7830  -15.3708  -52.2451 H         1 UNK         0.0800 
@<TRIPOS>BOND
     1    1    2 1    
     2    1  127 1    
     3    1  128 1    
     4    1  129 1    
     5    2    3 2    
     6    2    4 am   BACKBONE|DICT|INTERRES
     7    4    5 1    
     8    4  130 1    
     9    5    6 1    
    10    5   65 1    
    11    5  131 1    
    12    6    7 1    
    13    6  132 1    
    14    6  133 1    
    15    7    8 1    
    16    8    9 1    
    17    8  134 1    
    18    8  135 1    
    19    9   10 ar   
    20    9   14 ar   
    21   10   11 ar   
    22   10  136 1    
    23   11   12 ar   
    24   11  126 1    
    25   12   13 ar   
    26   12  137 1    
    27   13   14 ar   
    28   13   15 1    
    29   14  138 1    
    30   15   16 1    
    31   15  139 1    
    32   15  140 1    
    33   16   17 1    
    34   17   18 1    
    35   17  141 1    
    36   17  142 1    
    37   18   19 1    
    38   18   67 1    
    39   18  143 1    
    40   19   20 am   BACKBONE|DICT|INTERRES
    41   19  144 1    
    42   20   21 2    
    43   20   22 1    
    44   22   23 1    
    45   22   24 1    
    46   22  145 1    
    47   23  146 1    
    48   23  147 1    
    49   23  148 1    
    50   24   25 am   BACKBONE|DICT|INTERRES
    51   24  149 1    
    52   25   26 2    
    53   25   27 1    
    54   27   28 1    
    55   27   29 1    
    56   27  150 1    
    57   28  151 1    
    58   28  152 1    
    59   28  153 1    
    60   29   30 am   BACKBONE|DICT|INTERRES
    61   29  154 1    
    62   30   31 2    
    63   30   32 1    
    64   32   33 1    
    65   32   34 1    
    66   32  155 1    
    67   33  156 1    
    68   33  157 1    
    69   33  158 1    
    70   34   35 am   BACKBONE|DICT|INTERRES
    71   34  159 1    
    72   35   36 2    
    73   35   37 1    
    74   37   38 1    
    75   37   39 1    
    76   37  160 1    
    77   38  161 1    
    78   38  162 1    
    79   38  163 1    
    80   39   40 am   BACKBONE|DICT|INTERRES
    81   39  164 1    
    82   40   41 2    
    83   40   42 1    
    84   42   43 1    
    85   42   44 1    
    86   42  165 1    
    87   43  166 1    
    88   43  167 1    
    89   43  168 1    
    90   44   45 am   BACKBONE|DICT|INTERRES
    91   44  169 1    
    92   45   46 2    
    93   45   47 1    
    94   47   48 1    
    95   47   49 1    
    96   47  170 1    
    97   48  171 1    
    98   48  172 1    
    99   48  173 1    
   100   49   50 am   BACKBONE|DICT|INTERRES
   101   49  174 1    
   102   50   51 2    
   103   50   52 1    
   104   52   53 1    
   105   52   54 1    
   106   52  175 1    
   107   53  176 1    
   108   53  177 1    
   109   53  178 1    
   110   54   55 am   BACKBONE|DICT|INTERRES
   111   54  179 1    
   112   55   56 2    
   113   55   57 1    
   114   57   58 1    
   115   57   59 1    
   116   57  180 1    
   117   58  181 1    
   118   58  182 1    
   119   58  183 1    
   120   59   60 am   BACKBONE|DICT|INTERRES
   121   59  184 1    
   122   60   61 2    
   123   60   62 1    
   124   62   63 1    
   125   62   64 1    
   126   62  185 1    
   127   63  186 1    
   128   63  187 1    
   129   63  188 1    
   130   64   65 am   BACKBONE|DICT|INTERRES
   131   64  189 1    
   132   65   66 2    
   133   67   68 2    
   134   67   69 am   BACKBONE|DICT|INTERRES
   135   69   70 1    
   136   69  190 1    
   137   70   71 1    
   138   70   72 1    
   139   70  191 1    
   140   71  192 1    
   141   71  193 1    
   142   71  194 1    
   143   72   73 2    
   144   72   74 am   BACKBONE|DICT|INTERRES
   145   74   75 1    
   146   74  195 1    
   147   75   76 1    
   148   75   77 1    
   149   75  196 1    
   150   76  197 1    
   151   76  198 1    
   152   76  199 1    
   153   77   78 2    
   154   77   79 am   BACKBONE|DICT|INTERRES
   155   79   80 1    
   156   79  200 1    
   157   80   81 1    
   158   80   82 1    
   159   80  201 1    
   160   81  202 1    
   161   81  203 1    
   162   81  204 1    
   163   82   83 2    
   164   82   84 am   BACKBONE|DICT|INTERRES
   165   84   85 1    
   166   84  205 1    
   167   85   86 1    
   168   85   87 1    
   169   85  206 1    
   170   86  207 1    
   171   86  208 1    
   172   86  209 1    
   173   87   88 2    
   174   87   89 am   BACKBONE|DICT|INTERRES
   175   89   90 1    
   176   89  210 1    
   177   90   91 1    
   178   90   92 1    
   179   90  211 1    
   180   91  212 1    
   181   91  213 1    
   182   91  214 1    
   183   92   93 2    
   184   92   94 am   BACKBONE|DICT|INTERRES
   185   94   95 1    
   186   94  215 1    
   187   95   96 1    
   188   95   97 1    
   189   95  216 1    
   190   96  217 1    
   191   96  218 1    
   192   96  219 1    
   193   97   98 2    
   194   97   99 am   BACKBONE|DICT|INTERRES
   195   99  100 1    
   196   99  220 1    
   197  100  101 1    
   198  100  102 1    
   199  100  221 1    
   200  101  222 1    
   201  101  223 1    
   202  101  224 1    
   203  102  103 2    
   204  102  104 am   BACKBONE|DICT|INTERRES
   205  104  105 1    
   206  104  225 1    
   207  105  106 1    
   208  105  107 1    
   209  105  226 1    
   210  106  227 1    
   211  106  228 1    
   212  106  229 1    
   213  107  108 2    
   214  107  109 am   BACKBONE|DICT|INTERRES
   215  109  110 1    
   216  109  230 1    
   217  110  111 1    
   218  110  112 1    
   219  110  231 1    
   220  111  232 1    
   221  111  233 1    
   222  111  234 1    
   223  112  113 2    
   224  112  114 am   BACKBONE|DICT|INTERRES
   225  114  115 1    
   226  114  235 1    
   227  115  116 1    
   228  115  117 1    
   229  115  236 1    
   230  116  237 1    
   231  116  238 1    
   232  116  239 1    
   233  117  118 2    
   234  117  119 am   BACKBONE|DICT|INTERRES
   235  119  120 1    
   236  119  240 1    
   237  120  121 1    
   238  120  124 1    
   239  120  241 1    
   240  121  122 am   BACKBONE|DICT|INTERRES
   241  121  123 2    
   242  122  242 1    
   243  122  243 1    
   244  124  125 1    
   245  124  244 1    
   246  124  245 1    
   247  125  126 1    
   248  126  246 1    
   249  126  247 1    
@<TRIPOS>SUBSTRUCTURE
     1 UNK         1 GROUP             0       ****    0 ROOT    
