@<TRIPOS>MOLECULE
3R540
247   249    1
SMALL
USER_CHARGES


@<TRIPOS>ATOM
      1 CA          3.5160  -15.2079  -42.4589 C.3       0 UNK        -0.1800 
      2 C           3.6850  -14.1524  -43.5376 C.2       0 UNK         0.5000 
      3 O           2.9584  -13.1574  -43.5575 O.2       0 UNK        -0.5000 
      4 N           4.6620  -14.3487  -44.4315 N.am      1 UNK        -0.5000 
      5 CA          4.9359  -13.4673  -45.5734 C.3       1 UNK         0.1400 
      6 C6          5.8582  -14.1232  -46.6280 C.3       23 UNK        -0.0398 
      7 S7          5.2201  -15.6875  -47.3246 S.3       23 UNK        -0.2404 
      8 C8          3.4967  -15.2591  -47.7608 C.3       23 UNK        -0.0205 
      9 C9          2.9215  -16.0781  -48.9117 C.ar      23 UNK        -0.0193 
     10 C10         2.0462  -15.4613  -49.8093 C.ar      23 UNK        -0.1150 
     11 C11         1.5111  -16.1572  -50.8964 C.ar      23 UNK        -0.0193 
     12 C12         1.8609  -17.5042  -51.0722 C.ar      23 UNK        -0.1150 
     13 C13         2.7136  -18.1459  -50.1701 C.ar      23 UNK        -0.0193 
     14 C14         3.2384  -17.4281  -49.0929 C.ar      23 UNK        -0.1150 
     15 C15         3.1068  -19.6016  -50.3832 C.3       23 UNK        -0.0205 
     16 S16         2.6079  -20.6731  -48.9984 S.3       23 UNK        -0.2404 
     17 C17         0.8013  -20.7737  -49.2299 C.3       23 UNK        -0.0398 
     18 CA          0.1850  -21.9196  -48.3894 C.3       11 UNK         0.1400 
     19 N           0.4377  -21.7512  -46.9559 N.am      11 UNK        -0.5000 
     20 C           0.2264  -22.6755  -46.0134 C.2       10 UNK         0.5000 
     21 O          -0.2291  -23.7916  -46.2585 O.2       10 UNK        -0.5000 
     22 CA          0.4978  -22.2832  -44.5487 C.3       10 UNK         0.1400 
     23 CB          1.2638  -23.3777  -43.7791 C.3       10 UNK        -0.1800 
     24 N           1.1068  -20.9627  -44.3693 N.am      10 UNK        -0.5000 
     25 C           2.3639  -20.5664  -44.6185 C.2       9 UNK         0.5000 
     26 O           3.2335  -21.2954  -45.0948 O.2       9 UNK        -0.5000 
     27 CA          2.7103  -19.0987  -44.2780 C.3       9 UNK         0.1400 
     28 CB          3.0007  -18.3000  -45.5563 C.3       9 UNK        -0.1800 
     29 N           1.6540  -18.4125  -43.5287 N.am      9 UNK        -0.5000 
     30 C           1.3527  -18.6327  -42.2406 C.2       8 UNK         0.5000 
     31 O           2.0100  -19.3618  -41.4981 O.2       8 UNK        -0.5000 
     32 CA          0.0626  -17.9762  -41.7161 C.3       8 UNK         0.1400 
     33 CB          0.3462  -16.5849  -41.1358 C.3       8 UNK        -0.1800 
     34 N          -0.9653  -17.8751  -42.7563 N.am      8 UNK        -0.5000 
     35 C          -1.6734  -18.9160  -43.2174 C.2       7 UNK         0.5000 
     36 O          -1.5473  -20.0655  -42.7984 O.2       7 UNK        -0.5000 
     37 CA         -2.6523  -18.6395  -44.3703 C.3       7 UNK         0.1400 
     38 CB         -3.9868  -18.0978  -43.8390 C.3       7 UNK        -0.1800 
     39 N          -2.1030  -17.7059  -45.3542 N.am      7 UNK        -0.5000 
     40 C          -1.1484  -18.0177  -46.2419 C.2       6 UNK         0.5000 
     41 O          -0.6942  -19.1532  -46.3757 O.2       6 UNK        -0.5000 
     42 CA         -0.6089  -16.8795  -47.1298 C.3       6 UNK         0.1400 
     43 CB         -1.3466  -16.8768  -48.4757 C.3       6 UNK        -0.1800 
     44 N          -0.7083  -15.5494  -46.5190 N.am      6 UNK        -0.5000 
     45 C          -0.1044  -15.1764  -45.3830 C.2       5 UNK         0.5000 
     46 O           0.6345  -15.9139  -44.7272 O.2       5 UNK        -0.5000 
     47 CA         -0.4039  -13.7524  -44.8924 C.3       5 UNK         0.1400 
     48 CB         -0.5270  -13.6807  -43.3617 C.3       5 UNK        -0.1800 
     49 N           0.6458  -12.8365  -45.3167 N.am      5 UNK        -0.5000 
     50 C           0.6370  -12.1345  -46.4568 C.2       4 UNK         0.5000 
     51 O          -0.2264  -12.2715  -47.3252 O.2       4 UNK        -0.5000 
     52 CA          1.7721  -11.1011  -46.6499 C.3       4 UNK         0.1400 
     53 CB          1.3713   -9.9406  -47.5835 C.3       4 UNK        -0.1800 
     54 N           2.3167  -10.5868  -45.3852 N.am      4 UNK        -0.5000 
     55 C           1.6647   -9.9248  -44.4138 C.2       3 UNK         0.5000 
     56 O           0.4930   -9.5570  -44.5071 O.2       3 UNK        -0.5000 
     57 CA          2.4339   -9.6569  -43.1018 C.3       3 UNK         0.1400 
     58 CB          1.6402  -10.1775  -41.8907 C.3       3 UNK        -0.1800 
     59 N           3.7445  -10.3094  -43.0998 N.am      3 UNK        -0.5000 
     60 C           4.9297   -9.6896  -43.1884 C.2       2 UNK         0.5000 
     61 O           5.0643   -8.4657  -43.2027 O.2       2 UNK        -0.5000 
     62 CA          6.1790  -10.5907  -43.3132 C.3       2 UNK         0.1400 
     63 CB          6.8183  -10.8165  -41.9348 C.3       2 UNK        -0.1800 
     64 N           5.8944  -11.8925  -43.9258 N.am      2 UNK        -0.5000 
     65 C           5.4453  -12.0659  -45.1772 C.2       1 UNK         0.5000 
     66 O           5.3409  -11.1472  -45.9893 O.2       1 UNK        -0.5000 
     67 C          -1.3235  -22.0646  -48.6646 C.2       11 UNK         0.5000 
     68 O          -1.7398  -23.0143  -49.3313 O.2       11 UNK        -0.5000 
     69 N          -2.1202  -21.1570  -48.0826 N.am      12 UNK        -0.5000 
     70 CA         -3.5799  -21.1827  -48.1861 C.3       12 UNK         0.1400 
     71 CB         -4.1491  -19.7872  -47.8904 C.3       12 UNK        -0.1800 
     72 C          -4.2146  -22.2463  -47.2722 C.2       12 UNK         0.5000 
     73 O          -5.3124  -22.7134  -47.5720 O.2       12 UNK        -0.5000 
     74 N          -3.5118  -22.6231  -46.1927 N.am      13 UNK        -0.5000 
     75 CA         -3.9258  -23.6726  -45.2585 C.3       13 UNK         0.1400 
     76 CB         -3.1279  -23.5530  -43.9516 C.3       13 UNK        -0.1800 
     77 C          -3.7718  -25.0798  -45.8635 C.2       13 UNK         0.5000 
     78 O          -4.6452  -25.9233  -45.6588 O.2       13 UNK        -0.5000 
     79 N          -2.6835  -25.2996  -46.6189 N.am      14 UNK        -0.5000 
     80 CA         -2.4393  -26.5168  -47.3984 C.3       14 UNK         0.1400 
     81 CB         -1.0043  -26.4935  -47.9465 C.3       14 UNK        -0.1800 
     82 C          -3.4503  -26.6946  -48.5464 C.2       14 UNK         0.5000 
     83 O          -3.7949  -27.8290  -48.8793 O.2       14 UNK        -0.5000 
     84 N          -3.9209  -25.5639  -49.0948 N.am      15 UNK        -0.5000 
     85 CA         -5.0024  -25.4298  -50.0726 C.3       15 UNK         0.1400 
     86 CB         -6.3544  -25.8131  -49.4348 C.3       15 UNK        -0.1800 
     87 C          -4.7244  -26.1756  -51.3930 C.2       15 UNK         0.5000 
     88 O          -5.6053  -26.8507  -51.9297 O.2       15 UNK        -0.5000 
     89 N          -3.4903  -26.0317  -51.8978 N.am      16 UNK        -0.5000 
     90 CA         -2.9526  -26.7273  -53.0745 C.3       16 UNK         0.1400 
     91 CB         -1.4762  -26.3358  -53.2396 C.3       16 UNK        -0.1800 
     92 C          -3.7221  -26.4857  -54.3912 C.2       16 UNK         0.5000 
     93 O          -3.6366  -27.3067  -55.3047 O.2       16 UNK        -0.5000 
     94 N          -4.4707  -25.3786  -54.4574 N.am      17 UNK        -0.5000 
     95 CA         -5.3368  -24.9998  -55.5740 C.3       17 UNK         0.1400 
     96 CB         -5.4938  -23.4687  -55.5523 C.3       17 UNK        -0.1800 
     97 C          -6.7228  -25.6816  -55.5386 C.2       17 UNK         0.5000 
     98 O          -7.5319  -25.4161  -56.4281 O.2       17 UNK        -0.5000 
     99 N          -6.9962  -26.4933  -54.5018 N.am      18 UNK        -0.5000 
    100 CA        -8.3146  -27.0130  -54.1048 C.3       18 UNK         0.1400 
    101 CB        -8.9318  -27.9193  -55.1907 C.3       18 UNK        -0.1800 
    102 C         -9.2515  -25.8743  -53.6426 C.2       18 UNK         0.5000 
    103 O        -10.4640  -25.9198  -53.8567 O.2       18 UNK        -0.5000 
    104 N         -8.6363  -24.8652  -53.0215 N.am      19 UNK        -0.5000 
    105 CA        -9.1668  -23.5945  -52.5515 C.3       19 UNK         0.1400 
    106 CB        -9.6037  -22.7231  -53.7459 C.3       19 UNK        -0.1800 
    107 C         -8.0274  -22.9235  -51.7652 C.2       19 UNK         0.5000 
    108 O         -6.9120  -23.4561  -51.7434 O.2       19 UNK        -0.5000 
    109 N         -8.3066  -21.7704  -51.1447 N.am      20 UNK        -0.5000 
    110 CA        -7.3572  -20.9617  -50.3713 C.3       20 UNK         0.1400 
    111 CB        -8.1433  -19.9029  -49.5782 C.3       20 UNK        -0.1800 
    112 C         -6.2553  -20.3338  -51.2548 C.2       20 UNK         0.5000 
    113 O         -6.2908  -19.1351  -51.5413 O.2       20 UNK        -0.5000 
    114 N         -5.3200  -21.1830  -51.6962 N.am      21 UNK        -0.5000 
    115 CA        -4.1996  -20.9009  -52.5901 C.3       21 UNK         0.1400 
    116 CB        -3.3238  -22.1605  -52.6903 C.3       21 UNK        -0.1800 
    117 C         -3.3642  -19.6911  -52.1399 C.2       21 UNK         0.5000 
    118 O         -2.7601  -19.7307  -51.0677 O.2       21 UNK        -0.5000 
    119 N         -3.3560  -18.6434  -52.9716 N.am      22 UNK        -0.5000 
    120 CA        -2.6835  -17.3583  -52.7220 C.3       22 UNK         0.1400 
    121 C         -3.3981  -16.4400  -51.6800 C.2       22 UNK         0.5000 
    122 N         -4.5848  -16.7763  -51.1869 N.am      22 UNK        -0.7600 
    123 O         -2.8902  -15.3772  -51.3374 O.2       22 UNK        -0.5000 
    124 C124       -1.1635  -17.5397  -52.4389 C.3       23 UNK        -0.0398 
    125 S125       -0.1004  -16.3085  -53.2627 S.3       23 UNK        -0.2404 
    126 C126        0.5736  -15.3900  -51.8351 C.3       23 UNK        -0.0205 
    127 H127        4.4770  -15.6269  -42.1610 H         1 UNK         0.0600 
    128 H128        3.0407  -14.7813  -41.5756 H         1 UNK         0.0600 
    129 H129        2.8902  -16.0149  -42.8343 H         1 UNK         0.0600 
    130 H130        5.2310  -15.1816  -44.3738 H         1 UNK         0.3000 
    131 H131        3.9722  -13.2752  -46.0432 H         1 UNK         0.0600 
    132 H132        6.8425  -14.3199  -46.1999 H         1 UNK         0.0800 
    133 H133        6.0242  -13.4426  -47.4654 H         1 UNK         0.0800 
    134 H134        3.4649  -14.2049  -48.0389 H         1 UNK         0.0800 
    135 H135        2.8578  -15.3769  -46.8844 H         1 UNK         0.0800 
    136 H136        1.7837  -14.4218  -49.6680 H         1 UNK         0.1150 
    137 H137        1.4829  -18.0659  -51.9122 H         1 UNK         0.1150 
    138 H138        3.9055  -17.9258  -48.4044 H         1 UNK         0.1150 
    139 H139        2.6895  -19.9925  -51.3124 H         1 UNK         0.0800 
    140 H140        4.1909  -19.6553  -50.4905 H         1 UNK         0.0800 
    141 H141        0.3636  -19.8103  -48.9624 H         1 UNK         0.0800 
    142 H142        0.5929  -20.9262  -50.2906 H         1 UNK         0.0800 
    143 H143        0.6581  -22.8545  -48.6978 H         1 UNK         0.0600 
    144 H144        0.7295  -20.8290  -46.6608 H         1 UNK         0.3000 
    145 H145       -0.4836  -22.1959  -44.0850 H         1 UNK         0.0600 
    146 H146        1.4282  -23.0887  -42.7410 H         1 UNK         0.0600 
    147 H147        0.7024  -24.3128  -43.7692 H         1 UNK         0.0600 
    148 H148        2.2340  -23.5886  -44.2290 H         1 UNK         0.0600 
    149 H149        0.4803  -20.2654  -43.9910 H         1 UNK         0.3000 
    150 H150        3.6152  -19.1074  -43.6672 H         1 UNK         0.0600 
    151 H151        3.2494  -17.2641  -45.3261 H         1 UNK         0.0600 
    152 H152        2.1464  -18.3000  -46.2327 H         1 UNK         0.0600 
    153 H153        3.8465  -18.7250  -46.0978 H         1 UNK         0.0600 
    154 H154        1.1102  -17.7245  -44.0407 H         1 UNK         0.3000 
    155 H155       -0.3233  -18.6037  -40.9096 H         1 UNK         0.0600 
    156 H156       -0.5528  -16.1451  -40.7039 H         1 UNK         0.0600 
    157 H157        0.7183  -15.9056  -41.8995 H         1 UNK         0.0600 
    158 H158        1.0974  -16.6351  -40.3465 H         1 UNK         0.0600 
    159 H159       -1.0844  -16.9716  -43.1889 H         1 UNK         0.3000 
    160 H160       -2.8470  -19.5947  -44.8615 H         1 UNK         0.0600 
    161 H161       -3.8648  -17.1325  -43.3461 H         1 UNK         0.0600 
    162 H162       -4.4253  -18.7844  -43.1135 H         1 UNK         0.0600 
    163 H163       -4.7098  -17.9742  -44.6455 H         1 UNK         0.0600 
    164 H164       -2.4466  -16.7575  -45.3301 H         1 UNK         0.3000 
    165 H165        0.4465  -17.0808  -47.3210 H         1 UNK         0.0600 
    166 H166       -2.4085  -16.6588  -48.3559 H         1 UNK         0.0600 
    167 H167       -0.9285  -16.1329  -49.1528 H         1 UNK         0.0600 
    168 H168       -1.2668  -17.8464  -48.9692 H         1 UNK         0.0600 
    169 H169       -1.2657  -14.8680  -47.0154 H         1 UNK         0.3000 
    170 H170       -1.3633  -13.4370  -45.3085 H         1 UNK         0.0600 
    171 H171       -1.2449  -14.4109  -42.9864 H         1 UNK         0.0600 
    172 H172        0.4277  -13.8666  -42.8707 H         1 UNK         0.0600 
    173 H173       -0.8693  -12.6952  -43.0454 H         1 UNK         0.0600 
    174 H174        1.4277  -12.7336  -44.6763 H         1 UNK         0.3000 
    175 H175        2.5866  -11.6385  -47.1361 H         1 UNK         0.0600 
    176 H176        2.1914   -9.2333  -47.7068 H         1 UNK         0.0600 
    177 H177        1.1109  -10.3086  -48.5765 H         1 UNK         0.0600 
    178 H178        0.5092   -9.3925  -47.2026 H         1 UNK         0.0600 
    179 H179        3.2948  -10.7870  -45.2264 H         1 UNK         0.3000 
    180 H180        2.5409   -8.5749  -43.0050 H         1 UNK         0.0600 
    181 H181        2.1738   -9.9875  -40.9594 H         1 UNK         0.0600 
    182 H182        0.6698   -9.6857  -41.8129 H         1 UNK         0.0600 
    183 H183        1.4602  -11.2513  -41.9609 H         1 UNK         0.0600 
    184 H184        3.7188  -11.3241  -43.1018 H         1 UNK         0.3000 
    185 H185        6.9001  -10.0698  -43.9465 H         1 UNK         0.0600 
    186 H186        7.7419  -11.3898  -42.0170 H         1 UNK         0.0600 
    187 H187        7.0680   -9.8668  -41.4599 H         1 UNK         0.0600 
    188 H188        6.1472  -11.3532  -41.2630 H         1 UNK         0.0600 
    189 H189        5.9417  -12.6990  -43.3200 H         1 UNK         0.3000 
    190 H190       -1.6988  -20.4215  -47.5243 H         1 UNK         0.3000 
    191 H191       -3.8476  -21.4383  -49.2132 H         1 UNK         0.0600 
    192 H192       -5.2311  -19.7740  -48.0223 H         1 UNK         0.0600 
    193 H193       -3.7329  -19.0400  -48.5665 H         1 UNK         0.0600 
    194 H194       -3.9429  -19.4700  -46.8705 H         1 UNK         0.0600 
    195 H195       -2.6087  -22.2024  -46.0410 H         1 UNK         0.3000 
    196 H196       -4.9814  -23.5187  -45.0237 H         1 UNK         0.0600 
    197 H197       -3.5452  -24.2089  -43.1867 H         1 UNK         0.0600 
    198 H198       -3.1524  -22.5369  -43.5568 H         1 UNK         0.0600 
    199 H199       -2.0864  -23.8429  -44.0867 H         1 UNK         0.0600 
    200 H200       -1.9599  -24.5884  -46.6653 H         1 UNK         0.3000 
    201 H201       -2.5387  -27.3743  -46.7298 H         1 UNK         0.0600 
    202 H202       -0.2748  -26.4605  -47.1370 H         1 UNK         0.0600 
    203 H203       -0.8320  -25.6274  -48.5868 H         1 UNK         0.0600 
    204 H204       -0.7949  -27.3868  -48.5362 H         1 UNK         0.0600 
    205 H205       -3.5234  -24.6954  -48.7633 H         1 UNK         0.3000 
    206 H206       -5.0373  -24.3690  -50.3180 H         1 UNK         0.0600 
    207 H207       -6.5419  -25.2271  -48.5348 H         1 UNK         0.0600 
    208 H208       -7.1816  -25.6265  -50.1200 H         1 UNK         0.0600 
    209 H209       -6.3893  -26.8681  -49.1621 H         1 UNK         0.0600 
    210 H210       -2.8354  -25.4617  -51.3816 H         1 UNK         0.3000 
    211 H211       -3.0016  -27.7984  -52.8683 H         1 UNK         0.0600 
    212 H212       -1.3623  -25.2645  -53.4109 H         1 UNK         0.0600 
    213 H213       -1.0247  -26.8540  -54.0868 H         1 UNK         0.0600 
    214 H214       -0.8962  -26.5985  -52.3546 H         1 UNK         0.0600 
    215 H215       -4.4899  -24.7765  -53.6487 H         1 UNK         0.3000 
    216 H216       -4.8560  -25.2830  -56.5125 H         1 UNK         0.0600 
    217 H217       -6.0868  -23.1209  -56.3991 H         1 UNK         0.0600 
    218 H218       -4.5257  -22.9712  -55.6136 H         1 UNK         0.0600 
    219 H219       -5.9911  -23.1277  -54.6429 H         1 UNK         0.0600 
    220 H220       -6.2662  -26.6425  -53.8119 H         1 UNK         0.3000 
    221 H221       -8.1386  -27.6336  -53.2250 H         1 UNK         0.0600 
    222 H222       -9.2406  -27.3545  -56.0703 H         1 UNK         0.0600 
    223 H223       -8.2265  -28.6855  -55.5124 H         1 UNK         0.0600 
    224 H224       -9.8159  -28.4315  -54.8098 H         1 UNK         0.0600 
    225 H225       -7.6417  -24.9449  -52.8424 H         1 UNK         0.3000 
    226 H226      -10.0076  -23.7775  -51.8804 H         1 UNK         0.0600 
    227 H227       -9.9867  -21.7576  -53.4145 H         1 UNK         0.0600 
    228 H228       -8.7725  -22.5324  -54.4263 H         1 UNK         0.0600 
    229 H229      -10.3988  -23.1999  -54.3187 H         1 UNK         0.0600 
    230 H230       -9.2373  -21.3892  -51.2326 H         1 UNK         0.3000 
    231 H231       -6.8631  -21.6145  -49.6484 H         1 UNK         0.0600 
    232 H232       -7.4729  -19.2765  -48.9887 H         1 UNK         0.0600 
    233 H233       -8.8426  -20.3696  -48.8843 H         1 UNK         0.0600 
    234 H234       -8.7120  -19.2449  -50.2365 H         1 UNK         0.0600 
    235 H235       -5.4798  -22.1616  -51.4859 H         1 UNK         0.3000 
    236 H236       -4.6183  -20.6988  -53.5778 H         1 UNK         0.0600 
    237 H237       -2.8907  -22.4264  -51.7256 H         1 UNK         0.0600 
    238 H238       -3.8999  -23.0144  -53.0407 H         1 UNK         0.0600 
    239 H239       -2.5010  -22.0113  -53.3904 H         1 UNK         0.0600 
    240 H240       -3.9058  -18.6869  -53.8177 H         1 UNK         0.3000 
    241 H241       -2.7859  -16.8248  -53.6674 H         1 UNK         0.0600 
    242 H242       -5.0330  -16.1566  -50.5323 H         1 UNK         0.3800 
    243 H243       -5.0483  -17.6411  -51.4495 H         1 UNK         0.3800 
    244 H244       -0.8228  -18.5065  -52.8119 H         1 UNK         0.0800 
    245 H245       -0.9690  -17.5657  -51.3665 H         1 UNK         0.0800 
    246 H246        1.1150  -14.5275  -52.2260 H         1 UNK         0.0800 
    247 H247       -0.2574  -14.9877  -51.2550 H         1 UNK         0.0800 
@<TRIPOS>BOND
     1    1    2 1    
     2    1  127 1    
     3    1  128 1    
     4    1  129 1    
     5    2    3 2    
     6    2    4 am   BACKBONE|DICT|INTERRES
     7    4    5 1    
     8    4  130 1    
     9    5    6 1    
    10    5   65 1    
    11    5  131 1    
    12    6    7 1    
    13    6  132 1    
    14    6  133 1    
    15    7    8 1    
    16    8    9 1    
    17    8  134 1    
    18    8  135 1    
    19    9   10 ar   
    20    9   14 ar   
    21   10   11 ar   
    22   10  136 1    
    23   11   12 ar   
    24   11  126 1    
    25   12   13 ar   
    26   12  137 1    
    27   13   14 ar   
    28   13   15 1    
    29   14  138 1    
    30   15   16 1    
    31   15  139 1    
    32   15  140 1    
    33   16   17 1    
    34   17   18 1    
    35   17  141 1    
    36   17  142 1    
    37   18   19 1    
    38   18   67 1    
    39   18  143 1    
    40   19   20 am   BACKBONE|DICT|INTERRES
    41   19  144 1    
    42   20   21 2    
    43   20   22 1    
    44   22   23 1    
    45   22   24 1    
    46   22  145 1    
    47   23  146 1    
    48   23  147 1    
    49   23  148 1    
    50   24   25 am   BACKBONE|DICT|INTERRES
    51   24  149 1    
    52   25   26 2    
    53   25   27 1    
    54   27   28 1    
    55   27   29 1    
    56   27  150 1    
    57   28  151 1    
    58   28  152 1    
    59   28  153 1    
    60   29   30 am   BACKBONE|DICT|INTERRES
    61   29  154 1    
    62   30   31 2    
    63   30   32 1    
    64   32   33 1    
    65   32   34 1    
    66   32  155 1    
    67   33  156 1    
    68   33  157 1    
    69   33  158 1    
    70   34   35 am   BACKBONE|DICT|INTERRES
    71   34  159 1    
    72   35   36 2    
    73   35   37 1    
    74   37   38 1    
    75   37   39 1    
    76   37  160 1    
    77   38  161 1    
    78   38  162 1    
    79   38  163 1    
    80   39   40 am   BACKBONE|DICT|INTERRES
    81   39  164 1    
    82   40   41 2    
    83   40   42 1    
    84   42   43 1    
    85   42   44 1    
    86   42  165 1    
    87   43  166 1    
    88   43  167 1    
    89   43  168 1    
    90   44   45 am   BACKBONE|DICT|INTERRES
    91   44  169 1    
    92   45   46 2    
    93   45   47 1    
    94   47   48 1    
    95   47   49 1    
    96   47  170 1    
    97   48  171 1    
    98   48  172 1    
    99   48  173 1    
   100   49   50 am   BACKBONE|DICT|INTERRES
   101   49  174 1    
   102   50   51 2    
   103   50   52 1    
   104   52   53 1    
   105   52   54 1    
   106   52  175 1    
   107   53  176 1    
   108   53  177 1    
   109   53  178 1    
   110   54   55 am   BACKBONE|DICT|INTERRES
   111   54  179 1    
   112   55   56 2    
   113   55   57 1    
   114   57   58 1    
   115   57   59 1    
   116   57  180 1    
   117   58  181 1    
   118   58  182 1    
   119   58  183 1    
   120   59   60 am   BACKBONE|DICT|INTERRES
   121   59  184 1    
   122   60   61 2    
   123   60   62 1    
   124   62   63 1    
   125   62   64 1    
   126   62  185 1    
   127   63  186 1    
   128   63  187 1    
   129   63  188 1    
   130   64   65 am   BACKBONE|DICT|INTERRES
   131   64  189 1    
   132   65   66 2    
   133   67   68 2    
   134   67   69 am   BACKBONE|DICT|INTERRES
   135   69   70 1    
   136   69  190 1    
   137   70   71 1    
   138   70   72 1    
   139   70  191 1    
   140   71  192 1    
   141   71  193 1    
   142   71  194 1    
   143   72   73 2    
   144   72   74 am   BACKBONE|DICT|INTERRES
   145   74   75 1    
   146   74  195 1    
   147   75   76 1    
   148   75   77 1    
   149   75  196 1    
   150   76  197 1    
   151   76  198 1    
   152   76  199 1    
   153   77   78 2    
   154   77   79 am   BACKBONE|DICT|INTERRES
   155   79   80 1    
   156   79  200 1    
   157   80   81 1    
   158   80   82 1    
   159   80  201 1    
   160   81  202 1    
   161   81  203 1    
   162   81  204 1    
   163   82   83 2    
   164   82   84 am   BACKBONE|DICT|INTERRES
   165   84   85 1    
   166   84  205 1    
   167   85   86 1    
   168   85   87 1    
   169   85  206 1    
   170   86  207 1    
   171   86  208 1    
   172   86  209 1    
   173   87   88 2    
   174   87   89 am   BACKBONE|DICT|INTERRES
   175   89   90 1    
   176   89  210 1    
   177   90   91 1    
   178   90   92 1    
   179   90  211 1    
   180   91  212 1    
   181   91  213 1    
   182   91  214 1    
   183   92   93 2    
   184   92   94 am   BACKBONE|DICT|INTERRES
   185   94   95 1    
   186   94  215 1    
   187   95   96 1    
   188   95   97 1    
   189   95  216 1    
   190   96  217 1    
   191   96  218 1    
   192   96  219 1    
   193   97   98 2    
   194   97   99 am   BACKBONE|DICT|INTERRES
   195   99  100 1    
   196   99  220 1    
   197  100  101 1    
   198  100  102 1    
   199  100  221 1    
   200  101  222 1    
   201  101  223 1    
   202  101  224 1    
   203  102  103 2    
   204  102  104 am   BACKBONE|DICT|INTERRES
   205  104  105 1    
   206  104  225 1    
   207  105  106 1    
   208  105  107 1    
   209  105  226 1    
   210  106  227 1    
   211  106  228 1    
   212  106  229 1    
   213  107  108 2    
   214  107  109 am   BACKBONE|DICT|INTERRES
   215  109  110 1    
   216  109  230 1    
   217  110  111 1    
   218  110  112 1    
   219  110  231 1    
   220  111  232 1    
   221  111  233 1    
   222  111  234 1    
   223  112  113 2    
   224  112  114 am   BACKBONE|DICT|INTERRES
   225  114  115 1    
   226  114  235 1    
   227  115  116 1    
   228  115  117 1    
   229  115  236 1    
   230  116  237 1    
   231  116  238 1    
   232  116  239 1    
   233  117  118 2    
   234  117  119 am   BACKBONE|DICT|INTERRES
   235  119  120 1    
   236  119  240 1    
   237  120  121 1    
   238  120  124 1    
   239  120  241 1    
   240  121  122 am   BACKBONE|DICT|INTERRES
   241  121  123 2    
   242  122  242 1    
   243  122  243 1    
   244  124  125 1    
   245  124  244 1    
   246  124  245 1    
   247  125  126 1    
   248  126  246 1    
   249  126  247 1    
@<TRIPOS>SUBSTRUCTURE
     1 UNK         1 GROUP             0       ****    0 ROOT    
