@<TRIPOS>MOLECULE
3R540
247   249    1
SMALL
USER_CHARGES


@<TRIPOS>ATOM
      1 CA         -3.5827  -17.7047  -44.6910 C.3       0 UNK        -0.1800 
      2 C          -3.6869  -16.5154  -45.6330 C.2       0 UNK         0.5000 
      3 O          -4.3230  -15.5178  -45.2944 O.2       0 UNK        -0.5000 
      4 N          -3.0594  -16.6164  -46.8125 N.am      1 UNK        -0.5000 
      5 CA         -2.9425  -15.5279  -47.7901 C.3       1 UNK         0.1400 
      6 C6         -2.5301  -16.0879  -49.1779 C.3       23 UNK        -0.0398 
      7 S7         -2.2623  -14.8334  -50.4830 S.3       23 UNK        -0.2404 
      8 C8         -1.5588  -15.8272  -51.8473 C.3       23 UNK        -0.0205 
      9 C9         -0.3415  -16.6735  -51.4740 C.ar      23 UNK        -0.0193 
     10 C10        -0.1756  -17.9262  -52.0704 C.ar      23 UNK        -0.1150 
     11 C11         0.8920  -18.7541  -51.7154 C.ar      23 UNK        -0.0193 
     12 C12         1.8185  -18.3122  -50.7689 C.ar      23 UNK        -0.1150 
     13 C13         1.6741  -17.0579  -50.1702 C.ar      23 UNK        -0.0193 
     14 C14         0.6074  -16.2353  -50.5428 C.ar      23 UNK        -0.1150 
     15 C15         2.6490  -16.5955  -49.0977 C.3       23 UNK        -0.0205 
     16 S16         2.7354  -17.7282  -47.6690 S.3       23 UNK        -0.2404 
     17 C17         0.9838  -17.9837  -47.1988 C.3       23 UNK        -0.0398 
     18 CA          0.5794  -19.4810  -47.2541 C.3       11 UNK         0.1400 
     19 N           1.4150  -20.2909  -46.3561 N.am      11 UNK        -0.5000 
     20 C           1.6026  -21.6146  -46.4331 C.2       10 UNK         0.5000 
     21 O           0.9725  -22.3419  -47.1985 O.2       10 UNK        -0.5000 
     22 CA          2.6391  -22.2282  -45.4770 C.3       10 UNK         0.1400 
     23 CB          4.0634  -21.9584  -45.9869 C.3       10 UNK        -0.1800 
     24 N           2.4983  -21.6731  -44.1315 N.am      10 UNK        -0.5000 
     25 C           1.9825  -22.3224  -43.0782 C.2       9 UNK         0.5000 
     26 O           1.6479  -23.5075  -43.1020 O.2       9 UNK        -0.5000 
     27 CA          1.7837  -21.5131  -41.7760 C.3       9 UNK         0.1400 
     28 CB          2.9971  -21.6792  -40.8489 C.3       9 UNK        -0.1800 
     29 N           1.5509  -20.0841  -41.9938 N.am      9 UNK        -0.5000 
     30 C           0.5470  -19.5673  -42.7150 C.2       8 UNK         0.5000 
     31 O          -0.3602  -20.2419  -43.1942 O.2       8 UNK        -0.5000 
     32 CA          0.5927  -18.0575  -43.0128 C.3       8 UNK         0.1400 
     33 CB         -0.3171  -17.2949  -42.0414 C.3       8 UNK        -0.1800 
     34 N           1.9390  -17.4742  -42.9882 N.am      8 UNK        -0.5000 
     35 C           2.9862  -17.8723  -43.7276 C.2       7 UNK         0.5000 
     36 O           2.9451  -18.8225  -44.5080 O.2       7 UNK        -0.5000 
     37 CA          4.3116  -17.1257  -43.5177 C.3       7 UNK         0.1400 
     38 CB          4.3143  -15.7778  -44.2509 C.3       7 UNK        -0.1800 
     39 N           4.5685  -16.9107  -42.0961 N.am      7 UNK        -0.5000 
     40 C           5.1066  -17.8280  -41.2812 C.2       6 UNK         0.5000 
     41 O           5.5134  -18.9265  -41.6596 O.2       6 UNK        -0.5000 
     42 CA          5.1906  -17.4637  -39.7869 C.3       6 UNK         0.1400 
     43 CB          6.5245  -16.7683  -39.4759 C.3       6 UNK        -0.1800 
     44 N           4.0888  -16.6079  -39.3433 N.am      6 UNK        -0.5000 
     45 C           2.8084  -16.9963  -39.2642 C.2       5 UNK         0.5000 
     46 O           2.4175  -18.1308  -39.5405 O.2       5 UNK        -0.5000 
     47 CA          1.7910  -15.9211  -38.8361 C.3       5 UNK         0.1400 
     48 CB          1.6759  -15.8715  -37.3052 C.3       5 UNK        -0.1800 
     49 N           2.0895  -14.5763  -39.3424 N.am      5 UNK        -0.5000 
     50 C           2.1739  -14.2438  -40.6371 C.2       4 UNK         0.5000 
     51 O           2.1048  -15.0560  -41.5609 O.2       4 UNK        -0.5000 
     52 CA          2.4135  -12.7623  -40.9627 C.3       4 UNK         0.1400 
     53 CB          3.8370  -12.5538  -41.5026 C.3       4 UNK        -0.1800 
     54 N           1.4484  -12.2965  -41.9568 N.am      4 UNK        -0.5000 
     55 C           0.1680  -12.0016  -41.6915 C.2       3 UNK         0.5000 
     56 O          -0.3220  -12.0468  -40.5623 O.2       3 UNK        -0.5000 
     57 CA         -0.7118  -11.5670  -42.8796 C.3       3 UNK         0.1400 
     58 CB         -0.6974  -10.0372  -43.0247 C.3       3 UNK        -0.1800 
     59 N          -0.2964  -12.1707  -44.1479 N.am      3 UNK        -0.5000 
     60 C          -0.6051  -13.4191  -44.5190 C.2       2 UNK         0.5000 
     61 O          -1.2816  -14.1922  -43.8377 O.2       2 UNK        -0.5000 
     62 CA         -0.0251  -13.8928  -45.8622 C.3       2 UNK         0.1400 
     63 CB          1.3135  -14.6050  -45.6313 C.3       2 UNK        -0.1800 
     64 N          -0.9453  -14.8072  -46.5355 N.am      2 UNK        -0.5000 
     65 C          -1.9986  -14.4154  -47.2666 C.2       1 UNK         0.5000 
     66 O          -2.2563  -13.2338  -47.5035 O.2       1 UNK        -0.5000 
     67 C          -0.9444  -19.6796  -47.0497 C.2       11 UNK         0.5000 
     68 O          -1.7322  -19.0209  -47.7293 O.2       11 UNK        -0.5000 
     69 N          -1.3514  -20.5637  -46.1285 N.am      12 UNK        -0.5000 
     70 CA         -2.7276  -21.0393  -45.9671 C.3       12 UNK         0.1400 
     71 CB         -2.9849  -21.3756  -44.4899 C.3       12 UNK        -0.1800 
     72 C          -3.0469  -22.2646  -46.8462 C.2       12 UNK         0.5000 
     73 O          -4.2173  -22.6447  -46.9208 O.2       12 UNK        -0.5000 
     74 N          -2.0329  -22.8727  -47.4822 N.am      13 UNK        -0.5000 
     75 CA         -2.1637  -24.0634  -48.3261 C.3       13 UNK         0.1400 
     76 CB         -0.7830  -24.4622  -48.8642 C.3       13 UNK        -0.1800 
     77 C          -3.1603  -23.8861  -49.4869 C.2       13 UNK         0.5000 
     78 O          -3.2220  -22.8129  -50.0908 O.2       13 UNK        -0.5000 
     79 N          -3.9245  -24.9523  -49.7620 N.am      14 UNK        -0.5000 
     80 CA         -4.9790  -25.0399  -50.7779 C.3       14 UNK         0.1400 
     81 CB         -4.3641  -25.0480  -52.1896 C.3       14 UNK        -0.1800 
     82 C          -6.0714  -23.9636  -50.5937 C.2       14 UNK         0.5000 
     83 O          -6.4434  -23.2836  -51.5530 O.2       14 UNK        -0.5000 
     84 N          -6.5291  -23.8201  -49.3394 N.am      15 UNK        -0.5000 
     85 CA         -7.5246  -22.8551  -48.8580 C.3       15 UNK         0.1400 
     86 CB         -8.9208  -23.1872  -49.4248 C.3       15 UNK        -0.1800 
     87 C          -7.0928  -21.3957  -49.1087 C.2       15 UNK         0.5000 
     88 O          -7.8586  -20.6067  -49.6643 O.2       15 UNK        -0.5000 
     89 N          -5.8501  -21.0867  -48.7083 N.am      16 UNK        -0.5000 
     90 CA         -5.1336  -19.8262  -48.9318 C.3       16 UNK         0.1400 
     91 CB         -5.7677  -18.6819  -48.1143 C.3       16 UNK        -0.1800 
     92 C          -4.9806  -19.5045  -50.4316 C.2       16 UNK         0.5000 
     93 O          -5.2299  -18.3739  -50.8532 O.2       16 UNK        -0.5000 
     94 N          -4.5839  -20.5312  -51.1984 N.am      17 UNK        -0.5000 
     95 CA         -4.4197  -20.5548  -52.6500 C.3       17 UNK         0.1400 
     96 CB         -3.1927  -19.7235  -53.0615 C.3       17 UNK        -0.1800 
     97 C          -5.6990  -20.1458  -53.4039 C.2       17 UNK         0.5000 
     98 O          -5.6987  -19.1556  -54.1391 O.2       17 UNK        -0.5000 
     99 N          -6.7700  -20.9293  -53.2230 N.am      18 UNK        -0.5000 
    100 CA        -8.0697  -20.7590  -53.8801 C.3       18 UNK         0.1400 
    101 CB        -9.1251  -21.5624  -53.1012 C.3       18 UNK        -0.1800 
    102 C         -8.0096  -21.1497  -55.3737 C.2       18 UNK         0.5000 
    103 O         -8.5576  -22.1788  -55.7702 O.2       18 UNK        -0.5000 
    104 N         -7.2745  -20.3447  -56.1556 N.am      19 UNK        -0.5000 
    105 CA        -6.9134  -20.4990  -57.5743 C.3       19 UNK         0.1400 
    106 CB        -8.1675  -20.5855  -58.4677 C.3       19 UNK        -0.1800 
    107 C         -5.9212  -21.6511  -57.8559 C.2       19 UNK         0.5000 
    108 O         -5.5466  -21.8633  -59.0098 O.2       19 UNK        -0.5000 
    109 N         -5.4979  -22.3605  -56.8034 N.am      20 UNK        -0.5000 
    110 CA        -4.6287  -23.5346  -56.8543 C.3       20 UNK         0.1400 
    111 CB        -5.0594  -24.4768  -55.7222 C.3       20 UNK        -0.1800 
    112 C         -3.1315  -23.1988  -56.7208 C.2       20 UNK         0.5000 
    113 O         -2.3062  -24.0973  -56.8889 O.2       20 UNK        -0.5000 
    114 N         -2.8004  -21.9409  -56.3839 N.am      21 UNK        -0.5000 
    115 CA        -1.4394  -21.4068  -56.2078 C.3       21 UNK         0.1400 
    116 CB        -0.7319  -21.2953  -57.5744 C.3       21 UNK        -0.1800 
    117 C         -0.6030  -22.1824  -55.1622 C.2       21 UNK         0.5000 
    118 O          0.5927  -22.3985  -55.3640 O.2       21 UNK        -0.5000 
    119 N         -1.2675  -22.6074  -54.0781 N.am      22 UNK        -0.5000 
    120 CA        -0.7484  -23.4859  -53.0113 C.3       22 UNK         0.1400 
    121 C         -0.5182  -24.9682  -53.4437 C.2       22 UNK         0.5000 
    122 N         -0.9288  -25.4016  -54.6302 N.am      22 UNK        -0.7600 
    123 O          0.0107  -25.7617  -52.6704 O.2       22 UNK        -0.5000 
    124 C124        0.4764  -22.9003  -52.2485 C.3       23 UNK        -0.0398 
    125 S125        0.0883  -21.3560  -51.3593 S.3       23 UNK        -0.2404 
    126 C126        1.0248  -20.1369  -52.3293 C.3       23 UNK        -0.0205 
    127 H127       -2.6497  -18.2459  -44.8445 H         1 UNK         0.0600 
    128 H128       -4.4173  -18.3877  -44.8472 H         1 UNK         0.0600 
    129 H129       -3.6031  -17.3700  -43.6537 H         1 UNK         0.0600 
    130 H130       -2.6024  -17.4882  -47.0695 H         1 UNK         0.3000 
    131 H131       -3.9307  -15.0769  -47.9042 H         1 UNK         0.0600 
    132 H132       -1.6240  -16.6816  -49.0705 H         1 UNK         0.0800 
    133 H133       -3.2932  -16.7804  -49.5349 H         1 UNK         0.0800 
    134 H134       -2.3534  -16.4659  -52.2358 H         1 UNK         0.0800 
    135 H135       -1.2782  -15.1557  -52.6594 H         1 UNK         0.0800 
    136 H136       -0.8894  -18.2674  -52.8041 H         1 UNK         0.1150 
    137 H137        2.6373  -18.9546  -50.4763 H         1 UNK         0.1150 
    138 H138        0.4969  -15.2650  -50.0801 H         1 UNK         0.1150 
    139 H139        3.6431  -16.5094  -49.5377 H         1 UNK         0.0800 
    140 H140        2.3867  -15.5988  -48.7416 H         1 UNK         0.0800 
    141 H141        0.3468  -17.3823  -47.8466 H         1 UNK         0.0800 
    142 H142        0.8455  -17.5897  -46.1935 H         1 UNK         0.0800 
    143 H143        0.7751  -19.8278  -48.2714 H         1 UNK         0.0600 
    144 H144        1.9937  -19.7593  -45.7088 H         1 UNK         0.3000 
    145 H145        2.4835  -23.3090  -45.4665 H         1 UNK         0.0600 
    146 H146        4.8059  -22.4332  -45.3456 H         1 UNK         0.0600 
    147 H147        4.1997  -22.3561  -46.9934 H         1 UNK         0.0600 
    148 H148        4.2861  -20.8909  -46.0220 H         1 UNK         0.0600 
    149 H149        2.7242  -20.6883  -44.0311 H         1 UNK         0.3000 
    150 H150        0.9047  -21.9164  -41.2694 H         1 UNK         0.0600 
    151 H151        3.1803  -22.7315  -40.6282 H         1 UNK         0.0600 
    152 H152        2.8402  -21.1694  -39.8979 H         1 UNK         0.0600 
    153 H153        3.9040  -21.2743  -41.2999 H         1 UNK         0.0600 
    154 H154        2.2280  -19.4465  -41.5972 H         1 UNK         0.3000 
    155 H155        0.1956  -17.9170  -44.0183 H         1 UNK         0.0600 
    156 H156       -1.3477  -17.6434  -42.1177 H         1 UNK         0.0600 
    157 H157       -0.3197  -16.2259  -42.2539 H         1 UNK         0.0600 
    158 H158        0.0001  -17.4345  -41.0089 H         1 UNK         0.0600 
    159 H159        2.0548  -16.6585  -42.3894 H         1 UNK         0.3000 
    160 H160        5.1103  -17.7377  -43.9427 H         1 UNK         0.0600 
    161 H161        3.5769  -15.0932  -43.8343 H         1 UNK         0.0600 
    162 H162        4.0873  -15.9076  -45.3100 H         1 UNK         0.0600 
    163 H163        5.2899  -15.2967  -44.1835 H         1 UNK         0.0600 
    164 H164        4.2045  -16.0583  -41.6942 H         1 UNK         0.3000 
    165 H165        5.1484  -18.3944  -39.2168 H         1 UNK         0.0600 
    166 H166        6.6286  -16.5734  -38.4084 H         1 UNK         0.0600 
    167 H167        7.3684  -17.3915  -39.7750 H         1 UNK         0.0600 
    168 H168        6.6159  -15.8173  -40.0023 H         1 UNK         0.0600 
    169 H169        4.3186  -15.6568  -39.0954 H         1 UNK         0.3000 
    170 H170        0.8180  -16.2107  -39.2351 H         1 UNK         0.0600 
    171 H171        1.4320  -16.8544  -36.8997 H         1 UNK         0.0600 
    172 H172        2.6078  -15.5467  -36.8409 H         1 UNK         0.0600 
    173 H173        0.8871  -15.1879  -36.9905 H         1 UNK         0.0600 
    174 H174        2.1680  -13.8475  -38.6477 H         1 UNK         0.3000 
    175 H175        2.3007  -12.1683  -40.0532 H         1 UNK         0.0600 
    176 H176        4.0046  -13.1039  -42.4292 H         1 UNK         0.0600 
    177 H177        4.0316  -11.4996  -41.7005 H         1 UNK         0.0600 
    178 H178        4.5824  -12.8911  -40.7812 H         1 UNK         0.0600 
    179 H179        1.7601  -12.2757  -42.9154 H         1 UNK         0.3000 
    180 H180       -1.7372  -11.8742  -42.6615 H         1 UNK         0.0600 
    181 H181        0.3012   -9.6623  -43.2527 H         1 UNK         0.0600 
    182 H182       -1.0265   -9.5547  -42.1034 H         1 UNK         0.0600 
    183 H183       -1.3690   -9.7101  -43.8187 H         1 UNK         0.0600 
    184 H184        0.2589  -11.5934  -44.7630 H         1 UNK         0.3000 
    185 H185        0.1516  -13.0270  -46.5042 H         1 UNK         0.0600 
    186 H186        2.0410  -13.9205  -45.1947 H         1 UNK         0.0600 
    187 H187        1.2089  -15.4518  -44.9525 H         1 UNK         0.0600 
    188 H188        1.7361  -14.9698  -46.5657 H         1 UNK         0.0600 
    189 H189       -0.8677  -15.7822  -46.2963 H         1 UNK         0.3000 
    190 H190       -0.6525  -21.0100  -45.5504 H         1 UNK         0.3000 
    191 H191       -3.4243  -20.2506  -46.2545 H         1 UNK         0.0600 
    192 H192       -2.8885  -20.4923  -43.8600 H         1 UNK         0.0600 
    193 H193       -3.9945  -21.7609  -44.3413 H         1 UNK         0.0600 
    194 H194       -2.2875  -22.1289  -44.1214 H         1 UNK         0.0600 
    195 H195       -1.0952  -22.4992  -47.3867 H         1 UNK         0.3000 
    196 H196       -2.5249  -24.8703  -47.6855 H         1 UNK         0.0600 
    197 H197       -0.8502  -25.3052  -49.5534 H         1 UNK         0.0600 
    198 H198       -0.1154  -24.7569  -48.0545 H         1 UNK         0.0600 
    199 H199       -0.3141  -23.6361  -49.3974 H         1 UNK         0.0600 
    200 H200       -3.7974  -25.7853  -49.2040 H         1 UNK         0.3000 
    201 H201       -5.4701  -26.0028  -50.6299 H         1 UNK         0.0600 
    202 H202       -3.5587  -25.7782  -52.2696 H         1 UNK         0.0600 
    203 H203       -3.9623  -24.0731  -52.4649 H         1 UNK         0.0600 
    204 H204       -5.1201  -25.3210  -52.9250 H         1 UNK         0.0600 
    205 H205       -6.1146  -24.4017  -48.6247 H         1 UNK         0.3000 
    206 H206       -7.5743  -22.9744  -47.7747 H         1 UNK         0.0600 
    207 H207       -9.2152  -24.2055  -49.1715 H         1 UNK         0.0600 
    208 H208       -9.6792  -22.5193  -49.0147 H         1 UNK         0.0600 
    209 H209       -8.9525  -23.0917  -50.5097 H         1 UNK         0.0600 
    210 H210       -5.3117  -21.8113  -48.2406 H         1 UNK         0.3000 
    211 H211       -4.1203  -19.9747  -48.5604 H         1 UNK         0.0600 
    212 H212       -6.7877  -18.4693  -48.4347 H         1 UNK         0.0600 
    213 H213       -5.1978  -17.7600  -48.2245 H         1 UNK         0.0600 
    214 H214       -5.7923  -18.9239  -47.0520 H         1 UNK         0.0600 
    215 H215       -4.3537  -21.4052  -50.7316 H         1 UNK         0.3000 
    216 H216       -4.2205  -21.5927  -52.9190 H         1 UNK         0.0600 
    217 H217       -3.0435  -19.7472  -54.1399 H         1 UNK         0.0600 
    218 H218       -2.2901  -20.1141  -52.5947 H         1 UNK         0.0600 
    219 H219       -3.2986  -18.6782  -52.7716 H         1 UNK         0.0600 
    220 H220       -6.6875  -21.7300  -52.5986 H         1 UNK         0.3000 
    221 H221       -8.3517  -19.7053  -53.8274 H         1 UNK         0.0600 
    222 H222       -8.8762  -22.6238  -53.0627 H         1 UNK         0.0600 
    223 H223       -9.2115  -21.2016  -52.0763 H         1 UNK         0.0600 
    224 H224      -10.1094  -21.4690  -53.5615 H         1 UNK         0.0600 
    225 H225       -6.8044  -19.5792  -55.6784 H         1 UNK         0.3000 
    226 H226       -6.3858  -19.5828  -57.8428 H         1 UNK         0.0600 
    227 H227       -8.8536  -19.7628  -58.2663 H         1 UNK         0.0600 
    228 H228       -7.8984  -20.5308  -59.5231 H         1 UNK         0.0600 
    229 H229       -8.7095  -21.5200  -58.3213 H         1 UNK         0.0600 
    230 H230       -5.8912  -22.1302  -55.9037 H         1 UNK         0.3000 
    231 H231       -4.7645  -24.0541  -57.8052 H         1 UNK         0.0600 
    232 H232       -5.0022  -23.9734  -54.7579 H         1 UNK         0.0600 
    233 H233       -4.4276  -25.3650  -55.6748 H         1 UNK         0.0600 
    234 H234       -6.0865  -24.8154  -55.8607 H         1 UNK         0.0600 
    235 H235       -3.5529  -21.2761  -56.2809 H         1 UNK         0.3000 
    236 H236       -1.5463  -20.3944  -55.8178 H         1 UNK         0.0600 
    237 H237       -1.3325  -20.7257  -58.2836 H         1 UNK         0.0600 
    238 H238        0.2268  -20.7839  -57.4798 H         1 UNK         0.0600 
    239 H239       -0.5385  -22.2757  -58.0110 H         1 UNK         0.0600 
    240 H240       -2.2501  -22.3945  -54.0186 H         1 UNK         0.3000 
    241 H241       -1.5603  -23.5529  -52.2869 H         1 UNK         0.0600 
    242 H242       -0.7769  -26.3673  -54.8731 H         1 UNK         0.3800 
    243 H243       -1.3582  -24.7840  -55.3108 H         1 UNK         0.3800 
    244 H244        0.8296  -23.6045  -51.4943 H         1 UNK         0.0800 
    245 H245        1.3228  -22.7494  -52.9184 H         1 UNK         0.0800 
    246 H246        2.0748  -20.4301  -52.3714 H         1 UNK         0.0800 
    247 H247        0.6613  -20.1273  -53.3574 H         1 UNK         0.0800 
@<TRIPOS>BOND
     1    1    2 1    
     2    1  127 1    
     3    1  128 1    
     4    1  129 1    
     5    2    3 2    
     6    2    4 am   BACKBONE|DICT|INTERRES
     7    4    5 1    
     8    4  130 1    
     9    5    6 1    
    10    5   65 1    
    11    5  131 1    
    12    6    7 1    
    13    6  132 1    
    14    6  133 1    
    15    7    8 1    
    16    8    9 1    
    17    8  134 1    
    18    8  135 1    
    19    9   10 ar   
    20    9   14 ar   
    21   10   11 ar   
    22   10  136 1    
    23   11   12 ar   
    24   11  126 1    
    25   12   13 ar   
    26   12  137 1    
    27   13   14 ar   
    28   13   15 1    
    29   14  138 1    
    30   15   16 1    
    31   15  139 1    
    32   15  140 1    
    33   16   17 1    
    34   17   18 1    
    35   17  141 1    
    36   17  142 1    
    37   18   19 1    
    38   18   67 1    
    39   18  143 1    
    40   19   20 am   BACKBONE|DICT|INTERRES
    41   19  144 1    
    42   20   21 2    
    43   20   22 1    
    44   22   23 1    
    45   22   24 1    
    46   22  145 1    
    47   23  146 1    
    48   23  147 1    
    49   23  148 1    
    50   24   25 am   BACKBONE|DICT|INTERRES
    51   24  149 1    
    52   25   26 2    
    53   25   27 1    
    54   27   28 1    
    55   27   29 1    
    56   27  150 1    
    57   28  151 1    
    58   28  152 1    
    59   28  153 1    
    60   29   30 am   BACKBONE|DICT|INTERRES
    61   29  154 1    
    62   30   31 2    
    63   30   32 1    
    64   32   33 1    
    65   32   34 1    
    66   32  155 1    
    67   33  156 1    
    68   33  157 1    
    69   33  158 1    
    70   34   35 am   BACKBONE|DICT|INTERRES
    71   34  159 1    
    72   35   36 2    
    73   35   37 1    
    74   37   38 1    
    75   37   39 1    
    76   37  160 1    
    77   38  161 1    
    78   38  162 1    
    79   38  163 1    
    80   39   40 am   BACKBONE|DICT|INTERRES
    81   39  164 1    
    82   40   41 2    
    83   40   42 1    
    84   42   43 1    
    85   42   44 1    
    86   42  165 1    
    87   43  166 1    
    88   43  167 1    
    89   43  168 1    
    90   44   45 am   BACKBONE|DICT|INTERRES
    91   44  169 1    
    92   45   46 2    
    93   45   47 1    
    94   47   48 1    
    95   47   49 1    
    96   47  170 1    
    97   48  171 1    
    98   48  172 1    
    99   48  173 1    
   100   49   50 am   BACKBONE|DICT|INTERRES
   101   49  174 1    
   102   50   51 2    
   103   50   52 1    
   104   52   53 1    
   105   52   54 1    
   106   52  175 1    
   107   53  176 1    
   108   53  177 1    
   109   53  178 1    
   110   54   55 am   BACKBONE|DICT|INTERRES
   111   54  179 1    
   112   55   56 2    
   113   55   57 1    
   114   57   58 1    
   115   57   59 1    
   116   57  180 1    
   117   58  181 1    
   118   58  182 1    
   119   58  183 1    
   120   59   60 am   BACKBONE|DICT|INTERRES
   121   59  184 1    
   122   60   61 2    
   123   60   62 1    
   124   62   63 1    
   125   62   64 1    
   126   62  185 1    
   127   63  186 1    
   128   63  187 1    
   129   63  188 1    
   130   64   65 am   BACKBONE|DICT|INTERRES
   131   64  189 1    
   132   65   66 2    
   133   67   68 2    
   134   67   69 am   BACKBONE|DICT|INTERRES
   135   69   70 1    
   136   69  190 1    
   137   70   71 1    
   138   70   72 1    
   139   70  191 1    
   140   71  192 1    
   141   71  193 1    
   142   71  194 1    
   143   72   73 2    
   144   72   74 am   BACKBONE|DICT|INTERRES
   145   74   75 1    
   146   74  195 1    
   147   75   76 1    
   148   75   77 1    
   149   75  196 1    
   150   76  197 1    
   151   76  198 1    
   152   76  199 1    
   153   77   78 2    
   154   77   79 am   BACKBONE|DICT|INTERRES
   155   79   80 1    
   156   79  200 1    
   157   80   81 1    
   158   80   82 1    
   159   80  201 1    
   160   81  202 1    
   161   81  203 1    
   162   81  204 1    
   163   82   83 2    
   164   82   84 am   BACKBONE|DICT|INTERRES
   165   84   85 1    
   166   84  205 1    
   167   85   86 1    
   168   85   87 1    
   169   85  206 1    
   170   86  207 1    
   171   86  208 1    
   172   86  209 1    
   173   87   88 2    
   174   87   89 am   BACKBONE|DICT|INTERRES
   175   89   90 1    
   176   89  210 1    
   177   90   91 1    
   178   90   92 1    
   179   90  211 1    
   180   91  212 1    
   181   91  213 1    
   182   91  214 1    
   183   92   93 2    
   184   92   94 am   BACKBONE|DICT|INTERRES
   185   94   95 1    
   186   94  215 1    
   187   95   96 1    
   188   95   97 1    
   189   95  216 1    
   190   96  217 1    
   191   96  218 1    
   192   96  219 1    
   193   97   98 2    
   194   97   99 am   BACKBONE|DICT|INTERRES
   195   99  100 1    
   196   99  220 1    
   197  100  101 1    
   198  100  102 1    
   199  100  221 1    
   200  101  222 1    
   201  101  223 1    
   202  101  224 1    
   203  102  103 2    
   204  102  104 am   BACKBONE|DICT|INTERRES
   205  104  105 1    
   206  104  225 1    
   207  105  106 1    
   208  105  107 1    
   209  105  226 1    
   210  106  227 1    
   211  106  228 1    
   212  106  229 1    
   213  107  108 2    
   214  107  109 am   BACKBONE|DICT|INTERRES
   215  109  110 1    
   216  109  230 1    
   217  110  111 1    
   218  110  112 1    
   219  110  231 1    
   220  111  232 1    
   221  111  233 1    
   222  111  234 1    
   223  112  113 2    
   224  112  114 am   BACKBONE|DICT|INTERRES
   225  114  115 1    
   226  114  235 1    
   227  115  116 1    
   228  115  117 1    
   229  115  236 1    
   230  116  237 1    
   231  116  238 1    
   232  116  239 1    
   233  117  118 2    
   234  117  119 am   BACKBONE|DICT|INTERRES
   235  119  120 1    
   236  119  240 1    
   237  120  121 1    
   238  120  124 1    
   239  120  241 1    
   240  121  122 am   BACKBONE|DICT|INTERRES
   241  121  123 2    
   242  122  242 1    
   243  122  243 1    
   244  124  125 1    
   245  124  244 1    
   246  124  245 1    
   247  125  126 1    
   248  126  246 1    
   249  126  247 1    
@<TRIPOS>SUBSTRUCTURE
     1 UNK         1 GROUP             0       ****    0 ROOT    
