@<TRIPOS>MOLECULE
3R540
247   249    1
SMALL
USER_CHARGES


@<TRIPOS>ATOM
      1 CA          7.2439  -10.9817  -48.7416 C.3       0 UNK        -0.1800 
      2 C           6.1934  -11.7992  -48.0040 C.2       0 UNK         0.5000 
      3 O           6.0875  -11.7033  -46.7804 O.2       0 UNK        -0.5000 
      4 N           5.4092  -12.5967  -48.7396 N.am      1 UNK        -0.5000 
      5 CA          4.3470  -13.4679  -48.2204 C.3       1 UNK         0.1400 
      6 C6          4.0815  -14.6804  -49.1504 C.3       23 UNK        -0.0398 
      7 S7          5.5585  -15.7376  -49.3196 S.3       23 UNK        -0.2404 
      8 C8          5.1273  -16.7446  -50.7764 C.3       23 UNK        -0.0205 
      9 C9          3.9959  -17.7315  -50.5110 C.ar      23 UNK        -0.0193 
     10 C10         2.8782  -17.7639  -51.3507 C.ar      23 UNK        -0.1150 
     11 C11         1.8542  -18.6928  -51.1382 C.ar      23 UNK        -0.0193 
     12 C12         1.9519  -19.5932  -50.0744 C.ar      23 UNK        -0.1150 
     13 C13         3.0566  -19.5619  -49.2179 C.ar      23 UNK        -0.0193 
     14 C14         4.0785  -18.6372  -49.4487 C.ar      23 UNK        -0.1150 
     15 C15         3.1601  -20.5269  -48.0468 C.3       23 UNK        -0.0205 
     16 S16         2.5623  -19.7789  -46.4977 S.3       23 UNK        -0.2404 
     17 C17         0.7558  -19.9122  -46.6996 C.3       23 UNK        -0.0398 
     18 CA          0.2028  -21.2034  -46.0571 C.3       11 UNK         0.1400 
     19 N           0.3118  -21.1845  -44.5930 N.am      11 UNK        -0.5000 
     20 C           0.1831  -22.2422  -43.7810 C.2       10 UNK         0.5000 
     21 O          -0.1214  -23.3679  -44.1817 O.2       10 UNK        -0.5000 
     22 CA          0.3968  -21.9713  -42.2770 C.3       10 UNK         0.1400 
     23 CB          0.4890  -23.2597  -41.4336 C.3       10 UNK        -0.1800 
     24 N           1.5375  -21.0860  -42.0210 N.am      10 UNK        -0.5000 
     25 C           2.8305  -21.3137  -42.2987 C.2       9 UNK         0.5000 
     26 O           3.2529  -22.3641  -42.7837 O.2       9 UNK        -0.5000 
     27 CA          3.8327  -20.1810  -41.9899 C.3       9 UNK         0.1400 
     28 CB          4.4121  -19.6008  -43.2885 C.3       9 UNK        -0.1800 
     29 N           3.2628  -19.0837  -41.2058 N.am      9 UNK        -0.5000 
     30 C           3.0338  -19.1157  -39.8870 C.2       8 UNK         0.5000 
     31 O           3.3129  -20.0750  -39.1671 O.2       8 UNK        -0.5000 
     32 CA          2.3499  -17.8771  -39.2762 C.3       8 UNK         0.1400 
     33 CB          3.3827  -16.7838  -38.9634 C.3       8 UNK        -0.1800 
     34 N           1.2937  -17.3226  -40.1276 N.am      8 UNK        -0.5000 
     35 C           0.1578  -17.9619  -40.4444 C.2       7 UNK         0.5000 
     36 O          -0.1251  -19.0925  -40.0478 O.2       7 UNK        -0.5000 
     37 CA         -0.8081  -17.2364  -41.3978 C.3       7 UNK         0.1400 
     38 CB         -1.6100  -16.1600  -40.6512 C.3       7 UNK        -0.1800 
     39 N          -0.1205  -16.6410  -42.5432 N.am      7 UNK        -0.5000 
     40 C           0.5160  -17.3446  -43.4905 C.2       6 UNK         0.5000 
     41 O           0.5352  -18.5748  -43.5290 O.2       6 UNK        -0.5000 
     42 CA          1.2973  -16.5449  -44.5476 C.3       6 UNK         0.1400 
     43 CB          0.3622  -16.0202  -45.6482 C.3       6 UNK        -0.1800 
     44 N           2.0346  -15.4235  -43.9722 N.am      6 UNK        -0.5000 
     45 C           3.0117  -15.5192  -43.0618 C.2       5 UNK         0.5000 
     46 O           3.4352  -16.5838  -42.6159 O.2       5 UNK        -0.5000 
     47 CA          3.5681  -14.1935  -42.5185 C.3       5 UNK         0.1400 
     48 CB          4.5686  -13.5684  -43.5040 C.3       5 UNK        -0.1800 
     49 N           2.4993  -13.2384  -42.2252 N.am      5 UNK        -0.5000 
     50 C           1.6043  -13.3820  -41.2378 C.2       4 UNK         0.5000 
     51 O           1.6015  -14.3268  -40.4480 O.2       4 UNK        -0.5000 
     52 CA          0.5090  -12.3040  -41.1406 C.3       4 UNK         0.1400 
     53 CB          1.0338  -11.0613  -40.4060 C.3       4 UNK        -0.1800 
     54 N          -0.0136  -11.9102  -42.4508 N.am      4 UNK        -0.5000 
     55 C          -0.7452  -12.7103  -43.2387 C.2       3 UNK         0.5000 
     56 O          -1.0678  -13.8583  -42.9346 O.2       3 UNK        -0.5000 
     57 CA         -1.1451  -12.1521  -44.6190 C.3       3 UNK         0.1400 
     58 CB         -2.4014  -11.2760  -44.5025 C.3       3 UNK        -0.1800 
     59 N          -0.0872  -11.3981  -45.3033 N.am      3 UNK        -0.5000 
     60 C           1.1391  -11.8669  -45.5693 C.2       2 UNK         0.5000 
     61 O           1.5510  -12.9557  -45.1671 O.2       2 UNK        -0.5000 
     62 CA          2.0737  -10.9567  -46.3880 C.3       2 UNK         0.1400 
     63 CB          2.6630   -9.8547  -45.4939 C.3       2 UNK        -0.1800 
     64 N           3.1788  -11.7158  -46.9742 N.am      2 UNK        -0.5000 
     65 C           3.0676  -12.6546  -47.9228 C.2       1 UNK         0.5000 
     66 O           2.0278  -12.8716  -48.5485 O.2       1 UNK        -0.5000 
     67 C          -1.2143  -21.5193  -46.5814 C.2       11 UNK         0.5000 
     68 O          -1.3658  -21.7381  -47.7820 O.2       11 UNK        -0.5000 
     69 N          -2.2146  -21.6225  -45.6945 N.am      12 UNK        -0.5000 
     70 CA         -3.5340  -22.1889  -45.9893 C.3       12 UNK         0.1400 
     71 CB         -4.4204  -22.0730  -44.7407 C.3       12 UNK        -0.1800 
     72 C          -3.4654  -23.6548  -46.4725 C.2       12 UNK         0.5000 
     73 O          -4.3057  -24.0695  -47.2694 O.2       12 UNK        -0.5000 
     74 N          -2.4363  -24.3957  -46.0323 N.am      13 UNK        -0.5000 
     75 CA         -2.1211  -25.7460  -46.5043 C.3       13 UNK         0.1400 
     76 CB         -1.1743  -26.4122  -45.4942 C.3       13 UNK        -0.1800 
     77 C          -1.5028  -25.7725  -47.9196 C.2       13 UNK         0.5000 
     78 O          -1.4891  -26.8318  -48.5470 O.2       13 UNK        -0.5000 
     79 N          -1.0030  -24.6236  -48.3958 N.am      14 UNK        -0.5000 
     80 CA         -0.3947  -24.4365  -49.7146 C.3       14 UNK         0.1400 
     81 CB          0.9009  -23.6240  -49.5466 C.3       14 UNK        -0.1800 
     82 C          -1.3543  -23.7460  -50.7052 C.2       14 UNK         0.5000 
     83 O          -0.9428  -23.4323  -51.8237 O.2       14 UNK        -0.5000 
     84 N          -2.6074  -23.5082  -50.2953 N.am      15 UNK        -0.5000 
     85 CA         -3.6639  -22.9643  -51.1441 C.3       15 UNK         0.1400 
     86 CB         -4.7976  -22.4338  -50.2531 C.3       15 UNK        -0.1800 
     87 C          -4.1981  -24.0217  -52.1285 C.2       15 UNK         0.5000 
     88 O          -4.0879  -25.2240  -51.8742 O.2       15 UNK        -0.5000 
     89 N          -4.8024  -23.5444  -53.2217 N.am      16 UNK        -0.5000 
     90 CA         -5.4184  -24.3539  -54.2743 C.3       16 UNK         0.1400 
     91 CB         -5.7483  -23.4465  -55.4704 C.3       16 UNK        -0.1800 
     92 C          -6.6763  -25.1150  -53.8115 C.2       16 UNK         0.5000 
     93 O          -7.0223  -26.1276  -54.4211 O.2       16 UNK        -0.5000 
     94 N          -7.3401  -24.6098  -52.7597 N.am      17 UNK        -0.5000 
     95 CA         -8.5218  -25.1336  -52.0566 C.3       17 UNK         0.1400 
     96 CB         -8.2603  -26.5393  -51.4841 C.3       17 UNK        -0.1800 
     97 C          -9.8259  -25.0959  -52.8771 C.2       17 UNK         0.5000 
     98 O         -10.8655  -24.7082  -52.3432 O.2       17 UNK        -0.5000 
     99 N          -9.7471  -25.4528  -54.1642 N.am      18 UNK        -0.5000 
    100 CA       -10.8158  -25.3128  -55.1558 C.3       18 UNK         0.1400 
    101 CB       -10.4572  -26.1577  -56.3879 C.3       18 UNK        -0.1800 
    102 C        -11.0647  -23.8446  -55.5608 C.2       18 UNK         0.5000 
    103 O        -12.1270  -23.5341  -56.1014 O.2       18 UNK        -0.5000 
    104 N        -10.0885  -22.9736  -55.2854 N.am      19 UNK        -0.5000 
    105 CA       -10.1390  -21.5306  -55.4594 C.3       19 UNK         0.1400 
    106 CB        -9.5521  -21.1606  -56.8321 C.3       19 UNK        -0.1800 
    107 C         -9.3278  -20.8876  -54.3268 C.2       19 UNK         0.5000 
    108 O         -8.4472  -21.5377  -53.7533 O.2       19 UNK        -0.5000 
    109 N         -9.6101  -19.6103  -54.0489 N.am      20 UNK        -0.5000 
    110 CA        -8.8712  -18.7733  -53.1030 C.3       20 UNK         0.1400 
    111 CB        -9.8048  -17.6627  -52.5882 C.3       20 UNK        -0.1800 
    112 C         -7.5962  -18.2200  -53.7707 C.2       20 UNK         0.5000 
    113 O         -7.5041  -17.0227  -54.0494 O.2       20 UNK        -0.5000 
    114 N         -6.6564  -19.1223  -54.0606 N.am      21 UNK        -0.5000 
    115 CA        -5.3988  -18.8623  -54.7495 C.3       21 UNK         0.1400 
    116 CB        -5.6073  -19.0610  -56.2615 C.3       21 UNK        -0.1800 
    117 C         -4.3233  -19.8160  -54.2126 C.2       21 UNK         0.5000 
    118 O         -4.6524  -20.8003  -53.5466 O.2       21 UNK        -0.5000 
    119 N         -3.0598  -19.5115  -54.5222 N.am      22 UNK        -0.5000 
    120 CA        -1.8890  -20.3524  -54.2315 C.3       22 UNK         0.1400 
    121 C         -1.8861  -21.6570  -55.0798 C.2       22 UNK         0.5000 
    122 N         -1.5252  -22.7959  -54.5074 N.am      22 UNK        -0.7600 
    123 O         -2.1787  -21.6353  -56.2735 O.2       22 UNK        -0.5000 
    124 C124       -0.5839  -19.5374  -54.4408 C.3       23 UNK        -0.0398 
    125 S125        0.7619  -20.0230  -53.3084 S.3       23 UNK        -0.2404 
    126 C126        0.6369  -18.7136  -52.0492 C.3       23 UNK        -0.0205 
    127 H127        7.0730   -9.9175  -48.5789 H         1 UNK         0.0600 
    128 H128        7.2238  -11.1697  -49.8153 H         1 UNK         0.0600 
    129 H129        8.2389  -11.2291  -48.3716 H         1 UNK         0.0600 
    130 H130        5.5356  -12.6206  -49.7413 H         1 UNK         0.3000 
    131 H131        4.6758  -13.8739  -47.2606 H         1 UNK         0.0600 
    132 H132        3.2735  -15.2993  -48.7551 H         1 UNK         0.0800 
    133 H133        3.7619  -14.3456  -50.1388 H         1 UNK         0.0800 
    134 H134        6.0098  -17.3072  -51.0835 H         1 UNK         0.0800 
    135 H135        4.8830  -16.0820  -51.6082 H         1 UNK         0.0800 
    136 H136        2.8077  -17.0712  -52.1777 H         1 UNK         0.1150 
    137 H137        1.1637  -20.3156  -49.9174 H         1 UNK         0.1150 
    138 H138        4.9394  -18.6183  -48.7950 H         1 UNK         0.1150 
    139 H139        2.6115  -21.4464  -48.2521 H         1 UNK         0.0800 
    140 H140        4.2015  -20.8225  -47.9111 H         1 UNK         0.0800 
    141 H141        0.5143  -19.8562  -47.7601 H         1 UNK         0.0800 
    142 H142        0.2878  -19.0403  -46.2465 H         1 UNK         0.0800 
    143 H143        0.8210  -22.0336  -46.4058 H         1 UNK         0.0600 
    144 H144        0.5271  -20.2795  -44.1769 H         1 UNK         0.3000 
    145 H145       -0.4858  -21.4251  -41.9413 H         1 UNK         0.0600 
    146 H146        0.6299  -23.0292  -40.3775 H         1 UNK         0.0600 
    147 H147       -0.4262  -23.8467  -41.5181 H         1 UNK         0.0600 
    148 H148        1.3142  -23.8972  -41.7518 H         1 UNK         0.0600 
    149 H149        1.3002  -20.1780  -41.6433 H         1 UNK         0.3000 
    150 H150        4.6536  -20.6245  -41.4228 H         1 UNK         0.0600 
    151 H151        4.8297  -20.3824  -43.9244 H         1 UNK         0.0600 
    152 H152        5.2107  -18.8890  -43.0796 H         1 UNK         0.0600 
    153 H153        3.6463  -19.0803  -43.8636 H         1 UNK         0.0600 
    154 H154        3.0688  -18.2236  -41.7133 H         1 UNK         0.3000 
    155 H155        1.8895  -18.1857  -38.3353 H         1 UNK         0.0600 
    156 H156        4.1716  -17.1649  -38.3137 H         1 UNK         0.0600 
    157 H157        2.9197  -15.9395  -38.4524 H         1 UNK         0.0600 
    158 H158        3.8566  -16.4060  -39.8698 H         1 UNK         0.0600 
    159 H159        1.4390  -16.3795  -40.4734 H         1 UNK         0.3000 
    160 H160       -1.5139  -17.9766  -41.7805 H         1 UNK         0.0600 
    161 H161       -0.9685  -15.3572  -40.2871 H         1 UNK         0.0600 
    162 H162       -2.1278  -16.5843  -39.7902 H         1 UNK         0.0600 
    163 H163       -2.3667  -15.7151  -41.2977 H         1 UNK         0.0600 
    164 H164       -0.1440  -15.6288  -42.6126 H         1 UNK         0.3000 
    165 H165        2.0240  -17.2187  -45.0043 H         1 UNK         0.0600 
    166 H166        0.9282  -15.5461  -46.4506 H         1 UNK         0.0600 
    167 H167       -0.2246  -16.8228  -46.0934 H         1 UNK         0.0600 
    168 H168       -0.3406  -15.2842  -45.2579 H         1 UNK         0.0600 
    169 H169        1.7789  -14.4958  -44.3082 H         1 UNK         0.3000 
    170 H170        4.0973  -14.4086  -41.5878 H         1 UNK         0.0600 
    171 H171        5.3920  -14.2538  -43.7083 H         1 UNK         0.0600 
    172 H172        4.1039  -13.3246  -44.4596 H         1 UNK         0.0600 
    173 H173        5.0010  -12.6530  -43.1000 H         1 UNK         0.0600 
    174 H174        2.3848  -12.4742  -42.8740 H         1 UNK         0.3000 
    175 H175       -0.3148  -12.7206  -40.5569 H         1 UNK         0.0600 
    176 H176        1.4168  -11.3247  -39.4192 H         1 UNK         0.0600 
    177 H177        1.8437  -10.5787  -40.9546 H         1 UNK         0.0600 
    178 H178        0.2421  -10.3262  -40.2604 H         1 UNK         0.0600 
    179 H179        0.2152  -10.9841  -42.7802 H         1 UNK         0.3000 
    180 H180       -1.3899  -13.0069  -45.2524 H         1 UNK         0.0600 
    181 H181       -2.2109  -10.3731  -43.9212 H         1 UNK         0.0600 
    182 H182       -3.2116  -11.8176  -44.0121 H         1 UNK         0.0600 
    183 H183       -2.7642  -10.9732  -45.4849 H         1 UNK         0.0600 
    184 H184       -0.3439  -10.4846  -45.6489 H         1 UNK         0.3000 
    185 H185        1.4990  -10.4988  -47.1954 H         1 UNK         0.0600 
    186 H186        3.2452  -10.2730  -44.6714 H         1 UNK         0.0600 
    187 H187        3.3170   -9.1939  -46.0633 H         1 UNK         0.0600 
    188 H188        1.8775   -9.2352  -45.0594 H         1 UNK         0.0600 
    189 H189        4.0912  -11.5969  -46.5470 H         1 UNK         0.3000 
    190 H190       -2.0117  -21.4239  -44.7264 H         1 UNK         0.3000 
    191 H191       -3.9829  -21.5972  -46.7899 H         1 UNK         0.0600 
    192 H192       -4.0054  -22.6295  -43.8993 H         1 UNK         0.0600 
    193 H193       -5.4195  -22.4660  -44.9339 H         1 UNK         0.0600 
    194 H194       -4.5352  -21.0335  -44.4331 H         1 UNK         0.0600 
    195 H195       -1.7781  -23.9864  -45.3776 H         1 UNK         0.3000 
    196 H196       -3.0459  -26.3259  -46.5385 H         1 UNK         0.0600 
    197 H197       -0.9558  -27.4415  -45.7815 H         1 UNK         0.0600 
    198 H198       -1.6155  -26.4400  -44.4977 H         1 UNK         0.0600 
    199 H199       -0.2236  -25.8818  -45.4248 H         1 UNK         0.0600 
    200 H200       -1.1090  -23.7782  -47.8483 H         1 UNK         0.3000 
    201 H201       -0.1310  -25.4034  -50.1475 H         1 UNK         0.0600 
    202 H202        1.5806  -24.1033  -48.8419 H         1 UNK         0.0600 
    203 H203        0.6977  -22.6165  -49.1859 H         1 UNK         0.0600 
    204 H204        1.4313  -23.5290  -50.4949 H         1 UNK         0.0600 
    205 H205       -2.8823  -23.8191  -49.3750 H         1 UNK         0.3000 
    206 H206       -3.2511  -22.1294  -51.7127 H         1 UNK         0.0600 
    207 H207       -4.4244  -21.7085  -49.5296 H         1 UNK         0.0600 
    208 H208       -5.5609  -21.9329  -50.8501 H         1 UNK         0.0600 
    209 H209       -5.2862  -23.2381  -49.7018 H         1 UNK         0.0600 
    210 H210       -4.8277  -22.5333  -53.3567 H         1 UNK         0.3000 
    211 H211       -4.6870  -25.0967  -54.5988 H         1 UNK         0.0600 
    212 H212       -6.1973  -24.0161  -56.2850 H         1 UNK         0.0600 
    213 H213       -4.8487  -22.9715  -55.8629 H         1 UNK         0.0600 
    214 H214       -6.4477  -22.6564  -55.1963 H         1 UNK         0.0600 
    215 H215       -6.9885  -23.7356  -52.3951 H         1 UNK         0.3000 
    216 H216       -8.6723  -24.4629  -51.2091 H         1 UNK         0.0600 
    217 H217       -9.0966  -26.8680  -50.8660 H         1 UNK         0.0600 
    218 H218       -7.3685  -26.5489  -50.8572 H         1 UNK         0.0600 
    219 H219       -8.1260  -27.2831  -52.2698 H         1 UNK         0.0600 
    220 H220       -8.8444  -25.7817  -54.4983 H         1 UNK         0.3000 
    221 H221      -11.7417  -25.7009  -54.7265 H         1 UNK         0.0600 
    222 H222       -9.5292  -25.8189  -56.8506 H         1 UNK         0.0600 
    223 H223      -10.3362  -27.2084  -56.1236 H         1 UNK         0.0600 
    224 H224      -11.2419  -26.1013  -57.1435 H         1 UNK         0.0600 
    225 H225       -9.2747  -23.2981  -54.7797 H         1 UNK         0.3000 
    226 H226      -11.1716  -21.1820  -55.3895 H         1 UNK         0.0600 
    227 H227      -10.1201  -21.6213  -57.6405 H         1 UNK         0.0600 
    228 H228       -9.5751  -20.0821  -56.9923 H         1 UNK         0.0600 
    229 H229       -8.5145  -21.4847  -56.9250 H         1 UNK         0.0600 
    230 H230      -10.3225  -19.1409  -54.5893 H         1 UNK         0.3000 
    231 H231       -8.5644  -19.3751  -52.2446 H         1 UNK         0.0600 
    232 H232      -10.6711  -18.0833  -52.0774 H         1 UNK         0.0600 
    233 H233      -10.1689  -17.0302  -53.3989 H         1 UNK         0.0600 
    234 H234       -9.2889  -17.0192  -51.8744 H         1 UNK         0.0600 
    235 H235       -6.7966  -20.0874  -53.7793 H         1 UNK         0.3000 
    236 H236       -5.0720  -17.8389  -54.5531 H         1 UNK         0.0600 
    237 H237       -4.6888  -18.8698  -56.8173 H         1 UNK         0.0600 
    238 H238       -5.9242  -20.0796  -56.4903 H         1 UNK         0.0600 
    239 H239       -6.3667  -18.3809  -56.6478 H         1 UNK         0.0600 
    240 H240       -2.8875  -18.7053  -55.1044 H         1 UNK         0.3000 
    241 H241       -1.9601  -20.6307  -53.1780 H         1 UNK         0.0600 
    242 H242       -1.5064  -23.6316  -55.0685 H         1 UNK         0.3800 
    243 H243       -1.2559  -22.8586  -53.5266 H         1 UNK         0.3800 
    244 H244       -0.7731  -18.4731  -54.2965 H         1 UNK         0.0800 
    245 H245       -0.2230  -19.6186  -55.4680 H         1 UNK         0.0800 
    246 H246        0.5279  -17.7423  -52.5341 H         1 UNK         0.0800 
    247 H247       -0.2676  -18.8665  -51.4583 H         1 UNK         0.0800 
@<TRIPOS>BOND
     1    1    2 1    
     2    1  127 1    
     3    1  128 1    
     4    1  129 1    
     5    2    3 2    
     6    2    4 am   BACKBONE|DICT|INTERRES
     7    4    5 1    
     8    4  130 1    
     9    5    6 1    
    10    5   65 1    
    11    5  131 1    
    12    6    7 1    
    13    6  132 1    
    14    6  133 1    
    15    7    8 1    
    16    8    9 1    
    17    8  134 1    
    18    8  135 1    
    19    9   10 ar   
    20    9   14 ar   
    21   10   11 ar   
    22   10  136 1    
    23   11   12 ar   
    24   11  126 1    
    25   12   13 ar   
    26   12  137 1    
    27   13   14 ar   
    28   13   15 1    
    29   14  138 1    
    30   15   16 1    
    31   15  139 1    
    32   15  140 1    
    33   16   17 1    
    34   17   18 1    
    35   17  141 1    
    36   17  142 1    
    37   18   19 1    
    38   18   67 1    
    39   18  143 1    
    40   19   20 am   BACKBONE|DICT|INTERRES
    41   19  144 1    
    42   20   21 2    
    43   20   22 1    
    44   22   23 1    
    45   22   24 1    
    46   22  145 1    
    47   23  146 1    
    48   23  147 1    
    49   23  148 1    
    50   24   25 am   BACKBONE|DICT|INTERRES
    51   24  149 1    
    52   25   26 2    
    53   25   27 1    
    54   27   28 1    
    55   27   29 1    
    56   27  150 1    
    57   28  151 1    
    58   28  152 1    
    59   28  153 1    
    60   29   30 am   BACKBONE|DICT|INTERRES
    61   29  154 1    
    62   30   31 2    
    63   30   32 1    
    64   32   33 1    
    65   32   34 1    
    66   32  155 1    
    67   33  156 1    
    68   33  157 1    
    69   33  158 1    
    70   34   35 am   BACKBONE|DICT|INTERRES
    71   34  159 1    
    72   35   36 2    
    73   35   37 1    
    74   37   38 1    
    75   37   39 1    
    76   37  160 1    
    77   38  161 1    
    78   38  162 1    
    79   38  163 1    
    80   39   40 am   BACKBONE|DICT|INTERRES
    81   39  164 1    
    82   40   41 2    
    83   40   42 1    
    84   42   43 1    
    85   42   44 1    
    86   42  165 1    
    87   43  166 1    
    88   43  167 1    
    89   43  168 1    
    90   44   45 am   BACKBONE|DICT|INTERRES
    91   44  169 1    
    92   45   46 2    
    93   45   47 1    
    94   47   48 1    
    95   47   49 1    
    96   47  170 1    
    97   48  171 1    
    98   48  172 1    
    99   48  173 1    
   100   49   50 am   BACKBONE|DICT|INTERRES
   101   49  174 1    
   102   50   51 2    
   103   50   52 1    
   104   52   53 1    
   105   52   54 1    
   106   52  175 1    
   107   53  176 1    
   108   53  177 1    
   109   53  178 1    
   110   54   55 am   BACKBONE|DICT|INTERRES
   111   54  179 1    
   112   55   56 2    
   113   55   57 1    
   114   57   58 1    
   115   57   59 1    
   116   57  180 1    
   117   58  181 1    
   118   58  182 1    
   119   58  183 1    
   120   59   60 am   BACKBONE|DICT|INTERRES
   121   59  184 1    
   122   60   61 2    
   123   60   62 1    
   124   62   63 1    
   125   62   64 1    
   126   62  185 1    
   127   63  186 1    
   128   63  187 1    
   129   63  188 1    
   130   64   65 am   BACKBONE|DICT|INTERRES
   131   64  189 1    
   132   65   66 2    
   133   67   68 2    
   134   67   69 am   BACKBONE|DICT|INTERRES
   135   69   70 1    
   136   69  190 1    
   137   70   71 1    
   138   70   72 1    
   139   70  191 1    
   140   71  192 1    
   141   71  193 1    
   142   71  194 1    
   143   72   73 2    
   144   72   74 am   BACKBONE|DICT|INTERRES
   145   74   75 1    
   146   74  195 1    
   147   75   76 1    
   148   75   77 1    
   149   75  196 1    
   150   76  197 1    
   151   76  198 1    
   152   76  199 1    
   153   77   78 2    
   154   77   79 am   BACKBONE|DICT|INTERRES
   155   79   80 1    
   156   79  200 1    
   157   80   81 1    
   158   80   82 1    
   159   80  201 1    
   160   81  202 1    
   161   81  203 1    
   162   81  204 1    
   163   82   83 2    
   164   82   84 am   BACKBONE|DICT|INTERRES
   165   84   85 1    
   166   84  205 1    
   167   85   86 1    
   168   85   87 1    
   169   85  206 1    
   170   86  207 1    
   171   86  208 1    
   172   86  209 1    
   173   87   88 2    
   174   87   89 am   BACKBONE|DICT|INTERRES
   175   89   90 1    
   176   89  210 1    
   177   90   91 1    
   178   90   92 1    
   179   90  211 1    
   180   91  212 1    
   181   91  213 1    
   182   91  214 1    
   183   92   93 2    
   184   92   94 am   BACKBONE|DICT|INTERRES
   185   94   95 1    
   186   94  215 1    
   187   95   96 1    
   188   95   97 1    
   189   95  216 1    
   190   96  217 1    
   191   96  218 1    
   192   96  219 1    
   193   97   98 2    
   194   97   99 am   BACKBONE|DICT|INTERRES
   195   99  100 1    
   196   99  220 1    
   197  100  101 1    
   198  100  102 1    
   199  100  221 1    
   200  101  222 1    
   201  101  223 1    
   202  101  224 1    
   203  102  103 2    
   204  102  104 am   BACKBONE|DICT|INTERRES
   205  104  105 1    
   206  104  225 1    
   207  105  106 1    
   208  105  107 1    
   209  105  226 1    
   210  106  227 1    
   211  106  228 1    
   212  106  229 1    
   213  107  108 2    
   214  107  109 am   BACKBONE|DICT|INTERRES
   215  109  110 1    
   216  109  230 1    
   217  110  111 1    
   218  110  112 1    
   219  110  231 1    
   220  111  232 1    
   221  111  233 1    
   222  111  234 1    
   223  112  113 2    
   224  112  114 am   BACKBONE|DICT|INTERRES
   225  114  115 1    
   226  114  235 1    
   227  115  116 1    
   228  115  117 1    
   229  115  236 1    
   230  116  237 1    
   231  116  238 1    
   232  116  239 1    
   233  117  118 2    
   234  117  119 am   BACKBONE|DICT|INTERRES
   235  119  120 1    
   236  119  240 1    
   237  120  121 1    
   238  120  124 1    
   239  120  241 1    
   240  121  122 am   BACKBONE|DICT|INTERRES
   241  121  123 2    
   242  122  242 1    
   243  122  243 1    
   244  124  125 1    
   245  124  244 1    
   246  124  245 1    
   247  125  126 1    
   248  126  246 1    
   249  126  247 1    
@<TRIPOS>SUBSTRUCTURE
     1 UNK         1 GROUP             0       ****    0 ROOT    
