@<TRIPOS>MOLECULE
3R540
247   249    1
SMALL
USER_CHARGES


@<TRIPOS>ATOM
      1 CA          7.1695  -16.4379  -45.5630 C.3       0 UNK        -0.1800 
      2 C           5.8623  -15.6655  -45.4710 C.2       0 UNK         0.5000 
      3 O           5.0596  -15.9241  -44.5757 O.2       0 UNK        -0.5000 
      4 N           5.6469  -14.7095  -46.3830 N.am      1 UNK        -0.5000 
      5 CA          4.4277  -13.8997  -46.5235 C.3       1 UNK         0.1400 
      6 C6          4.2768  -13.3346  -47.9619 C.3       23 UNK        -0.0398 
      7 S7          4.3252  -14.6122  -49.2650 S.3       23 UNK        -0.2404 
      8 C8          2.5542  -14.9589  -49.4993 C.3       23 UNK        -0.0205 
      9 C9          2.3169  -15.8473  -50.7118 C.ar      23 UNK        -0.0193 
     10 C10         1.6965  -15.3370  -51.8563 C.ar      23 UNK        -0.1150 
     11 C11         1.4571  -16.1594  -52.9614 C.ar      23 UNK        -0.0193 
     12 C12         1.8445  -17.5028  -52.9151 C.ar      23 UNK        -0.1150 
     13 C13         2.4740  -18.0246  -51.7813 C.ar      23 UNK        -0.0193 
     14 C14         2.7118  -17.1871  -50.6881 C.ar      23 UNK        -0.1150 
     15 C15         2.9123  -19.4857  -51.7513 C.3       23 UNK        -0.0205 
     16 S16         2.2673  -20.4065  -50.3142 S.3       23 UNK        -0.2404 
     17 C17         0.4771  -20.1128  -50.4857 C.3       23 UNK        -0.0398 
     18 CA         -0.3955  -21.0359  -49.5956 C.3       11 UNK         0.1400 
     19 N           0.0057  -20.9725  -48.1792 N.am      11 UNK        -0.5000 
     20 C          -0.2695  -21.8543  -47.2064 C.2       10 UNK         0.5000 
     21 O          -0.9783  -22.8497  -47.3769 O.2       10 UNK        -0.5000 
     22 CA          0.2482  -21.5401  -45.7886 C.3       10 UNK         0.1400 
     23 CB          0.7804  -22.7881  -45.0598 C.3       10 UNK        -0.1800 
     24 N           1.2020  -20.4305  -45.7249 N.am      10 UNK        -0.5000 
     25 C           2.4759  -20.3929  -46.1427 C.2       9 UNK         0.5000 
     26 O           3.0531  -21.3279  -46.6965 O.2       9 UNK        -0.5000 
     27 CA          3.2293  -19.0718  -45.8938 C.3       9 UNK         0.1400 
     28 CB          3.2759  -18.2335  -47.1776 C.3       9 UNK        -0.1800 
     29 N           2.6103  -18.2800  -44.8296 N.am      9 UNK        -0.5000 
     30 C           2.7630  -18.5322  -43.5224 C.2       8 UNK         0.5000 
     31 O           3.4970  -19.4138  -43.0738 O.2       8 UNK        -0.5000 
     32 CA          1.9159  -17.6874  -42.5580 C.3       8 UNK         0.1400 
     33 CB          2.4636  -16.2586  -42.4465 C.3       8 UNK        -0.1800 
     34 N           0.5080  -17.6408  -42.9556 N.am      8 UNK        -0.5000 
     35 C          -0.3650  -18.6456  -42.7911 C.2       7 UNK         0.5000 
     36 O          -0.0652  -19.7421  -42.3205 O.2       7 UNK        -0.5000 
     37 CA         -1.8214  -18.3825  -43.2177 C.3       7 UNK         0.1400 
     38 CB         -2.6401  -17.8524  -42.0309 C.3       7 UNK        -0.1800 
     39 N          -1.9096  -17.4274  -44.3215 N.am      7 UNK        -0.5000 
     40 C          -1.7733  -17.7560  -45.6120 C.2       6 UNK         0.5000 
     41 O          -1.6311  -18.9095  -46.0168 O.2       6 UNK        -0.5000 
     42 CA         -1.7575  -16.5942  -46.6182 C.3       6 UNK         0.1400 
     43 CB         -3.1768  -16.2554  -47.0943 C.3       6 UNK        -0.1800 
     44 N          -1.1250  -15.3822  -46.0997 N.am      6 UNK        -0.5000 
     45 C           0.1736  -15.2574  -45.8088 C.2       5 UNK         0.5000 
     46 O           0.9789  -16.1859  -45.8671 O.2       5 UNK        -0.5000 
     47 CA          0.6570  -13.8716  -45.3585 C.3       5 UNK         0.1400 
     48 CB          0.5884  -12.8428  -46.5021 C.3       5 UNK        -0.1800 
     49 N           0.0170  -13.3751  -44.1398 N.am      5 UNK        -0.5000 
     50 C          -1.2568  -13.0094  -43.9349 C.2       4 UNK         0.5000 
     51 O          -2.1417  -13.0925  -44.7876 O.2       4 UNK        -0.5000 
     52 CA         -1.6123  -12.4703  -42.5340 C.3       4 UNK         0.1400 
     53 CB         -2.3402  -13.5530  -41.7215 C.3       4 UNK        -0.1800 
     54 N          -0.4518  -12.0100  -41.7665 N.am      4 UNK        -0.5000 
     55 C           0.2860  -10.9251  -42.0429 C.2       3 UNK         0.5000 
     56 O           0.0336  -10.1411  -42.9588 O.2       3 UNK        -0.5000 
     57 CA          1.5324  -10.6811  -41.1634 C.3       3 UNK         0.1400 
     58 CB          1.4998  -11.4334  -39.8133 C.3       3 UNK        -0.1800 
     59 N           2.7851  -10.9752  -41.8713 N.am      3 UNK        -0.5000 
     60 C           3.1198  -12.1260  -42.4724 C.2       2 UNK         0.5000 
     61 O           2.3766  -13.1067  -42.5412 O.2       2 UNK        -0.5000 
     62 CA          4.5457  -12.2129  -43.0414 C.3       2 UNK         0.1400 
     63 CB          5.5115  -12.7347  -41.9667 C.3       2 UNK        -0.1800 
     64 N           4.6035  -13.1155  -44.1892 N.am      2 UNK        -0.5000 
     65 C           4.3289  -12.7790  -45.4535 C.2       1 UNK         0.5000 
     66 O           4.0223  -11.6328  -45.7859 O.2       1 UNK        -0.5000 
     67 C          -1.9043  -20.7433  -49.7994 C.2       11 UNK         0.5000 
     68 O          -2.2839  -20.0094  -50.7160 O.2       11 UNK        -0.5000 
     69 N          -2.7308  -21.2967  -48.9142 N.am      12 UNK        -0.5000 
     70 CA         -4.1795  -21.1888  -48.8396 C.3       12 UNK         0.1400 
     71 CB         -4.6288  -19.7498  -48.5227 C.3       12 UNK        -0.1800 
     72 C          -4.6514  -22.1626  -47.7559 C.2       12 UNK         0.5000 
     73 O          -5.5004  -23.0077  -48.0297 O.2       12 UNK        -0.5000 
     74 N          -4.0522  -22.0517  -46.5600 N.am      13 UNK        -0.5000 
     75 CA         -4.3666  -22.8586  -45.3804 C.3       13 UNK         0.1400 
     76 CB         -3.6516  -22.2670  -44.1544 C.3       13 UNK        -0.1800 
     77 C          -4.0287  -24.3509  -45.5541 C.2       13 UNK         0.5000 
     78 O          -4.9116  -25.1950  -45.3996 O.2       13 UNK        -0.5000 
     79 N          -2.7686  -24.6510  -45.9006 N.am      14 UNK        -0.5000 
     80 CA         -2.2960  -26.0165  -46.1593 C.3       14 UNK         0.1400 
     81 CB         -0.7738  -26.0820  -45.9651 C.3       14 UNK        -0.1800 
     82 C          -2.6803  -26.4988  -47.5685 C.2       14 UNK         0.5000 
     83 O          -2.8147  -27.7016  -47.7923 O.2       14 UNK        -0.5000 
     84 N          -2.8744  -25.5412  -48.4831 N.am      15 UNK        -0.5000 
     85 CA         -3.3166  -25.7487  -49.8602 C.3       15 UNK         0.1400 
     86 CB         -2.9324  -24.5013  -50.6638 C.3       15 UNK        -0.1800 
     87 C          -4.8282  -26.0385  -49.9918 C.2       15 UNK         0.5000 
     88 O          -5.2924  -26.3015  -51.1044 O.2       15 UNK        -0.5000 
     89 N          -5.5675  -25.9477  -48.8735 N.am      16 UNK        -0.5000 
     90 CA         -7.0073  -26.1880  -48.7078 C.3       16 UNK         0.1400 
     91 CB         -7.3170  -27.6864  -48.9026 C.3       16 UNK        -0.1800 
     92 C          -7.8962  -25.2841  -49.5894 C.2       16 UNK         0.5000 
     93 O          -9.0024  -25.6819  -49.9583 O.2       16 UNK        -0.5000 
     94 N          -7.3709  -24.1017  -49.9446 N.am      17 UNK        -0.5000 
     95 CA         -7.8908  -23.1370  -50.9209 C.3       17 UNK         0.1400 
     96 CB         -9.1820  -22.4796  -50.3933 C.3       17 UNK        -0.1800 
     97 C          -8.0626  -23.7152  -52.3484 C.2       17 UNK         0.5000 
     98 O          -8.7928  -23.1319  -53.1518 O.2       17 UNK        -0.5000 
     99 N          -7.4141  -24.8531  -52.6362 N.am      18 UNK        -0.5000 
    100 CA        -7.5945  -25.6409  -53.8526 C.3       18 UNK         0.1400 
    101 CB        -8.0274  -27.0651  -53.4664 C.3       18 UNK        -0.1800 
    102 C         -6.3085  -25.6692  -54.6864 C.2       18 UNK         0.5000 
    103 O         -6.3565  -25.3675  -55.8796 O.2       18 UNK        -0.5000 
    104 N         -5.1790  -26.0168  -54.0523 N.am      19 UNK        -0.5000 
    105 CA        -3.8645  -26.0627  -54.7032 C.3       19 UNK         0.1400 
    106 CB        -2.9302  -26.9748  -53.8928 C.3       19 UNK        -0.1800 
    107 C         -3.2467  -24.6627  -54.8947 C.2       19 UNK         0.5000 
    108 O         -2.4023  -24.4798  -55.7721 O.2       19 UNK        -0.5000 
    109 N         -3.6947  -23.7066  -54.0775 N.am      20 UNK        -0.5000 
    110 CA        -3.3306  -22.2988  -54.0495 C.3       20 UNK         0.1400 
    111 CB        -1.8980  -22.1109  -53.5134 C.3       20 UNK        -0.1800 
    112 C         -4.3479  -21.6004  -53.1385 C.2       20 UNK         0.5000 
    113 O         -4.9566  -22.2569  -52.2894 O.2       20 UNK        -0.5000 
    114 N         -4.5056  -20.2891  -53.3218 N.am      21 UNK        -0.5000 
    115 CA        -5.3671  -19.4270  -52.5159 C.3       21 UNK         0.1400 
    116 CB        -6.8288  -19.5288  -52.9957 C.3       21 UNK        -0.1800 
    117 C         -4.8004  -17.9985  -52.5560 C.2       21 UNK         0.5000 
    118 O         -5.5203  -17.0480  -52.8663 O.2       21 UNK        -0.5000 
    119 N         -3.4942  -17.8944  -52.2928 N.am      22 UNK        -0.5000 
    120 CA        -2.7010  -16.6566  -52.3485 C.3       22 UNK         0.1400 
    121 C         -1.9971  -16.3336  -50.9990 C.2       22 UNK         0.5000 
    122 N         -1.7967  -17.2975  -50.1114 N.am      22 UNK        -0.7600 
    123 O         -1.6658  -15.1838  -50.7266 O.2       22 UNK        -0.5000 
    124 C124       -1.7073  -16.7281  -53.5373 C.3       23 UNK        -0.0398 
    125 S125       -0.9412  -15.1281  -53.9728 S.3       23 UNK        -0.2404 
    126 C126        0.8046  -15.5935  -54.2169 C.3       23 UNK        -0.0205 
    127 H127        7.7792  -16.1050  -46.4033 H         1 UNK         0.0600 
    128 H128        6.9657  -17.5011  -45.6901 H         1 UNK         0.0600 
    129 H129        7.7475  -16.3068  -44.6483 H         1 UNK         0.0600 
    130 H130        6.3557  -14.5352  -47.0810 H         1 UNK         0.3000 
    131 H131        3.5783  -14.5637  -46.3527 H         1 UNK         0.0600 
    132 H132        5.0802  -12.6259  -48.1700 H         1 UNK         0.0800 
    133 H133        3.3507  -12.7671  -48.0630 H         1 UNK         0.0800 
    134 H134        2.0093  -14.0204  -49.6107 H         1 UNK         0.0800 
    135 H135        2.1583  -15.4471  -48.6072 H         1 UNK         0.0800 
    136 H136        1.3901  -14.3009  -51.8882 H         1 UNK         0.1150 
    137 H137        1.6643  -18.1411  -53.7687 H         1 UNK         0.1150 
    138 H138        3.2098  -17.5790  -49.8159 H         1 UNK         0.1150 
    139 H139        2.6023  -20.0010  -52.6617 H         1 UNK         0.0800 
    140 H140        4.0021  -19.5245  -51.7326 H         1 UNK         0.0800 
    141 H141        0.2141  -20.2402  -51.5376 H         1 UNK         0.0800 
    142 H142        0.2919  -19.0654  -50.2454 H         1 UNK         0.0800 
    143 H143       -0.2376  -22.0620  -49.9337 H         1 UNK         0.0600 
    144 H144        0.5673  -20.1745  -47.9243 H         1 UNK         0.3000 
    145 H145       -0.6211  -21.1984  -45.2273 H         1 UNK         0.0600 
    146 H146        1.1978  -22.5293  -44.0865 H         1 UNK         0.0600 
    147 H147       -0.0231  -23.5013  -44.8824 H         1 UNK         0.0600 
    148 H148        1.5534  -23.2981  -45.6353 H         1 UNK         0.0600 
    149 H149        0.8391  -19.5857  -45.3070 H         1 UNK         0.3000 
    150 H150        4.2547  -19.3136  -45.6061 H         1 UNK         0.0600 
    151 H151        3.8133  -18.7691  -47.9607 H         1 UNK         0.0600 
    152 H152        3.7905  -17.2861  -47.0181 H         1 UNK         0.0600 
    153 H153        2.2757  -18.0114  -47.5517 H         1 UNK         0.0600 
    154 H154        2.0111  -17.5123  -45.1262 H         1 UNK         0.3000 
    155 H155        1.9786  -18.1458  -41.5686 H         1 UNK         0.0600 
    156 H156        3.5061  -16.2627  -42.1261 H         1 UNK         0.0600 
    157 H157        1.9019  -15.6767  -41.7158 H         1 UNK         0.0600 
    158 H158        2.4210  -15.7327  -43.4005 H         1 UNK         0.0600 
    159 H159        0.1888  -16.7878  -43.3866 H         1 UNK         0.3000 
    160 H160       -2.2554  -19.3352  -43.5289 H         1 UNK         0.0600 
    161 H161       -2.2542  -16.9000  -41.6658 H         1 UNK         0.0600 
    162 H162       -2.6192  -18.5560  -41.1976 H         1 UNK         0.0600 
    163 H163       -3.6849  -17.7079  -42.3066 H         1 UNK         0.0600 
    164 H164       -2.0478  -16.4564  -44.0843 H         1 UNK         0.3000 
    165 H165       -1.1716  -16.9259  -47.4757 H         1 UNK         0.0600 
    166 H166       -3.1595  -15.4769  -47.8576 H         1 UNK         0.0600 
    167 H167       -3.6617  -17.1248  -47.5363 H         1 UNK         0.0600 
    168 H168       -3.8052  -15.9069  -46.2738 H         1 UNK         0.0600 
    169 H169       -1.7187  -14.5710  -45.9487 H         1 UNK         0.3000 
    170 H170        1.7056  -13.9908  -45.0917 H         1 UNK         0.0600 
    171 H171        1.0951  -13.2153  -47.3917 H         1 UNK         0.0600 
    172 H172       -0.4373  -12.6125  -46.7904 H         1 UNK         0.0600 
    173 H173        1.0729  -11.9087  -46.2168 H         1 UNK         0.0600 
    174 H174        0.6619  -13.2678  -43.3600 H         1 UNK         0.3000 
    175 H175       -2.2900  -11.6251  -42.6703 H         1 UNK         0.0600 
    176 H176       -3.2245  -13.9130  -42.2494 H         1 UNK         0.0600 
    177 H177       -1.6971  -14.4133  -41.5321 H         1 UNK         0.0600 
    178 H178       -2.6747  -13.1654  -40.7590 H         1 UNK         0.0600 
    179 H179       -0.1506  -12.6045  -41.0081 H         1 UNK         0.3000 
    180 H180        1.5424   -9.6129  -40.9419 H         1 UNK         0.0600 
    181 H181        1.5604  -12.5152  -39.9380 H         1 UNK         0.0600 
    182 H182        0.5869  -11.2105  -39.2595 H         1 UNK         0.0600 
    183 H183        2.3363  -11.1315  -39.1830 H         1 UNK         0.0600 
    184 H184        3.4542  -10.2182  -41.8872 H         1 UNK         0.3000 
    185 H185        4.8692  -11.2157  -43.3475 H         1 UNK         0.0600 
    186 H186        5.5183  -12.0810  -41.0935 H         1 UNK         0.0600 
    187 H187        5.2326  -13.7335  -41.6276 H         1 UNK         0.0600 
    188 H188        6.5330  -12.7826  -42.3446 H         1 UNK         0.0600 
    189 H189        4.7854  -14.0957  -43.9946 H         1 UNK         0.3000 
    190 H190       -2.3003  -21.9125  -48.2290 H         1 UNK         0.3000 
    191 H191       -4.6067  -21.4973  -49.7942 H         1 UNK         0.0600 
    192 H192       -4.2061  -19.3983  -47.5814 H         1 UNK         0.0600 
    193 H193       -5.7145  -19.6926  -48.4377 H         1 UNK         0.0600 
    194 H194       -4.3309  -19.0496  -49.3022 H         1 UNK         0.0600 
    195 H195       -3.3829  -21.3073  -46.4270 H         1 UNK         0.3000 
    196 H196       -5.4425  -22.7844  -45.2078 H         1 UNK         0.0600 
    197 H197       -3.8872  -22.8358  -43.2540 H         1 UNK         0.0600 
    198 H198       -3.9628  -21.2375  -43.9765 H         1 UNK         0.0600 
    199 H199       -2.5679  -22.2741  -44.2708 H         1 UNK         0.0600 
    200 H200       -2.1105  -23.9036  -46.0899 H         1 UNK         0.3000 
    201 H201       -2.7566  -26.6967  -45.4395 H         1 UNK         0.0600 
    202 H202       -0.4977  -25.8332  -44.9407 H         1 UNK         0.0600 
    203 H203       -0.2498  -25.3993  -46.6349 H         1 UNK         0.0600 
    204 H204       -0.3982  -27.0867  -46.1633 H         1 UNK         0.0600 
    205 H205       -2.7082  -24.5867  -48.2001 H         1 UNK         0.3000 
    206 H206       -2.7808  -26.6057  -50.2730 H         1 UNK         0.0600 
    207 H207       -1.8718  -24.2700  -50.5636 H         1 UNK         0.0600 
    208 H208       -3.1306  -24.6511  -51.7205 H         1 UNK         0.0600 
    209 H209       -3.5022  -23.6285  -50.3490 H         1 UNK         0.0600 
    210 H210       -5.0890  -25.6583  -48.0318 H         1 UNK         0.3000 
    211 H211       -7.2417  -25.9287  -47.6744 H         1 UNK         0.0600 
    212 H212       -7.1639  -27.9982  -49.9364 H         1 UNK         0.0600 
    213 H213       -8.3518  -27.9118  -48.6420 H         1 UNK         0.0600 
    214 H214       -6.6826  -28.3055  -48.2681 H         1 UNK         0.0600 
    215 H215       -6.4924  -23.8434  -49.5048 H         1 UNK         0.3000 
    216 H216       -7.1406  -22.3507  -50.9940 H         1 UNK         0.0600 
    217 H217       -9.4898  -21.6516  -51.0329 H         1 UNK         0.0600 
    218 H218       -9.0368  -22.0759  -49.3913 H         1 UNK         0.0600 
    219 H219      -10.0100  -23.1879  -50.3541 H         1 UNK         0.0600 
    220 H220       -6.8034  -25.2519  -51.9313 H         1 UNK         0.3000 
    221 H221       -8.3815  -25.2122  -54.4763 H         1 UNK         0.0600 
    222 H222       -7.2946  -27.5531  -52.8223 H         1 UNK         0.0600 
    223 H223       -8.9785  -27.0526  -52.9337 H         1 UNK         0.0600 
    224 H224       -8.1573  -27.6890  -54.3515 H         1 UNK         0.0600 
    225 H225       -5.2130  -26.2465  -53.0633 H         1 UNK         0.3000 
    226 H226       -3.9803  -26.5044  -55.6953 H         1 UNK         0.0600 
    227 H227       -3.3254  -27.9892  -53.8366 H         1 UNK         0.0600 
    228 H228       -1.9450  -27.0360  -54.3567 H         1 UNK         0.0600 
    229 H229       -2.7910  -26.6164  -52.8741 H         1 UNK         0.0600 
    230 H230       -4.4155  -23.9377  -53.4043 H         1 UNK         0.3000 
    231 H231       -3.4118  -21.8904  -55.0586 H         1 UNK         0.0600 
    232 H232       -1.1630  -22.5968  -54.1546 H         1 UNK         0.0600 
    233 H233       -1.7882  -22.5200  -52.5092 H         1 UNK         0.0600 
    234 H234       -1.6339  -21.0538  -53.4646 H         1 UNK         0.0600 
    235 H235       -3.9606  -19.8167  -54.0299 H         1 UNK         0.3000 
    236 H236       -5.3245  -19.7506  -51.4745 H         1 UNK         0.0600 
    237 H237       -7.4835  -18.8988  -52.3926 H         1 UNK         0.0600 
    238 H238       -6.9314  -19.2151  -54.0349 H         1 UNK         0.0600 
    239 H239       -7.2027  -20.5497  -52.9171 H         1 UNK         0.0600 
    240 H240       -3.0018  -18.7267  -51.9818 H         1 UNK         0.3000 
    241 H241       -3.3711  -15.8148  -52.5318 H         1 UNK         0.0600 
    242 H242       -1.3369  -17.0593  -49.2524 H         1 UNK         0.3800 
    243 H243       -2.0725  -18.2549  -50.3038 H         1 UNK         0.3800 
    244 H244       -0.9439  -17.4808  -53.3406 H         1 UNK         0.0800 
    245 H245       -2.2323  -17.0714  -54.4296 H         1 UNK         0.0800 
    246 H246        0.8684  -16.3054  -55.0414 H         1 UNK         0.0800 
    247 H247        1.3604  -14.7107  -54.5358 H         1 UNK         0.0800 
@<TRIPOS>BOND
     1    1    2 1    
     2    1  127 1    
     3    1  128 1    
     4    1  129 1    
     5    2    3 2    
     6    2    4 am   BACKBONE|DICT|INTERRES
     7    4    5 1    
     8    4  130 1    
     9    5    6 1    
    10    5   65 1    
    11    5  131 1    
    12    6    7 1    
    13    6  132 1    
    14    6  133 1    
    15    7    8 1    
    16    8    9 1    
    17    8  134 1    
    18    8  135 1    
    19    9   10 ar   
    20    9   14 ar   
    21   10   11 ar   
    22   10  136 1    
    23   11   12 ar   
    24   11  126 1    
    25   12   13 ar   
    26   12  137 1    
    27   13   14 ar   
    28   13   15 1    
    29   14  138 1    
    30   15   16 1    
    31   15  139 1    
    32   15  140 1    
    33   16   17 1    
    34   17   18 1    
    35   17  141 1    
    36   17  142 1    
    37   18   19 1    
    38   18   67 1    
    39   18  143 1    
    40   19   20 am   BACKBONE|DICT|INTERRES
    41   19  144 1    
    42   20   21 2    
    43   20   22 1    
    44   22   23 1    
    45   22   24 1    
    46   22  145 1    
    47   23  146 1    
    48   23  147 1    
    49   23  148 1    
    50   24   25 am   BACKBONE|DICT|INTERRES
    51   24  149 1    
    52   25   26 2    
    53   25   27 1    
    54   27   28 1    
    55   27   29 1    
    56   27  150 1    
    57   28  151 1    
    58   28  152 1    
    59   28  153 1    
    60   29   30 am   BACKBONE|DICT|INTERRES
    61   29  154 1    
    62   30   31 2    
    63   30   32 1    
    64   32   33 1    
    65   32   34 1    
    66   32  155 1    
    67   33  156 1    
    68   33  157 1    
    69   33  158 1    
    70   34   35 am   BACKBONE|DICT|INTERRES
    71   34  159 1    
    72   35   36 2    
    73   35   37 1    
    74   37   38 1    
    75   37   39 1    
    76   37  160 1    
    77   38  161 1    
    78   38  162 1    
    79   38  163 1    
    80   39   40 am   BACKBONE|DICT|INTERRES
    81   39  164 1    
    82   40   41 2    
    83   40   42 1    
    84   42   43 1    
    85   42   44 1    
    86   42  165 1    
    87   43  166 1    
    88   43  167 1    
    89   43  168 1    
    90   44   45 am   BACKBONE|DICT|INTERRES
    91   44  169 1    
    92   45   46 2    
    93   45   47 1    
    94   47   48 1    
    95   47   49 1    
    96   47  170 1    
    97   48  171 1    
    98   48  172 1    
    99   48  173 1    
   100   49   50 am   BACKBONE|DICT|INTERRES
   101   49  174 1    
   102   50   51 2    
   103   50   52 1    
   104   52   53 1    
   105   52   54 1    
   106   52  175 1    
   107   53  176 1    
   108   53  177 1    
   109   53  178 1    
   110   54   55 am   BACKBONE|DICT|INTERRES
   111   54  179 1    
   112   55   56 2    
   113   55   57 1    
   114   57   58 1    
   115   57   59 1    
   116   57  180 1    
   117   58  181 1    
   118   58  182 1    
   119   58  183 1    
   120   59   60 am   BACKBONE|DICT|INTERRES
   121   59  184 1    
   122   60   61 2    
   123   60   62 1    
   124   62   63 1    
   125   62   64 1    
   126   62  185 1    
   127   63  186 1    
   128   63  187 1    
   129   63  188 1    
   130   64   65 am   BACKBONE|DICT|INTERRES
   131   64  189 1    
   132   65   66 2    
   133   67   68 2    
   134   67   69 am   BACKBONE|DICT|INTERRES
   135   69   70 1    
   136   69  190 1    
   137   70   71 1    
   138   70   72 1    
   139   70  191 1    
   140   71  192 1    
   141   71  193 1    
   142   71  194 1    
   143   72   73 2    
   144   72   74 am   BACKBONE|DICT|INTERRES
   145   74   75 1    
   146   74  195 1    
   147   75   76 1    
   148   75   77 1    
   149   75  196 1    
   150   76  197 1    
   151   76  198 1    
   152   76  199 1    
   153   77   78 2    
   154   77   79 am   BACKBONE|DICT|INTERRES
   155   79   80 1    
   156   79  200 1    
   157   80   81 1    
   158   80   82 1    
   159   80  201 1    
   160   81  202 1    
   161   81  203 1    
   162   81  204 1    
   163   82   83 2    
   164   82   84 am   BACKBONE|DICT|INTERRES
   165   84   85 1    
   166   84  205 1    
   167   85   86 1    
   168   85   87 1    
   169   85  206 1    
   170   86  207 1    
   171   86  208 1    
   172   86  209 1    
   173   87   88 2    
   174   87   89 am   BACKBONE|DICT|INTERRES
   175   89   90 1    
   176   89  210 1    
   177   90   91 1    
   178   90   92 1    
   179   90  211 1    
   180   91  212 1    
   181   91  213 1    
   182   91  214 1    
   183   92   93 2    
   184   92   94 am   BACKBONE|DICT|INTERRES
   185   94   95 1    
   186   94  215 1    
   187   95   96 1    
   188   95   97 1    
   189   95  216 1    
   190   96  217 1    
   191   96  218 1    
   192   96  219 1    
   193   97   98 2    
   194   97   99 am   BACKBONE|DICT|INTERRES
   195   99  100 1    
   196   99  220 1    
   197  100  101 1    
   198  100  102 1    
   199  100  221 1    
   200  101  222 1    
   201  101  223 1    
   202  101  224 1    
   203  102  103 2    
   204  102  104 am   BACKBONE|DICT|INTERRES
   205  104  105 1    
   206  104  225 1    
   207  105  106 1    
   208  105  107 1    
   209  105  226 1    
   210  106  227 1    
   211  106  228 1    
   212  106  229 1    
   213  107  108 2    
   214  107  109 am   BACKBONE|DICT|INTERRES
   215  109  110 1    
   216  109  230 1    
   217  110  111 1    
   218  110  112 1    
   219  110  231 1    
   220  111  232 1    
   221  111  233 1    
   222  111  234 1    
   223  112  113 2    
   224  112  114 am   BACKBONE|DICT|INTERRES
   225  114  115 1    
   226  114  235 1    
   227  115  116 1    
   228  115  117 1    
   229  115  236 1    
   230  116  237 1    
   231  116  238 1    
   232  116  239 1    
   233  117  118 2    
   234  117  119 am   BACKBONE|DICT|INTERRES
   235  119  120 1    
   236  119  240 1    
   237  120  121 1    
   238  120  124 1    
   239  120  241 1    
   240  121  122 am   BACKBONE|DICT|INTERRES
   241  121  123 2    
   242  122  242 1    
   243  122  243 1    
   244  124  125 1    
   245  124  244 1    
   246  124  245 1    
   247  125  126 1    
   248  126  246 1    
   249  126  247 1    
@<TRIPOS>SUBSTRUCTURE
     1 UNK         1 GROUP             0       ****    0 ROOT    
