@<TRIPOS>MOLECULE
3R540
247   249    1
SMALL
USER_CHARGES


@<TRIPOS>ATOM
      1 CA         -4.0605  -15.8141  -44.0532 C.3       0 UNK        -0.1800 
      2 C          -4.9111  -15.3627  -45.2294 C.2       0 UNK         0.5000 
      3 O          -5.3357  -14.2078  -45.2654 O.2       0 UNK        -0.5000 
      4 N          -5.1744  -16.2704  -46.1787 N.am      1 UNK        -0.5000 
      5 CA         -6.0417  -16.0289  -47.3390 C.3       1 UNK         0.1400 
      6 C6         -6.4790  -17.3374  -48.0420 C.3       23 UNK        -0.0398 
      7 S7         -7.2985  -18.5064  -46.9001 S.3       23 UNK        -0.2404 
      8 C8         -6.2179  -19.9738  -46.9644 C.3       23 UNK        -0.0205 
      9 C9         -4.8370  -19.7185  -46.3745 C.ar      23 UNK        -0.0193 
     10 C10        -3.7500  -19.4830  -47.2181 C.ar      23 UNK        -0.1150 
     11 C11        -2.4813  -19.2354  -46.6913 C.ar      23 UNK        -0.0193 
     12 C12        -2.2986  -19.2348  -45.3084 C.ar      23 UNK        -0.1150 
     13 C13        -3.3711  -19.4921  -44.4456 C.ar      23 UNK        -0.0193 
     14 C14        -4.6393  -19.7291  -44.9896 C.ar      23 UNK        -0.1150 
     15 C15        -3.1964  -19.4498  -42.9282 C.3       23 UNK        -0.0205 
     16 S16        -1.5797  -20.0588  -42.3369 S.3       23 UNK        -0.2404 
     17 C17        -1.8003  -21.8672  -42.4253 C.3       23 UNK        -0.0398 
     18 CA         -1.2841  -22.4990  -43.7414 C.3       11 UNK         0.1400 
     19 N           0.1222  -22.1673  -44.0083 N.am      11 UNK        -0.5000 
     20 C           0.8050  -22.4869  -45.1182 C.2       10 UNK         0.5000 
     21 O           0.3029  -23.0849  -46.0696 O.2       10 UNK        -0.5000 
     22 CA          2.3140  -22.1723  -45.1425 C.3       10 UNK         0.1400 
     23 CB          2.6052  -20.9239  -45.9855 C.3       10 UNK        -0.1800 
     24 N           2.9029  -22.0093  -43.8109 N.am      10 UNK        -0.5000 
     25 C           2.9980  -22.9845  -42.8924 C.2       9 UNK         0.5000 
     26 O           2.5643  -24.1234  -43.0701 O.2       9 UNK        -0.5000 
     27 CA          3.6676  -22.6378  -41.5473 C.3       9 UNK         0.1400 
     28 CB          5.1006  -23.1898  -41.5067 C.3       9 UNK        -0.1800 
     29 N           3.7084  -21.2022  -41.2672 N.am      9 UNK        -0.5000 
     30 C           2.6409  -20.4360  -41.0016 C.2       8 UNK         0.5000 
     31 O           1.4970  -20.8781  -40.9019 O.2       8 UNK        -0.5000 
     32 CA          2.8953  -18.9210  -40.8579 C.3       8 UNK         0.1400 
     33 CB          3.0024  -18.5310  -39.3760 C.3       8 UNK        -0.1800 
     34 N           4.1017  -18.4693  -41.5631 N.am      8 UNK        -0.5000 
     35 C           4.2304  -18.4553  -42.8960 C.2       7 UNK         0.5000 
     36 O           3.3408  -18.8085  -43.6713 O.2       7 UNK        -0.5000 
     37 CA          5.6000  -18.0607  -43.4581 C.3       7 UNK         0.1400 
     38 CB          6.3865  -19.3328  -43.8379 C.3       7 UNK        -0.1800 
     39 N           5.3902  -17.1988  -44.6174 N.am      7 UNK        -0.5000 
     40 C           6.3401  -16.5468  -45.2997 C.2       6 UNK         0.5000 
     41 O           7.5433  -16.6189  -45.0463 O.2       6 UNK        -0.5000 
     42 CA          5.8641  -15.6303  -46.4437 C.3       6 UNK         0.1400 
     43 CB          5.5615  -16.4520  -47.7064 C.3       6 UNK        -0.1800 
     44 N           4.6865  -14.8357  -46.0902 N.am      6 UNK        -0.5000 
     45 C           4.6478  -13.9073  -45.1201 C.2       5 UNK         0.5000 
     46 O           5.6304  -13.5768  -44.4551 O.2       5 UNK        -0.5000 
     47 CA          3.2919  -13.2250  -44.8356 C.3       5 UNK         0.1400 
     48 CB          3.2775  -11.7976  -45.4045 C.3       5 UNK        -0.1800 
     49 N           2.1419  -13.9543  -45.3712 N.am      5 UNK        -0.5000 
     50 C           1.7316  -15.1630  -44.9641 C.2       4 UNK         0.5000 
     51 O           2.2290  -15.7603  -44.0106 O.2       4 UNK        -0.5000 
     52 CA          0.6047  -15.8309  -45.7771 C.3       4 UNK         0.1400 
     53 CB         -0.6969  -15.8821  -44.9674 C.3       4 UNK        -0.1800 
     54 N           0.3264  -15.1857  -47.0656 N.am      4 UNK        -0.5000 
     55 C           1.1398  -15.1864  -48.1310 C.2       3 UNK         0.5000 
     56 O           2.2706  -15.6745  -48.1051 O.2       3 UNK        -0.5000 
     57 CA          0.6328  -14.4953  -49.4212 C.3       3 UNK         0.1400 
     58 CB          0.9951  -15.3119  -50.6798 C.3       3 UNK        -0.1800 
     59 N          -0.7992  -14.1416  -49.4297 N.am      3 UNK        -0.5000 
     60 C          -1.8318  -14.9936  -49.3701 C.2       2 UNK         0.5000 
     61 O          -1.7015  -16.2089  -49.2387 O.2       2 UNK        -0.5000 
     62 CA         -3.2459  -14.4056  -49.4578 C.3       2 UNK         0.1400 
     63 CB         -3.7279  -14.3804  -50.9227 C.3       2 UNK        -0.1800 
     64 N          -4.1090  -15.2361  -48.6204 N.am      2 UNK        -0.5000 
     65 C          -5.4037  -15.0436  -48.3419 C.2       1 UNK         0.5000 
     66 O          -6.0816  -14.1271  -48.8080 O.2       1 UNK        -0.5000 
     67 C          -1.5686  -24.0210  -43.7359 C.2       11 UNK         0.5000 
     68 O          -2.7280  -24.4121  -43.8670 O.2       11 UNK        -0.5000 
     69 N          -0.5259  -24.8569  -43.6033 N.am      12 UNK        -0.5000 
     70 CA         -0.6048  -26.3078  -43.7798 C.3       12 UNK         0.1400 
     71 CB          0.6913  -26.9499  -43.2633 C.3       12 UNK        -0.1800 
     72 C          -0.8653  -26.7199  -45.2442 C.2       12 UNK         0.5000 
     73 O          -1.4825  -27.7609  -45.4730 O.2       12 UNK        -0.5000 
     74 N          -0.4043  -25.9023  -46.2019 N.am      13 UNK        -0.5000 
     75 CA         -0.6791  -26.0563  -47.6292 C.3       13 UNK         0.1400 
     76 CB          0.5367  -25.5867  -48.4458 C.3       13 UNK        -0.1800 
     77 C          -1.9399  -25.2676  -48.0165 C.2       13 UNK         0.5000 
     78 O          -2.8253  -25.8270  -48.6648 O.2       13 UNK        -0.5000 
     79 N          -2.0019  -23.9984  -47.5828 N.am      14 UNK        -0.5000 
     80 CA         -3.0835  -23.0367  -47.8087 C.3       14 UNK         0.1400 
     81 CB         -4.3298  -23.4224  -46.9810 C.3       14 UNK        -0.1800 
     82 C          -3.3614  -22.8137  -49.3132 C.2       14 UNK         0.5000 
     83 O          -2.4234  -22.5333  -50.0600 O.2       14 UNK        -0.5000 
     84 N          -4.6327  -22.9278  -49.7265 N.am      15 UNK        -0.5000 
     85 CA         -5.1626  -22.8940  -51.0991 C.3       15 UNK         0.1400 
     86 CB         -4.4916  -23.9633  -51.9840 C.3       15 UNK        -0.1800 
     87 C          -5.1517  -21.5192  -51.7963 C.2       15 UNK         0.5000 
     88 O          -5.7760  -21.3861  -52.8511 O.2       15 UNK        -0.5000 
     89 N          -4.4976  -20.5075  -51.2081 N.am      16 UNK        -0.5000 
     90 CA         -4.3073  -19.1725  -51.7918 C.3       16 UNK         0.1400 
     91 CB         -3.3706  -18.3473  -50.9068 C.3       16 UNK        -0.1800 
     92 C          -5.6005  -18.3843  -52.0660 C.2       16 UNK         0.5000 
     93 O          -5.5701  -17.4539  -52.8690 O.2       16 UNK        -0.5000 
     94 N          -6.7153  -18.7921  -51.4440 N.am      17 UNK        -0.5000 
     95 CA         -8.0630  -18.2973  -51.7339 C.3       17 UNK         0.1400 
     96 CB         -9.0505  -18.9321  -50.7421 C.3       17 UNK        -0.1800 
     97 C          -8.5156  -18.5696  -53.1853 C.2       17 UNK         0.5000 
     98 O          -9.3131  -17.7979  -53.7193 O.2       17 UNK        -0.5000 
     99 N          -7.9933  -19.6449  -53.7923 N.am      18 UNK        -0.5000 
    100 CA        -8.2279  -20.0190  -55.1858 C.3       18 UNK         0.1400 
    101 CB        -8.7424  -21.4666  -55.2344 C.3       18 UNK        -0.1800 
    102 C         -6.9466  -19.8792  -56.0252 C.2       18 UNK         0.5000 
    103 O         -7.0177  -19.4159  -57.1638 O.2       18 UNK        -0.5000 
    104 N         -5.8010  -20.2882  -55.4618 N.am      19 UNK        -0.5000 
    105 CA        -4.5128  -20.3568  -56.1556 C.3       19 UNK         0.1400 
    106 CB        -3.6177  -21.3716  -55.4264 C.3       19 UNK        -0.1800 
    107 C         -3.7900  -19.0024  -56.2963 C.2       19 UNK         0.5000 
    108 O         -2.8508  -18.9135  -57.0869 O.2       19 UNK        -0.5000 
    109 N         -4.2067  -17.9908  -55.5183 N.am      20 UNK        -0.5000 
    110 CA        -3.6601  -16.6259  -55.4298 C.3       20 UNK         0.1400 
    111 CB        -3.7140  -15.9086  -56.7945 C.3       20 UNK        -0.1800 
    112 C         -2.2619  -16.5227  -54.7773 C.2       20 UNK         0.5000 
    113 O         -1.7489  -15.4134  -54.6248 O.2       20 UNK        -0.5000 
    114 N         -1.6821  -17.6560  -54.3725 N.am      21 UNK        -0.5000 
    115 CA        -0.4240  -17.7856  -53.6499 C.3       21 UNK         0.1400 
    116 CB         0.7537  -17.8105  -54.6378 C.3       21 UNK        -0.1800 
    117 C         -0.4987  -19.0802  -52.8309 C.2       21 UNK         0.5000 
    118 O         -1.2203  -20.0013  -53.2220 O.2       21 UNK        -0.5000 
    119 N          0.2087  -19.1129  -51.6976 N.am      22 UNK        -0.5000 
    120 CA         0.1612  -20.2179  -50.7303 C.3       22 UNK         0.1400 
    121 C          0.8550  -21.5090  -51.2425 C.2       22 UNK         0.5000 
    122 N          0.2140  -22.6605  -51.1020 N.am      22 UNK        -0.7600 
    123 O          1.9812  -21.4733  -51.7334 O.2       22 UNK        -0.5000 
    124 C124        0.7019  -19.7739  -49.3437 C.3       23 UNK        -0.0398 
    125 S125       -0.3370  -20.4132  -47.9887 S.3       23 UNK        -0.2404 
    126 C126       -1.3177  -18.9364  -47.6170 C.3       23 UNK        -0.0205 
    127 H127       -3.4818  -16.7011  -44.3007 H         1 UNK         0.0600 
    128 H128       -4.6948  -16.0449  -43.1976 H         1 UNK         0.0600 
    129 H129       -3.3660  -15.0267  -43.7613 H         1 UNK         0.0600 
    130 H130       -4.8273  -17.2142  -46.0769 H         1 UNK         0.3000 
    131 H131       -6.9495  -15.5504  -46.9638 H         1 UNK         0.0600 
    132 H132       -7.1837  -17.1085  -48.8428 H         1 UNK         0.0800 
    133 H133       -5.6323  -17.8248  -48.5215 H         1 UNK         0.0800 
    134 H134       -6.6992  -20.7816  -46.4114 H         1 UNK         0.0800 
    135 H135       -6.1403  -20.3194  -47.9964 H         1 UNK         0.0800 
    136 H136       -3.8902  -19.4912  -48.2877 H         1 UNK         0.1150 
    137 H137       -1.3161  -19.0271  -44.9094 H         1 UNK         0.1150 
    138 H138       -5.4806  -19.9090  -44.3350 H         1 UNK         0.1150 
    139 H139       -3.9926  -20.0080  -42.4337 H         1 UNK         0.0800 
    140 H140       -3.3057  -18.4154  -42.6025 H         1 UNK         0.0800 
    141 H141       -2.8564  -22.0990  -42.2758 H         1 UNK         0.0800 
    142 H142       -1.2745  -22.2994  -41.5719 H         1 UNK         0.0800 
    143 H143       -1.8666  -22.0826  -44.5658 H         1 UNK         0.0600 
    144 H144        0.6073  -21.6781  -43.2685 H         1 UNK         0.3000 
    145 H145        2.8133  -23.0199  -45.6163 H         1 UNK         0.0600 
    146 H146        2.3649  -21.1067  -47.0321 H         1 UNK         0.0600 
    147 H147        3.6587  -20.6470  -45.9423 H         1 UNK         0.0600 
    148 H148        2.0165  -20.0668  -45.6556 H         1 UNK         0.0600 
    149 H149        3.2372  -21.0820  -43.5817 H         1 UNK         0.3000 
    150 H150        3.0888  -23.1234  -40.7588 H         1 UNK         0.0600 
    151 H151        5.7315  -22.7281  -42.2675 H         1 UNK         0.0600 
    152 H152        5.1100  -24.2665  -41.6817 H         1 UNK         0.0600 
    153 H153        5.5633  -23.0167  -40.5349 H         1 UNK         0.0600 
    154 H154        4.6122  -20.7570  -41.3181 H         1 UNK         0.3000 
    155 H155        2.0352  -18.4027  -41.2879 H         1 UNK         0.0600 
    156 H156        3.8570  -19.0079  -38.8943 H         1 UNK         0.0600 
    157 H157        2.1076  -18.8302  -38.8284 H         1 UNK         0.0600 
    158 H158        3.1077  -17.4523  -39.2585 H         1 UNK         0.0600 
    159 H159        4.8768  -18.1735  -40.9868 H         1 UNK         0.3000 
    160 H160        6.1520  -17.4992  -42.7019 H         1 UNK         0.0600 
    161 H161        5.8970  -19.8800  -44.6446 H         1 UNK         0.0600 
    162 H162        6.4714  -20.0100  -42.9872 H         1 UNK         0.0600 
    163 H163        7.4015  -19.1017  -44.1596 H         1 UNK         0.0600 
    164 H164        4.4178  -17.0703  -44.8701 H         1 UNK         0.3000 
    165 H165        6.6759  -14.9376  -46.6752 H         1 UNK         0.0600 
    166 H166        5.2984  -15.8056  -48.5439 H         1 UNK         0.0600 
    167 H167        6.4296  -17.0393  -48.0083 H         1 UNK         0.0600 
    168 H168        4.7340  -17.1449  -47.5478 H         1 UNK         0.0600 
    169 H169        3.8380  -15.0372  -46.6048 H         1 UNK         0.3000 
    170 H170        3.1785  -13.1649  -43.7513 H         1 UNK         0.0600 
    171 H171        2.3537  -11.2789  -45.1473 H         1 UNK         0.0600 
    172 H172        3.3735  -11.7968  -46.4910 H         1 UNK         0.0600 
    173 H173        4.1019  -11.2074  -45.0019 H         1 UNK         0.0600 
    174 H174        1.6695  -13.5375  -46.1591 H         1 UNK         0.3000 
    175 H175        0.9242  -16.8560  -45.9760 H         1 UNK         0.0600 
    176 H176       -0.5617  -16.4390  -44.0390 H         1 UNK         0.0600 
    177 H177       -1.0459  -14.8824  -44.7068 H         1 UNK         0.0600 
    178 H178       -1.4855  -16.3778  -45.5325 H         1 UNK         0.0600 
    179 H179       -0.5803  -14.7561  -47.1684 H         1 UNK         0.3000 
    180 H180        1.1738  -13.5499  -49.4796 H         1 UNK         0.0600 
    181 H181        0.5513  -16.3066  -50.6538 H         1 UNK         0.0600 
    182 H182        2.0746  -15.4390  -50.7697 H         1 UNK         0.0600 
    183 H183        0.6519  -14.8139  -51.5868 H         1 UNK         0.0600 
    184 H184       -0.9971  -13.1544  -49.5199 H         1 UNK         0.3000 
    185 H185       -3.2353  -13.3914  -49.0545 H         1 UNK         0.0600 
    186 H186       -2.9952  -13.8978  -51.5710 H         1 UNK         0.0600 
    187 H187       -3.8981  -15.3837  -51.3112 H         1 UNK         0.0600 
    188 H188       -4.6589  -13.8243  -51.0280 H         1 UNK         0.0600 
    189 H189       -3.6205  -16.0147  -48.1965 H         1 UNK         0.3000 
    190 H190        0.4014  -24.4693  -43.4749 H         1 UNK         0.3000 
    191 H191       -1.4344  -26.6811  -43.1756 H         1 UNK         0.0600 
    192 H192        0.8675  -26.6988  -42.2171 H         1 UNK         0.0600 
    193 H193        0.6434  -28.0373  -43.3339 H         1 UNK         0.0600 
    194 H194        1.5588  -26.6215  -43.8372 H         1 UNK         0.0600 
    195 H195        0.0382  -25.0312  -45.9300 H         1 UNK         0.3000 
    196 H196       -0.8499  -27.1094  -47.8628 H         1 UNK         0.0600 
    197 H197        0.3600  -25.7194  -49.5138 H         1 UNK         0.0600 
    198 H198        1.4275  -26.1600  -48.1894 H         1 UNK         0.0600 
    199 H199        0.7596  -24.5318  -48.2822 H         1 UNK         0.0600 
    200 H200       -1.1893  -23.6261  -47.0973 H         1 UNK         0.3000 
    201 H201       -2.7195  -22.0860  -47.4225 H         1 UNK         0.0600 
    202 H202       -5.1194  -22.6776  -47.0736 H         1 UNK         0.0600 
    203 H203       -4.0854  -23.4830  -45.9216 H         1 UNK         0.0600 
    204 H204       -4.7405  -24.3873  -47.2798 H         1 UNK         0.0600 
    205 H205       -5.3190  -23.1513  -49.0195 H         1 UNK         0.3000 
    206 H206       -6.2150  -23.1664  -51.0084 H         1 UNK         0.0600 
    207 H207       -4.5279  -24.9457  -51.5130 H         1 UNK         0.0600 
    208 H208       -4.9966  -24.0458  -52.9473 H         1 UNK         0.0600 
    209 H209       -3.4468  -23.7267  -52.1877 H         1 UNK         0.0600 
    210 H210       -3.9651  -20.7253  -50.3794 H         1 UNK         0.3000 
    211 H211       -3.8147  -19.3186  -52.7539 H         1 UNK         0.0600 
    212 H212       -3.8674  -17.9697  -50.0150 H         1 UNK         0.0600 
    213 H213       -2.9851  -17.4873  -51.4539 H         1 UNK         0.0600 
    214 H214       -2.5108  -18.9305  -50.5935 H         1 UNK         0.0600 
    215 H215       -6.6472  -19.5753  -50.8122 H         1 UNK         0.3000 
    216 H216       -8.0642  -17.2160  -51.5820 H         1 UNK         0.0600 
    217 H217       -9.0789  -20.0178  -50.8428 H         1 UNK         0.0600 
    218 H218      -10.0627  -18.5612  -50.9087 H         1 UNK         0.0600 
    219 H219       -8.7881  -18.6991  -49.7108 H         1 UNK         0.0600 
    220 H220       -7.3325  -20.2188  -53.2799 H         1 UNK         0.3000 
    221 H221       -8.9871  -19.3764  -55.6362 H         1 UNK         0.0600 
    222 H222       -8.0296  -22.1642  -54.7922 H         1 UNK         0.0600 
    223 H223       -9.6847  -21.5657  -54.6954 H         1 UNK         0.0600 
    224 H224       -8.9206  -21.7844  -56.2625 H         1 UNK         0.0600 
    225 H225       -5.8251  -20.6901  -54.5276 H         1 UNK         0.3000 
    226 H226       -4.6858  -20.7325  -57.1664 H         1 UNK         0.0600 
    227 H227       -4.0821  -22.3574  -55.3969 H         1 UNK         0.0600 
    228 H228       -2.6552  -21.4812  -55.9276 H         1 UNK         0.0600 
    229 H229       -3.4173  -21.0689  -54.3990 H         1 UNK         0.0600 
    230 H230       -4.9782  -18.1692  -54.8876 H         1 UNK         0.3000 
    231 H231       -4.3321  -16.0850  -54.7627 H         1 UNK         0.0600 
    232 H232       -2.9997  -16.3257  -57.5044 H         1 UNK         0.0600 
    233 H233       -3.4790  -14.8491  -56.6865 H         1 UNK         0.0600 
    234 H234       -4.7079  -15.9757  -57.2369 H         1 UNK         0.0600 
    235 H235       -2.1636  -18.5345  -54.5123 H         1 UNK         0.3000 
    236 H236       -0.3144  -16.9427  -52.9645 H         1 UNK         0.0600 
    237 H237        0.6667  -18.6382  -55.3428 H         1 UNK         0.0600 
    238 H238        0.8069  -16.8856  -55.2123 H         1 UNK         0.0600 
    239 H239        1.7029  -17.9223  -54.1124 H         1 UNK         0.0600 
    240 H240        0.8200  -18.3439  -51.4704 H         1 UNK         0.3000 
    241 H241       -0.8969  -20.4565  -50.6189 H         1 UNK         0.0600 
    242 H242        0.6450  -23.5126  -51.4199 H         1 UNK         0.3800 
    243 H243       -0.7272  -22.6803  -50.7099 H         1 UNK         0.3800 
    244 H244        0.7301  -18.6859  -49.2625 H         1 UNK         0.0800 
    245 H245        1.7326  -20.0962  -49.1861 H         1 UNK         0.0800 
    246 H246       -1.6977  -18.5408  -48.5531 H         1 UNK         0.0800 
    247 H247       -0.6781  -18.1646  -47.1901 H         1 UNK         0.0800 
@<TRIPOS>BOND
     1    1    2 1    
     2    1  127 1    
     3    1  128 1    
     4    1  129 1    
     5    2    3 2    
     6    2    4 am   BACKBONE|DICT|INTERRES
     7    4    5 1    
     8    4  130 1    
     9    5    6 1    
    10    5   65 1    
    11    5  131 1    
    12    6    7 1    
    13    6  132 1    
    14    6  133 1    
    15    7    8 1    
    16    8    9 1    
    17    8  134 1    
    18    8  135 1    
    19    9   10 ar   
    20    9   14 ar   
    21   10   11 ar   
    22   10  136 1    
    23   11   12 ar   
    24   11  126 1    
    25   12   13 ar   
    26   12  137 1    
    27   13   14 ar   
    28   13   15 1    
    29   14  138 1    
    30   15   16 1    
    31   15  139 1    
    32   15  140 1    
    33   16   17 1    
    34   17   18 1    
    35   17  141 1    
    36   17  142 1    
    37   18   19 1    
    38   18   67 1    
    39   18  143 1    
    40   19   20 am   BACKBONE|DICT|INTERRES
    41   19  144 1    
    42   20   21 2    
    43   20   22 1    
    44   22   23 1    
    45   22   24 1    
    46   22  145 1    
    47   23  146 1    
    48   23  147 1    
    49   23  148 1    
    50   24   25 am   BACKBONE|DICT|INTERRES
    51   24  149 1    
    52   25   26 2    
    53   25   27 1    
    54   27   28 1    
    55   27   29 1    
    56   27  150 1    
    57   28  151 1    
    58   28  152 1    
    59   28  153 1    
    60   29   30 am   BACKBONE|DICT|INTERRES
    61   29  154 1    
    62   30   31 2    
    63   30   32 1    
    64   32   33 1    
    65   32   34 1    
    66   32  155 1    
    67   33  156 1    
    68   33  157 1    
    69   33  158 1    
    70   34   35 am   BACKBONE|DICT|INTERRES
    71   34  159 1    
    72   35   36 2    
    73   35   37 1    
    74   37   38 1    
    75   37   39 1    
    76   37  160 1    
    77   38  161 1    
    78   38  162 1    
    79   38  163 1    
    80   39   40 am   BACKBONE|DICT|INTERRES
    81   39  164 1    
    82   40   41 2    
    83   40   42 1    
    84   42   43 1    
    85   42   44 1    
    86   42  165 1    
    87   43  166 1    
    88   43  167 1    
    89   43  168 1    
    90   44   45 am   BACKBONE|DICT|INTERRES
    91   44  169 1    
    92   45   46 2    
    93   45   47 1    
    94   47   48 1    
    95   47   49 1    
    96   47  170 1    
    97   48  171 1    
    98   48  172 1    
    99   48  173 1    
   100   49   50 am   BACKBONE|DICT|INTERRES
   101   49  174 1    
   102   50   51 2    
   103   50   52 1    
   104   52   53 1    
   105   52   54 1    
   106   52  175 1    
   107   53  176 1    
   108   53  177 1    
   109   53  178 1    
   110   54   55 am   BACKBONE|DICT|INTERRES
   111   54  179 1    
   112   55   56 2    
   113   55   57 1    
   114   57   58 1    
   115   57   59 1    
   116   57  180 1    
   117   58  181 1    
   118   58  182 1    
   119   58  183 1    
   120   59   60 am   BACKBONE|DICT|INTERRES
   121   59  184 1    
   122   60   61 2    
   123   60   62 1    
   124   62   63 1    
   125   62   64 1    
   126   62  185 1    
   127   63  186 1    
   128   63  187 1    
   129   63  188 1    
   130   64   65 am   BACKBONE|DICT|INTERRES
   131   64  189 1    
   132   65   66 2    
   133   67   68 2    
   134   67   69 am   BACKBONE|DICT|INTERRES
   135   69   70 1    
   136   69  190 1    
   137   70   71 1    
   138   70   72 1    
   139   70  191 1    
   140   71  192 1    
   141   71  193 1    
   142   71  194 1    
   143   72   73 2    
   144   72   74 am   BACKBONE|DICT|INTERRES
   145   74   75 1    
   146   74  195 1    
   147   75   76 1    
   148   75   77 1    
   149   75  196 1    
   150   76  197 1    
   151   76  198 1    
   152   76  199 1    
   153   77   78 2    
   154   77   79 am   BACKBONE|DICT|INTERRES
   155   79   80 1    
   156   79  200 1    
   157   80   81 1    
   158   80   82 1    
   159   80  201 1    
   160   81  202 1    
   161   81  203 1    
   162   81  204 1    
   163   82   83 2    
   164   82   84 am   BACKBONE|DICT|INTERRES
   165   84   85 1    
   166   84  205 1    
   167   85   86 1    
   168   85   87 1    
   169   85  206 1    
   170   86  207 1    
   171   86  208 1    
   172   86  209 1    
   173   87   88 2    
   174   87   89 am   BACKBONE|DICT|INTERRES
   175   89   90 1    
   176   89  210 1    
   177   90   91 1    
   178   90   92 1    
   179   90  211 1    
   180   91  212 1    
   181   91  213 1    
   182   91  214 1    
   183   92   93 2    
   184   92   94 am   BACKBONE|DICT|INTERRES
   185   94   95 1    
   186   94  215 1    
   187   95   96 1    
   188   95   97 1    
   189   95  216 1    
   190   96  217 1    
   191   96  218 1    
   192   96  219 1    
   193   97   98 2    
   194   97   99 am   BACKBONE|DICT|INTERRES
   195   99  100 1    
   196   99  220 1    
   197  100  101 1    
   198  100  102 1    
   199  100  221 1    
   200  101  222 1    
   201  101  223 1    
   202  101  224 1    
   203  102  103 2    
   204  102  104 am   BACKBONE|DICT|INTERRES
   205  104  105 1    
   206  104  225 1    
   207  105  106 1    
   208  105  107 1    
   209  105  226 1    
   210  106  227 1    
   211  106  228 1    
   212  106  229 1    
   213  107  108 2    
   214  107  109 am   BACKBONE|DICT|INTERRES
   215  109  110 1    
   216  109  230 1    
   217  110  111 1    
   218  110  112 1    
   219  110  231 1    
   220  111  232 1    
   221  111  233 1    
   222  111  234 1    
   223  112  113 2    
   224  112  114 am   BACKBONE|DICT|INTERRES
   225  114  115 1    
   226  114  235 1    
   227  115  116 1    
   228  115  117 1    
   229  115  236 1    
   230  116  237 1    
   231  116  238 1    
   232  116  239 1    
   233  117  118 2    
   234  117  119 am   BACKBONE|DICT|INTERRES
   235  119  120 1    
   236  119  240 1    
   237  120  121 1    
   238  120  124 1    
   239  120  241 1    
   240  121  122 am   BACKBONE|DICT|INTERRES
   241  121  123 2    
   242  122  242 1    
   243  122  243 1    
   244  124  125 1    
   245  124  244 1    
   246  124  245 1    
   247  125  126 1    
   248  126  246 1    
   249  126  247 1    
@<TRIPOS>SUBSTRUCTURE
     1 UNK         1 GROUP             0       ****    0 ROOT    
