@<TRIPOS>MOLECULE
3R540
247   249    1
SMALL
USER_CHARGES


@<TRIPOS>ATOM
      1 CA         -4.3632  -15.3927  -48.5741 C.3       0 UNK        -0.1800 
      2 C          -3.3856  -14.5133  -47.8072 C.2       0 UNK         0.5000 
      3 O          -3.7784  -13.4863  -47.2557 O.2       0 UNK        -0.5000 
      4 N          -2.1131  -14.9231  -47.7556 N.am      1 UNK        -0.5000 
      5 CA         -0.9980  -14.2132  -47.1142 C.3       1 UNK         0.1400 
      6 C6          0.3348  -14.4548  -47.8683 C.3       23 UNK        -0.0398 
      7 S7          0.8558  -16.2042  -47.9729 S.3       23 UNK        -0.2404 
      8 C8          0.1204  -16.7437  -49.5593 C.3       23 UNK        -0.0205 
      9 C9          0.8547  -17.8882  -50.2594 C.ar      23 UNK        -0.0193 
     10 C10         0.6653  -18.0543  -51.6356 C.ar      23 UNK        -0.1150 
     11 C11         1.3442  -19.0525  -52.3383 C.ar      23 UNK        -0.0193 
     12 C12         2.2136  -19.9034  -51.6512 C.ar      23 UNK        -0.1150 
     13 C13         2.4146  -19.7565  -50.2763 C.ar      23 UNK        -0.0193 
     14 C14         1.7224  -18.7585  -49.5843 C.ar      23 UNK        -0.1150 
     15 C15         3.4336  -20.6327  -49.5615 C.3       23 UNK        -0.0205 
     16 S16         2.6937  -22.1442  -48.8738 S.3       23 UNK        -0.2404 
     17 C17         2.1707  -21.5719  -47.2225 C.3       23 UNK        -0.0398 
     18 CA          0.8590  -22.2366  -46.7495 C.3       11 UNK         0.1400 
     19 N           0.7052  -22.1550  -45.2965 N.am      11 UNK        -0.5000 
     20 C          -0.2201  -22.8179  -44.5890 C.2       10 UNK         0.5000 
     21 O          -1.0230  -23.6111  -45.0817 O.2       10 UNK        -0.5000 
     22 CA         -0.2915  -22.5002  -43.0843 C.3       10 UNK         0.1400 
     23 CB          0.8072  -23.2453  -42.3121 C.3       10 UNK        -0.1800 
     24 N          -0.1975  -21.0648  -42.8139 N.am      10 UNK        -0.5000 
     25 C          -1.0918  -20.1597  -43.2342 C.2       9 UNK         0.5000 
     26 O          -2.1208  -20.4487  -43.8438 O.2       9 UNK        -0.5000 
     27 CA         -0.7650  -18.6798  -42.9777 C.3       9 UNK         0.1400 
     28 CB         -1.1182  -18.2786  -41.5374 C.3       9 UNK        -0.1800 
     29 N           0.6287  -18.3372  -43.2637 N.am      9 UNK        -0.5000 
     30 C           1.2060  -18.4373  -44.4700 C.2       8 UNK         0.5000 
     31 O           0.6142  -18.7987  -45.4831 O.2       8 UNK        -0.5000 
     32 CA          2.7162  -18.1645  -44.5468 C.3       8 UNK         0.1400 
     33 CB          3.0102  -16.6582  -44.6150 C.3       8 UNK        -0.1800 
     34 N           3.4253  -18.7671  -43.4187 N.am      8 UNK        -0.5000 
     35 C           3.5529  -20.0886  -43.2276 C.2       7 UNK         0.5000 
     36 O           3.1353  -20.9372  -44.0159 O.2       7 UNK        -0.5000 
     37 CA          4.2160  -20.5331  -41.9108 C.3       7 UNK         0.1400 
     38 CB          5.7463  -20.5067  -42.0385 C.3       7 UNK        -0.1800 
     39 N           3.8087  -19.7040  -40.7750 N.am      7 UNK        -0.5000 
     40 C           2.5669  -19.6697  -40.2701 C.2       6 UNK         0.5000 
     41 O           1.6494  -20.3847  -40.6710 O.2       6 UNK        -0.5000 
     42 CA          2.2927  -18.6246  -39.1701 C.3       6 UNK         0.1400 
     43 CB          2.6000  -19.2081  -37.7833 C.3       6 UNK        -0.1800 
     44 N           3.0475  -17.3801  -39.3536 N.am      6 UNK        -0.5000 
     45 C           2.9182  -16.5633  -40.4078 C.2       5 UNK         0.5000 
     46 O           2.1321  -16.7732  -41.3336 O.2       5 UNK        -0.5000 
     47 CA          3.8904  -15.3691  -40.4652 C.3       5 UNK         0.1400 
     48 CB          5.2903  -15.8506  -40.8822 C.3       5 UNK        -0.1800 
     49 N           3.4703  -14.3261  -41.4027 N.am      5 UNK        -0.5000 
     50 C           2.4126  -13.5192  -41.2494 C.2       4 UNK         0.5000 
     51 O           1.6745  -13.5589  -40.2626 O.2       4 UNK        -0.5000 
     52 CA          2.1703  -12.4651  -42.3563 C.3       4 UNK         0.1400 
     53 CB          2.9223  -12.7527  -43.6722 C.3       4 UNK        -0.1800 
     54 N           0.7457  -12.3278  -42.6532 N.am      4 UNK        -0.5000 
     55 C          -0.1093  -11.5239  -42.0025 C.2       3 UNK         0.5000 
     56 O           0.2337  -10.7310  -41.1239 O.2       3 UNK        -0.5000 
     57 CA         -1.6008  -11.5969  -42.4010 C.3       3 UNK         0.1400 
     58 CB         -1.9856  -10.3900  -43.2711 C.3       3 UNK        -0.1800 
     59 N          -1.9497  -12.8223  -43.1208 N.am      3 UNK        -0.5000 
     60 C          -1.9759  -14.0483  -42.5821 C.2       2 UNK         0.5000 
     61 O          -1.8636  -14.2606  -41.3749 O.2       2 UNK        -0.5000 
     62 CA         -2.1203  -15.2436  -43.5460 C.3       2 UNK         0.1400 
     63 CB         -3.4490  -15.9821  -43.3183 C.3       2 UNK        -0.1800 
     64 N          -2.0005  -14.9208  -44.9706 N.am      2 UNK        -0.5000 
     65 C          -0.9003  -14.4694  -45.5894 C.2       1 UNK         0.5000 
     66 O           0.1457  -14.2221  -44.9882 O.2       1 UNK        -0.5000 
     67 C          -0.3787  -21.6859  -47.4882 C.2       11 UNK         0.5000 
     68 O          -0.8925  -22.3575  -48.3810 O.2       11 UNK        -0.5000 
     69 N          -0.8745  -20.5136  -47.0653 N.am      12 UNK        -0.5000 
     70 CA         -2.0890  -19.8830  -47.5813 C.3       12 UNK         0.1400 
     71 CB         -2.2950  -18.5106  -46.9213 C.3       12 UNK        -0.1800 
     72 C          -3.3373  -20.7586  -47.3924 C.2       12 UNK         0.5000 
     73 O          -4.1295  -20.8754  -48.3245 O.2       12 UNK        -0.5000 
     74 N          -3.4773  -21.3830  -46.2152 N.am      13 UNK        -0.5000 
     75 CA         -4.5491  -22.3288  -45.9062 C.3       13 UNK         0.1400 
     76 CB         -4.5056  -22.6976  -44.4157 C.3       13 UNK        -0.1800 
     77 C          -4.4949  -23.5878  -46.7901 C.2       13 UNK         0.5000 
     78 O          -5.5206  -23.9776  -47.3493 O.2       13 UNK        -0.5000 
     79 N          -3.2969  -24.1724  -46.9371 N.am      14 UNK        -0.5000 
     80 CA         -3.0390  -25.3385  -47.7858 C.3       14 UNK         0.1400 
     81 CB         -1.6068  -25.8393  -47.5448 C.3       14 UNK        -0.1800 
     82 C          -3.2755  -25.0622  -49.2834 C.2       14 UNK         0.5000 
     83 O          -3.8240  -25.9157  -49.9809 O.2       14 UNK        -0.5000 
     84 N          -2.8854  -23.8659  -49.7405 N.am      15 UNK        -0.5000 
     85 CA         -3.0541  -23.3897  -51.1132 C.3       15 UNK         0.1400 
     86 CB         -1.9453  -22.3708  -51.4230 C.3       15 UNK        -0.1800 
     87 C          -4.4473  -22.7892  -51.3939 C.2       15 UNK         0.5000 
     88 O          -4.6639  -22.3012  -52.5033 O.2       15 UNK        -0.5000 
     89 N          -5.3565  -22.8080  -50.4068 N.am      16 UNK        -0.5000 
     90 CA         -6.7361  -22.3083  -50.4606 C.3       16 UNK         0.1400 
     91 CB         -7.5876  -23.1870  -51.4013 C.3       16 UNK        -0.1800 
     92 C          -6.8108  -20.8077  -50.8142 C.2       16 UNK         0.5000 
     93 O          -7.5296  -20.4183  -51.7340 O.2       16 UNK        -0.5000 
     94 N          -6.0141  -19.9974  -50.1043 N.am      17 UNK        -0.5000 
     95 CA         -5.7730  -18.5669  -50.3289 C.3       17 UNK         0.1400 
     96 CB         -7.0487  -17.7354  -50.0823 C.3       17 UNK        -0.1800 
     97 C          -5.1191  -18.2968  -51.7010 C.2       17 UNK         0.5000 
     98 O          -5.4263  -17.2990  -52.3533 O.2       17 UNK        -0.5000 
     99 N          -4.2436  -19.2278  -52.1082 N.am      18 UNK        -0.5000 
    100 CA        -3.5193  -19.3275  -53.3808 C.3       18 UNK         0.1400 
    101 CB        -2.7325  -18.0378  -53.6843 C.3       18 UNK        -0.1800 
    102 C         -4.3894  -19.7735  -54.5759 C.2       18 UNK         0.5000 
    103 O         -3.8461  -20.0011  -55.6583 O.2       18 UNK        -0.5000 
    104 N         -5.7063  -19.9332  -54.3813 N.am      19 UNK        -0.5000 
    105 CA        -6.6629  -20.2902  -55.4301 C.3       19 UNK         0.1400 
    106 CB        -8.0916  -20.0309  -54.9291 C.3       19 UNK        -0.1800 
    107 C         -6.5274  -21.7355  -55.9464 C.2       19 UNK         0.5000 
    108 O         -7.0602  -22.0306  -57.0174 O.2       19 UNK        -0.5000 
    109 N         -5.8320  -22.6107  -55.2029 N.am      20 UNK        -0.5000 
    110 CA        -5.5919  -24.0014  -55.5924 C.3       20 UNK         0.1400 
    111 CB        -4.9983  -24.7849  -54.4123 C.3       20 UNK        -0.1800 
    112 C         -4.6897  -24.1451  -56.8322 C.2       20 UNK         0.5000 
    113 O         -4.8892  -25.0885  -57.5992 O.2       20 UNK        -0.5000 
    114 N         -3.7336  -23.2214  -57.0179 N.am      21 UNK        -0.5000 
    115 CA        -2.8202  -23.2114  -58.1613 C.3       21 UNK         0.1400 
    116 CB        -1.8553  -24.4177  -58.1235 C.3       21 UNK        -0.1800 
    117 C         -2.0142  -21.9091  -58.2545 C.2       21 UNK         0.5000 
    118 O         -1.9788  -21.2996  -59.3243 O.2       21 UNK        -0.5000 
    119 N         -1.3200  -21.5514  -57.1657 N.am      22 UNK        -0.5000 
    120 CA        -0.2269  -20.5633  -57.1868 C.3       22 UNK         0.1400 
    121 C         -0.6223  -19.0629  -57.3118 C.2       22 UNK         0.5000 
    122 N         -1.8823  -18.6847  -57.1581 N.am      22 UNK        -0.7600 
    123 O          0.2348  -18.2256  -57.5820 O.2       22 UNK        -0.5000 
    124 C124        0.8087  -20.8279  -56.0658 C.3       23 UNK        -0.0398 
    125 S125        0.1958  -20.5886  -54.3583 S.3       23 UNK        -0.2404 
    126 C126        1.2100  -19.1639  -53.8494 C.3       23 UNK        -0.0205 
    127 H127       -4.9568  -14.7872  -49.2591 H         1 UNK         0.0600 
    128 H128       -5.0420  -15.8937  -47.8840 H         1 UNK         0.0600 
    129 H129       -3.8451  -16.1517  -49.1603 H         1 UNK         0.0600 
    130 H130       -1.8570  -15.7933  -48.1957 H         1 UNK         0.3000 
    131 H131       -1.1990  -13.1432  -47.1999 H         1 UNK         0.0600 
    132 H132        1.1435  -13.8927  -47.3979 H         1 UNK         0.0800 
    133 H133        0.2606  -14.0438  -48.8755 H         1 UNK         0.0800 
    134 H134        0.0853  -15.8902  -50.2378 H         1 UNK         0.0800 
    135 H135       -0.9114  -17.0514  -49.3915 H         1 UNK         0.0800 
    136 H136        0.0113  -17.3804  -52.1699 H         1 UNK         0.1150 
    137 H137        2.7556  -20.6643  -52.1953 H         1 UNK         0.1150 
    138 H138        1.8871  -18.6463  -48.5235 H         1 UNK         0.1150 
    139 H139        4.2182  -20.9232  -50.2619 H         1 UNK         0.0800 
    140 H140        3.9354  -20.0685  -48.7737 H         1 UNK         0.0800 
    141 H141        2.0888  -20.4856  -47.1912 H         1 UNK         0.0800 
    142 H142        2.9814  -21.8272  -46.5391 H         1 UNK         0.0800 
    143 H143        0.9244  -23.3012  -46.9858 H         1 UNK         0.0600 
    144 H144        1.3482  -21.5424  -44.8059 H         1 UNK         0.3000 
    145 H145       -1.2599  -22.8465  -42.7173 H         1 UNK         0.0600 
    146 H146        0.7135  -23.0811  -41.2384 H         1 UNK         0.0600 
    147 H147        1.8037  -22.9210  -42.6129 H         1 UNK         0.0600 
    148 H148        0.7447  -24.3205  -42.4842 H         1 UNK         0.0600 
    149 H149        0.5936  -20.7528  -42.2579 H         1 UNK         0.3000 
    150 H150       -1.3870  -18.1037  -43.6621 H         1 UNK         0.0600 
    151 H151       -0.5755  -18.8779  -40.8073 H         1 UNK         0.0600 
    152 H152       -2.1828  -18.4186  -41.3465 H         1 UNK         0.0600 
    153 H153       -0.8863  -17.2312  -41.3436 H         1 UNK         0.0600 
    154 H154        1.1844  -17.9794  -42.4916 H         1 UNK         0.3000 
    155 H155        3.0920  -18.6213  -45.4650 H         1 UNK         0.0600 
    156 H156        2.5545  -16.2144  -45.5002 H         1 UNK         0.0600 
    157 H157        4.0813  -16.4640  -44.6691 H         1 UNK         0.0600 
    158 H158        2.6134  -16.1249  -43.7528 H         1 UNK         0.0600 
    159 H159        3.7386  -18.1393  -42.6945 H         1 UNK         0.3000 
    160 H160        3.9065  -21.5614  -41.7118 H         1 UNK         0.0600 
    161 H161        6.1206  -19.4972  -42.2134 H         1 UNK         0.0600 
    162 H162        6.0786  -21.1291  -42.8704 H         1 UNK         0.0600 
    163 H163        6.2235  -20.8903  -41.1365 H         1 UNK         0.0600 
    164 H164        4.5069  -19.0918  -40.3802 H         1 UNK         0.3000 
    165 H165        1.2299  -18.3775  -39.2076 H         1 UNK         0.0600 
    166 H166        2.3291  -18.5088  -36.9921 H         1 UNK         0.0600 
    167 H167        2.0343  -20.1251  -37.6120 H         1 UNK         0.0600 
    168 H168        3.6578  -19.4493  -37.6719 H         1 UNK         0.0600 
    169 H169        3.7190  -17.1518  -38.6345 H         1 UNK         0.3000 
    170 H170        3.9501  -14.9280  -39.4681 H         1 UNK         0.0600 
    171 H171        5.2832  -16.2974  -41.8774 H         1 UNK         0.0600 
    172 H172        6.0035  -15.0260  -40.8916 H         1 UNK         0.0600 
    173 H173        5.6771  -16.5986  -40.1890 H         1 UNK         0.0600 
    174 H174        4.0131  -14.2432  -42.2489 H         1 UNK         0.3000 
    175 H175        2.5462  -11.5157  -41.9699 H         1 UNK         0.0600 
    176 H176        2.6541  -13.7233  -44.0893 H         1 UNK         0.0600 
    177 H177        2.6907  -11.9989  -44.4251 H         1 UNK         0.0600 
    178 H178        4.0033  -12.7327  -43.5299 H         1 UNK         0.0600 
    179 H179        0.3816  -12.9608  -43.3570 H         1 UNK         0.3000 
    180 H180       -2.1889  -11.5595  -41.4817 H         1 UNK         0.0600 
    181 H181       -3.0503  -10.3953  -43.5054 H         1 UNK         0.0600 
    182 H182       -1.4335  -10.3802  -44.2117 H         1 UNK         0.0600 
    183 H183       -1.7726   -9.4526  -42.7556 H         1 UNK         0.0600 
    184 H184       -2.0681  -12.7422  -44.1197 H         1 UNK         0.3000 
    185 H185       -1.2954  -15.9117  -43.3036 H         1 UNK         0.0600 
    186 H186       -4.3040  -15.3481  -43.5561 H         1 UNK         0.0600 
    187 H187       -3.5160  -16.8796  -43.9335 H         1 UNK         0.0600 
    188 H188       -3.5517  -16.2952  -42.2785 H         1 UNK         0.0600 
    189 H189       -2.8308  -15.0471  -45.5309 H         1 UNK         0.3000 
    190 H190       -0.3680  -19.9915  -46.3514 H         1 UNK         0.3000 
    191 H191       -1.9460  -19.7293  -48.6529 H         1 UNK         0.0600 
    192 H192       -1.4301  -17.8665  -47.0690 H         1 UNK         0.0600 
    193 H193       -2.4575  -18.6000  -45.8474 H         1 UNK         0.0600 
    194 H194       -3.1620  -18.0008  -47.3420 H         1 UNK         0.0600 
    195 H195       -2.8108  -21.1887  -45.4723 H         1 UNK         0.3000 
    196 H196       -5.4997  -21.8280  -46.1015 H         1 UNK         0.0600 
    197 H197       -4.6345  -21.8150  -43.7890 H         1 UNK         0.0600 
    198 H198       -3.5594  -23.1646  -44.1417 H         1 UNK         0.0600 
    199 H199       -5.3036  -23.3964  -44.1620 H         1 UNK         0.0600 
    200 H200       -2.5030  -23.7997  -46.4246 H         1 UNK         0.3000 
    201 H201       -3.7294  -26.1283  -47.4829 H         1 UNK         0.0600 
    202 H202       -1.4565  -26.1151  -46.5009 H         1 UNK         0.0600 
    203 H203       -0.8666  -25.0799  -47.7988 H         1 UNK         0.0600 
    204 H204       -1.3938  -26.7220  -48.1490 H         1 UNK         0.0600 
    205 H205       -2.3765  -23.2472  -49.1123 H         1 UNK         0.3000 
    206 H206       -2.9277  -24.2344  -51.7929 H         1 UNK         0.0600 
    207 H207       -0.9595  -22.7746  -51.1910 H         1 UNK         0.0600 
    208 H208       -2.0699  -21.4499  -50.8518 H         1 UNK         0.0600 
    209 H209       -1.9387  -22.1124  -52.4816 H         1 UNK         0.0600 
    210 H210       -5.0695  -23.1899  -49.5148 H         1 UNK         0.3000 
    211 H211       -7.1405  -22.4101  -49.4525 H         1 UNK         0.0600 
    212 H212       -7.2714  -23.0949  -52.4410 H         1 UNK         0.0600 
    213 H213       -8.6391  -22.9015  -51.3549 H         1 UNK         0.0600 
    214 H214       -7.5237  -24.2389  -51.1235 H         1 UNK         0.0600 
    215 H215       -5.4165  -20.4239  -49.3942 H         1 UNK         0.3000 
    216 H216       -5.0383  -18.2689  -49.5802 H         1 UNK         0.0600 
    217 H217       -6.8295  -16.6676  -50.1108 H         1 UNK         0.0600 
    218 H218       -7.4763  -17.9518  -49.1034 H         1 UNK         0.0600 
    219 H219       -7.8139  -17.9300  -50.8341 H         1 UNK         0.0600 
    220 H220       -4.1364  -20.0330  -51.5079 H         1 UNK         0.3000 
    221 H221       -2.7865  -20.1198  -53.2359 H         1 UNK         0.0600 
    222 H222       -3.3812  -17.2410  -54.0487 H         1 UNK         0.0600 
    223 H223       -2.2166  -17.6720  -52.7977 H         1 UNK         0.0600 
    224 H224       -1.9752  -18.2165  -54.4468 H         1 UNK         0.0600 
    225 H225       -6.0838  -19.8011  -53.4520 H         1 UNK         0.3000 
    226 H226       -6.4810  -19.6268  -56.2782 H         1 UNK         0.0600 
    227 H227       -8.1950  -19.0268  -54.5170 H         1 UNK         0.0600 
    228 H228       -8.8110  -20.1247  -55.7434 H         1 UNK         0.0600 
    229 H229       -8.3821  -20.7450  -54.1585 H         1 UNK         0.0600 
    230 H230       -5.4380  -22.3082  -54.3159 H         1 UNK         0.3000 
    231 H231       -6.5583  -24.4477  -55.8360 H         1 UNK         0.0600 
    232 H232       -4.8661  -25.8365  -54.6697 H         1 UNK         0.0600 
    233 H233       -4.0217  -24.3950  -54.1241 H         1 UNK         0.0600 
    234 H234       -5.6518  -24.7458  -53.5410 H         1 UNK         0.0600 
    235 H235       -3.6837  -22.4306  -56.3880 H         1 UNK         0.3000 
    236 H236       -3.4207  -23.2801  -59.0710 H         1 UNK         0.0600 
    237 H237       -1.3243  -24.4788  -57.1730 H         1 UNK         0.0600 
    238 H238       -2.3781  -25.3617  -58.2735 H         1 UNK         0.0600 
    239 H239       -1.1062  -24.3458  -58.9134 H         1 UNK         0.0600 
    240 H240       -1.4144  -22.0863  -56.3156 H         1 UNK         0.3000 
    241 H241        0.3159  -20.7568  -58.1148 H         1 UNK         0.0600 
    242 H242       -2.1218  -17.7131  -57.2650 H         1 UNK         0.3800 
    243 H243       -2.5870  -19.3424  -56.8330 H         1 UNK         0.3800 
    244 H244        1.6959  -20.2170  -56.2377 H         1 UNK         0.0800 
    245 H245        1.1619  -21.8572  -56.1411 H         1 UNK         0.0800 
    246 H246        0.7800  -18.2539  -54.2710 H         1 UNK         0.0800 
    247 H247        2.2132  -19.2497  -54.2689 H         1 UNK         0.0800 
@<TRIPOS>BOND
     1    1    2 1    
     2    1  127 1    
     3    1  128 1    
     4    1  129 1    
     5    2    3 2    
     6    2    4 am   BACKBONE|DICT|INTERRES
     7    4    5 1    
     8    4  130 1    
     9    5    6 1    
    10    5   65 1    
    11    5  131 1    
    12    6    7 1    
    13    6  132 1    
    14    6  133 1    
    15    7    8 1    
    16    8    9 1    
    17    8  134 1    
    18    8  135 1    
    19    9   10 ar   
    20    9   14 ar   
    21   10   11 ar   
    22   10  136 1    
    23   11   12 ar   
    24   11  126 1    
    25   12   13 ar   
    26   12  137 1    
    27   13   14 ar   
    28   13   15 1    
    29   14  138 1    
    30   15   16 1    
    31   15  139 1    
    32   15  140 1    
    33   16   17 1    
    34   17   18 1    
    35   17  141 1    
    36   17  142 1    
    37   18   19 1    
    38   18   67 1    
    39   18  143 1    
    40   19   20 am   BACKBONE|DICT|INTERRES
    41   19  144 1    
    42   20   21 2    
    43   20   22 1    
    44   22   23 1    
    45   22   24 1    
    46   22  145 1    
    47   23  146 1    
    48   23  147 1    
    49   23  148 1    
    50   24   25 am   BACKBONE|DICT|INTERRES
    51   24  149 1    
    52   25   26 2    
    53   25   27 1    
    54   27   28 1    
    55   27   29 1    
    56   27  150 1    
    57   28  151 1    
    58   28  152 1    
    59   28  153 1    
    60   29   30 am   BACKBONE|DICT|INTERRES
    61   29  154 1    
    62   30   31 2    
    63   30   32 1    
    64   32   33 1    
    65   32   34 1    
    66   32  155 1    
    67   33  156 1    
    68   33  157 1    
    69   33  158 1    
    70   34   35 am   BACKBONE|DICT|INTERRES
    71   34  159 1    
    72   35   36 2    
    73   35   37 1    
    74   37   38 1    
    75   37   39 1    
    76   37  160 1    
    77   38  161 1    
    78   38  162 1    
    79   38  163 1    
    80   39   40 am   BACKBONE|DICT|INTERRES
    81   39  164 1    
    82   40   41 2    
    83   40   42 1    
    84   42   43 1    
    85   42   44 1    
    86   42  165 1    
    87   43  166 1    
    88   43  167 1    
    89   43  168 1    
    90   44   45 am   BACKBONE|DICT|INTERRES
    91   44  169 1    
    92   45   46 2    
    93   45   47 1    
    94   47   48 1    
    95   47   49 1    
    96   47  170 1    
    97   48  171 1    
    98   48  172 1    
    99   48  173 1    
   100   49   50 am   BACKBONE|DICT|INTERRES
   101   49  174 1    
   102   50   51 2    
   103   50   52 1    
   104   52   53 1    
   105   52   54 1    
   106   52  175 1    
   107   53  176 1    
   108   53  177 1    
   109   53  178 1    
   110   54   55 am   BACKBONE|DICT|INTERRES
   111   54  179 1    
   112   55   56 2    
   113   55   57 1    
   114   57   58 1    
   115   57   59 1    
   116   57  180 1    
   117   58  181 1    
   118   58  182 1    
   119   58  183 1    
   120   59   60 am   BACKBONE|DICT|INTERRES
   121   59  184 1    
   122   60   61 2    
   123   60   62 1    
   124   62   63 1    
   125   62   64 1    
   126   62  185 1    
   127   63  186 1    
   128   63  187 1    
   129   63  188 1    
   130   64   65 am   BACKBONE|DICT|INTERRES
   131   64  189 1    
   132   65   66 2    
   133   67   68 2    
   134   67   69 am   BACKBONE|DICT|INTERRES
   135   69   70 1    
   136   69  190 1    
   137   70   71 1    
   138   70   72 1    
   139   70  191 1    
   140   71  192 1    
   141   71  193 1    
   142   71  194 1    
   143   72   73 2    
   144   72   74 am   BACKBONE|DICT|INTERRES
   145   74   75 1    
   146   74  195 1    
   147   75   76 1    
   148   75   77 1    
   149   75  196 1    
   150   76  197 1    
   151   76  198 1    
   152   76  199 1    
   153   77   78 2    
   154   77   79 am   BACKBONE|DICT|INTERRES
   155   79   80 1    
   156   79  200 1    
   157   80   81 1    
   158   80   82 1    
   159   80  201 1    
   160   81  202 1    
   161   81  203 1    
   162   81  204 1    
   163   82   83 2    
   164   82   84 am   BACKBONE|DICT|INTERRES
   165   84   85 1    
   166   84  205 1    
   167   85   86 1    
   168   85   87 1    
   169   85  206 1    
   170   86  207 1    
   171   86  208 1    
   172   86  209 1    
   173   87   88 2    
   174   87   89 am   BACKBONE|DICT|INTERRES
   175   89   90 1    
   176   89  210 1    
   177   90   91 1    
   178   90   92 1    
   179   90  211 1    
   180   91  212 1    
   181   91  213 1    
   182   91  214 1    
   183   92   93 2    
   184   92   94 am   BACKBONE|DICT|INTERRES
   185   94   95 1    
   186   94  215 1    
   187   95   96 1    
   188   95   97 1    
   189   95  216 1    
   190   96  217 1    
   191   96  218 1    
   192   96  219 1    
   193   97   98 2    
   194   97   99 am   BACKBONE|DICT|INTERRES
   195   99  100 1    
   196   99  220 1    
   197  100  101 1    
   198  100  102 1    
   199  100  221 1    
   200  101  222 1    
   201  101  223 1    
   202  101  224 1    
   203  102  103 2    
   204  102  104 am   BACKBONE|DICT|INTERRES
   205  104  105 1    
   206  104  225 1    
   207  105  106 1    
   208  105  107 1    
   209  105  226 1    
   210  106  227 1    
   211  106  228 1    
   212  106  229 1    
   213  107  108 2    
   214  107  109 am   BACKBONE|DICT|INTERRES
   215  109  110 1    
   216  109  230 1    
   217  110  111 1    
   218  110  112 1    
   219  110  231 1    
   220  111  232 1    
   221  111  233 1    
   222  111  234 1    
   223  112  113 2    
   224  112  114 am   BACKBONE|DICT|INTERRES
   225  114  115 1    
   226  114  235 1    
   227  115  116 1    
   228  115  117 1    
   229  115  236 1    
   230  116  237 1    
   231  116  238 1    
   232  116  239 1    
   233  117  118 2    
   234  117  119 am   BACKBONE|DICT|INTERRES
   235  119  120 1    
   236  119  240 1    
   237  120  121 1    
   238  120  124 1    
   239  120  241 1    
   240  121  122 am   BACKBONE|DICT|INTERRES
   241  121  123 2    
   242  122  242 1    
   243  122  243 1    
   244  124  125 1    
   245  124  244 1    
   246  124  245 1    
   247  125  126 1    
   248  126  246 1    
   249  126  247 1    
@<TRIPOS>SUBSTRUCTURE
     1 UNK         1 GROUP             0       ****    0 ROOT    
