@<TRIPOS>MOLECULE
3R540
247   249    1
SMALL
USER_CHARGES


@<TRIPOS>ATOM
      1 CA          8.6189  -17.4760  -46.4534 C.3       0 UNK        -0.1800 
      2 C           7.1301  -17.1621  -46.4253 C.2       0 UNK         0.5000 
      3 O           6.3580  -17.9003  -45.8120 O.2       0 UNK        -0.5000 
      4 N           6.7210  -16.0690  -47.0812 N.am      1 UNK        -0.5000 
      5 CA          5.3339  -15.6023  -47.1687 C.3       1 UNK         0.1400 
      6 C6          5.0841  -14.7264  -48.4237 C.3       23 UNK        -0.0398 
      7 S7          5.2728  -15.6763  -49.9679 S.3       23 UNK        -0.2404 
      8 C8          3.5965  -16.3746  -50.1106 C.3       23 UNK        -0.0205 
      9 C9          3.5092  -17.4633  -51.1687 C.ar      23 UNK        -0.0193 
     10 C10         2.6035  -17.3498  -52.2280 C.ar      23 UNK        -0.1150 
     11 C11         2.4866  -18.3726  -53.1740 C.ar      23 UNK        -0.0193 
     12 C12         3.3001  -19.5031  -53.0689 C.ar      23 UNK        -0.1150 
     13 C13         4.2121  -19.6268  -52.0175 C.ar      23 UNK        -0.0193 
     14 C14         4.3072  -18.6072  -51.0672 C.ar      23 UNK        -0.1150 
     15 C15         5.0956  -20.8610  -51.9124 C.3       23 UNK        -0.0205 
     16 S16         4.6898  -21.8914  -50.4670 S.3       23 UNK        -0.2404 
     17 C17         2.9649  -22.3821  -50.8127 C.3       23 UNK        -0.0398 
     18 CA          2.0930  -22.3520  -49.5373 C.3       11 UNK         0.1400 
     19 N           2.0606  -21.0375  -48.8849 N.am      11 UNK        -0.5000 
     20 C           1.6718  -20.8590  -47.6155 C.2       10 UNK         0.5000 
     21 O           1.2903  -21.7748  -46.8856 O.2       10 UNK        -0.5000 
     22 CA          1.6656  -19.4151  -47.0824 C.3       10 UNK         0.1400 
     23 CB          3.0784  -18.9748  -46.6704 C.3       10 UNK        -0.1800 
     24 N           1.0964  -18.4231  -47.9998 N.am      10 UNK        -0.5000 
     25 C          -0.1386  -18.4698  -48.5146 C.2       9 UNK         0.5000 
     26 O          -0.8949  -19.4355  -48.4032 O.2       9 UNK        -0.5000 
     27 CA         -0.6315  -17.2150  -49.2605 C.3       9 UNK         0.1400 
     28 CB         -0.7818  -17.4957  -50.7615 C.3       9 UNK        -0.1800 
     29 N          -1.9192  -16.7736  -48.7243 N.am      9 UNK        -0.5000 
     30 C          -2.0977  -16.3479  -47.4678 C.2       8 UNK         0.5000 
     31 O          -1.1636  -16.1130  -46.6954 O.2       8 UNK        -0.5000 
     32 CA         -3.5491  -16.1880  -46.9811 C.3       8 UNK         0.1400 
     33 CB         -4.3776  -17.4606  -47.2664 C.3       8 UNK        -0.1800 
     34 N          -3.4858  -15.9242  -45.5483 N.am      8 UNK        -0.5000 
     35 C          -4.4798  -15.6505  -44.6981 C.2       7 UNK         0.5000 
     36 O          -5.6523  -15.4959  -45.0434 O.2       7 UNK        -0.5000 
     37 CA         -4.0847  -15.5148  -43.2093 C.3       7 UNK         0.1400 
     38 CB         -5.2115  -15.9452  -42.2473 C.3       7 UNK        -0.1800 
     39 N          -2.8187  -16.1846  -42.8763 N.am      7 UNK        -0.5000 
     40 C          -2.5482  -17.4992  -42.9208 C.2       6 UNK         0.5000 
     41 O          -3.3752  -18.3642  -43.2089 O.2       6 UNK        -0.5000 
     42 CA         -1.0996  -17.9249  -42.6120 C.3       6 UNK         0.1400 
     43 CB         -0.2940  -18.0792  -43.9110 C.3       6 UNK        -0.1800 
     44 N          -0.3880  -17.0051  -41.7233 N.am      6 UNK        -0.5000 
     45 C          -0.6364  -16.8626  -40.4138 C.2       5 UNK         0.5000 
     46 O          -1.5148  -17.4798  -39.8106 O.2       5 UNK        -0.5000 
     47 CA          0.2451  -15.8595  -39.6527 C.3       5 UNK         0.1400 
     48 CB          1.6125  -16.4793  -39.3220 C.3       5 UNK        -0.1800 
     49 N           0.4428  -14.6374  -40.4302 N.am      5 UNK        -0.5000 
     50 C          -0.3447  -13.5555  -40.3554 C.2       4 UNK         0.5000 
     51 O          -1.2966  -13.4543  -39.5807 O.2       4 UNK        -0.5000 
     52 CA         -0.0224  -12.3861  -41.3080 C.3       4 UNK         0.1400 
     53 CB          0.9019  -11.3709  -40.6189 C.3       4 UNK        -0.1800 
     54 N           0.5942  -12.8162  -42.5639 N.am      4 UNK        -0.5000 
     55 C          -0.0312  -13.5252  -43.5128 C.2       3 UNK         0.5000 
     56 O          -1.2156  -13.8507  -43.4510 O.2       3 UNK        -0.5000 
     57 CA          0.8171  -13.9915  -44.7087 C.3       3 UNK         0.1400 
     58 CB          0.7013  -13.0051  -45.8791 C.3       3 UNK        -0.1800 
     59 N           2.2315  -14.2094  -44.3981 N.am      3 UNK        -0.5000 
     60 C           2.7126  -15.0899  -43.5111 C.2       2 UNK         0.5000 
     61 O           1.9931  -15.7551  -42.7631 O.2       2 UNK        -0.5000 
     62 CA          4.2473  -15.2598  -43.4808 C.3       2 UNK         0.1400 
     63 CB          4.7049  -16.2788  -42.4223 C.3       2 UNK        -0.1800 
     64 N           4.7674  -15.6739  -44.7860 N.am      2 UNK        -0.5000 
     65 C           4.9017  -14.8959  -45.8671 C.2       1 UNK         0.5000 
     66 O           4.6781  -13.6834  -45.8587 O.2       1 UNK        -0.5000 
     67 C           0.6749  -22.8784  -49.8308 C.2       11 UNK         0.5000 
     68 O           0.4519  -24.0853  -49.7398 O.2       11 UNK        -0.5000 
     69 N          -0.2684  -21.9737  -50.1340 N.am      12 UNK        -0.5000 
     70 CA         -1.6776  -22.3113  -50.3269 C.3       12 UNK         0.1400 
     71 CB         -2.4232  -21.1506  -50.9965 C.3       12 UNK        -0.1800 
     72 C          -2.3501  -22.7020  -49.0028 C.2       12 UNK         0.5000 
     73 O          -3.1088  -23.6676  -48.9791 O.2       12 UNK        -0.5000 
     74 N          -2.0311  -21.9837  -47.9182 N.am      13 UNK        -0.5000 
     75 CA         -2.4715  -22.2910  -46.5570 C.3       13 UNK         0.1400 
     76 CB         -2.0455  -21.1606  -45.6093 C.3       13 UNK        -0.1800 
     77 C          -1.9622  -23.6582  -46.0669 C.2       13 UNK         0.5000 
     78 O          -2.7386  -24.4174  -45.4870 O.2       13 UNK        -0.5000 
     79 N          -0.6924  -23.9724  -46.3618 N.am      14 UNK        -0.5000 
     80 CA         -0.0743  -25.2717  -46.0867 C.3       14 UNK         0.1400 
     81 CB          1.4356  -25.1855  -46.3559 C.3       14 UNK        -0.1800 
     82 C          -0.7074  -26.4256  -46.8911 C.2       14 UNK         0.5000 
     83 O          -0.8779  -27.5195  -46.3522 O.2       14 UNK        -0.5000 
     84 N          -1.0629  -26.1567  -48.1548 N.am      15 UNK        -0.5000 
     85 CA         -1.7205  -27.1017  -49.0615 C.3       15 UNK         0.1400 
     86 CB         -1.4839  -26.6373  -50.5078 C.3       15 UNK        -0.1800 
     87 C          -3.2325  -27.2715  -48.8029 C.2       15 UNK         0.5000 
     88 O          -3.8330  -28.1833  -49.3730 O.2       15 UNK        -0.5000 
     89 N          -3.8220  -26.3836  -47.9875 N.am      16 UNK        -0.5000 
     90 CA         -5.2593  -26.2191  -47.7341 C.3       16 UNK         0.1400 
     91 CB         -5.8576  -27.4630  -47.0447 C.3       16 UNK        -0.1800 
     92 C          -6.0360  -25.7835  -48.9986 C.2       16 UNK         0.5000 
     93 O          -7.1840  -26.1829  -49.1991 O.2       16 UNK        -0.5000 
     94 N          -5.3828  -24.9553  -49.8217 N.am      17 UNK        -0.5000 
     95 CA         -5.8762  -24.3902  -51.0772 C.3       17 UNK         0.1400 
     96 CB         -4.8294  -24.6625  -52.1703 C.3       17 UNK        -0.1800 
     97 C          -6.1502  -22.8778  -50.9559 C.2       17 UNK         0.5000 
     98 O          -6.4587  -22.2353  -51.9607 O.2       17 UNK        -0.5000 
     99 N          -6.0391  -22.3223  -49.7395 N.am      18 UNK        -0.5000 
    100 CA        -6.1967  -20.9005  -49.4066 C.3       18 UNK         0.1400 
    101 CB        -5.8667  -20.6994  -47.9205 C.3       18 UNK        -0.1800 
    102 C         -7.5696  -20.2838  -49.7469 C.2       18 UNK         0.5000 
    103 O         -7.6746  -19.0595  -49.8164 O.2       18 UNK        -0.5000 
    104 N         -8.5857  -21.1261  -49.9807 N.am      19 UNK        -0.5000 
    105 CA        -9.8910  -20.7279  -50.5119 C.3       19 UNK         0.1400 
    106 CB       -10.8493  -21.9264  -50.4398 C.3       19 UNK        -0.1800 
    107 C         -9.8098  -20.1838  -51.9542 C.2       19 UNK         0.5000 
    108 O        -10.5975  -19.3075  -52.3130 O.2       19 UNK        -0.5000 
    109 N         -8.8534  -20.6971  -52.7405 N.am      20 UNK        -0.5000 
    110 CA        -8.5093  -20.2000  -54.0716 C.3       20 UNK         0.1400 
    111 CB        -8.2290  -21.3918  -55.0012 C.3       20 UNK        -0.1800 
    112 C         -7.2875  -19.2680  -53.9985 C.2       20 UNK         0.5000 
    113 O         -7.3005  -18.2043  -54.6197 O.2       20 UNK        -0.5000 
    114 N         -6.2729  -19.6826  -53.2232 N.am      21 UNK        -0.5000 
    115 CA        -4.9811  -19.0243  -53.0061 C.3       21 UNK         0.1400 
    116 CB        -5.1677  -17.6766  -52.2743 C.3       21 UNK        -0.1800 
    117 C         -4.1279  -18.9123  -54.2908 C.2       21 UNK         0.5000 
    118 O         -4.3988  -19.5967  -55.2811 O.2       21 UNK        -0.5000 
    119 N         -3.0843  -18.0786  -54.2395 N.am      22 UNK        -0.5000 
    120 CA        -2.1368  -17.8375  -55.3399 C.3       22 UNK         0.1400 
    121 C         -1.5936  -16.3794  -55.3898 C.2       22 UNK         0.5000 
    122 N         -2.1581  -15.4317  -54.6495 N.am      22 UNK        -0.7600 
    123 O         -0.6602  -16.0882  -56.1326 O.2       22 UNK        -0.5000 
    124 C124       -1.0280  -18.9242  -55.4228 C.3       23 UNK        -0.0398 
    125 S125       -0.0637  -19.1390  -53.8855 S.3       23 UNK        -0.2404 
    126 C126        1.4775  -18.2677  -54.3055 C.3       23 UNK        -0.0205 
    127 H127        8.7862  -18.4579  -46.8959 H         1 UNK         0.0600 
    128 H128        9.0192  -17.4847  -45.4396 H         1 UNK         0.0600 
    129 H129        9.1774  -16.7415  -47.0341 H         1 UNK         0.0600 
    130 H130        7.4034  -15.4952  -47.5560 H         1 UNK         0.3000 
    131 H131        4.6905  -16.4787  -47.2593 H         1 UNK         0.0600 
    132 H132        4.0815  -14.2942  -48.4086 H         1 UNK         0.0800 
    133 H133        5.7754  -13.8824  -48.4468 H         1 UNK         0.0800 
    134 H134        3.2993  -16.8040  -49.1549 H         1 UNK         0.0800 
    135 H135        2.8936  -15.5675  -50.3235 H         1 UNK         0.0800 
    136 H136        1.9730  -16.4752  -52.3077 H         1 UNK         0.1150 
    137 H137        3.2121  -20.2924  -53.8025 H         1 UNK         0.1150 
    138 H138        5.0056  -18.7042  -50.2474 H         1 UNK         0.1150 
    139 H139        5.0237  -21.4701  -52.8149 H         1 UNK         0.0800 
    140 H140        6.1375  -20.5463  -51.8391 H         1 UNK         0.0800 
    141 H141        2.5317  -21.7423  -51.5815 H         1 UNK         0.0800 
    142 H142        2.9878  -23.3886  -51.2345 H         1 UNK         0.0800 
    143 H143        2.5421  -23.0538  -48.8306 H         1 UNK         0.0600 
    144 H144        2.3712  -20.2454  -49.4281 H         1 UNK         0.3000 
    145 H145        1.0425  -19.4135  -46.1866 H         1 UNK         0.0600 
    146 H146        3.0565  -18.0134  -46.1571 H         1 UNK         0.0600 
    147 H147        3.7428  -18.8860  -47.5310 H         1 UNK         0.0600 
    148 H148        3.5284  -19.6933  -45.9840 H         1 UNK         0.0600 
    149 H149        1.6327  -17.5797  -48.1245 H         1 UNK         0.3000 
    150 H150        0.0952  -16.4105  -49.1289 H         1 UNK         0.0600 
    151 H151        0.1313  -17.9305  -51.1649 H         1 UNK         0.0600 
    152 H152       -0.9817  -16.5802  -51.3184 H         1 UNK         0.0600 
    153 H153       -1.5906  -18.1965  -50.9667 H         1 UNK         0.0600 
    154 H154       -2.7298  -16.9668  -49.2919 H         1 UNK         0.3000 
    155 H155       -3.9942  -15.3273  -47.4829 H         1 UNK         0.0600 
    156 H156       -5.3989  -17.3682  -46.8985 H         1 UNK         0.0600 
    157 H157       -3.9334  -18.3383  -46.7952 H         1 UNK         0.0600 
    158 H158       -4.4522  -17.6626  -48.3352 H         1 UNK         0.0600 
    159 H159       -2.5402  -15.9708  -45.1865 H         1 UNK         0.3000 
    160 H160       -3.9087  -14.4508  -43.0461 H         1 UNK         0.0600 
    161 H161       -5.5110  -16.9808  -42.4095 H         1 UNK         0.0600 
    162 H162       -6.0986  -15.3255  -42.3825 H         1 UNK         0.0600 
    163 H163       -4.9016  -15.8435  -41.2072 H         1 UNK         0.0600 
    164 H164       -2.0496  -15.5489  -42.6943 H         1 UNK         0.3000 
    165 H165       -1.1456  -18.9015  -42.1256 H         1 UNK         0.0600 
    166 H166       -0.1345  -17.1194  -44.4000 H         1 UNK         0.0600 
    167 H167        0.6841  -18.5202  -43.7183 H         1 UNK         0.0600 
    168 H168       -0.8105  -18.7237  -44.6220 H         1 UNK         0.0600 
    169 H169        0.3937  -16.4962  -42.1282 H         1 UNK         0.3000 
    170 H170       -0.2501  -15.6220  -38.7086 H         1 UNK         0.0600 
    171 H171        1.4952  -17.3800  -38.7182 H         1 UNK         0.0600 
    172 H172        2.1621  -16.7578  -40.2217 H         1 UNK         0.0600 
    173 H173        2.2316  -15.7852  -38.7535 H         1 UNK         0.0600 
    174 H174        1.1692  -14.6667  -41.1345 H         1 UNK         0.3000 
    175 H175       -0.9635  -11.8855  -41.5459 H         1 UNK         0.0600 
    176 H176        1.8698  -11.8095  -40.3731 H         1 UNK         0.0600 
    177 H177        1.0773  -10.5022  -41.2539 H         1 UNK         0.0600 
    178 H178        0.4601  -11.0085  -39.6897 H         1 UNK         0.0600 
    179 H179        1.5694  -12.5924  -42.6965 H         1 UNK         0.3000 
    180 H180        0.4120  -14.9490  -45.0332 H         1 UNK         0.0600 
    181 H181        1.1252  -12.0319  -45.6290 H         1 UNK         0.0600 
    182 H182       -0.3425  -12.8507  -46.1565 H         1 UNK         0.0600 
    183 H183        1.2173  -13.3811  -46.7628 H         1 UNK         0.0600 
    184 H184        2.9068  -13.7179  -44.9752 H         1 UNK         0.3000 
    185 H185        4.6778  -14.2906  -43.2213 H         1 UNK         0.0600 
    186 H186        4.3736  -15.9843  -41.4257 H         1 UNK         0.0600 
    187 H187        4.3051  -17.2739  -42.6220 H         1 UNK         0.0600 
    188 H188        5.7920  -16.3547  -42.3925 H         1 UNK         0.0600 
    189 H189        5.0246  -16.6510  -44.8817 H         1 UNK         0.3000 
    190 H190       -0.0314  -20.9925  -50.1205 H         1 UNK         0.3000 
    191 H191       -1.7295  -23.1713  -50.9977 H         1 UNK         0.0600 
    192 H192       -3.4330  -21.4612  -51.2629 H         1 UNK         0.0600 
    193 H193       -1.9268  -20.8327  -51.9135 H         1 UNK         0.0600 
    194 H194       -2.5101  -20.2867  -50.3382 H         1 UNK         0.0600 
    195 H195       -1.4490  -21.1573  -48.0368 H         1 UNK         0.3000 
    196 H196       -3.5614  -22.3382  -46.5589 H         1 UNK         0.0600 
    197 H197       -2.4003  -21.3445  -44.5946 H         1 UNK         0.0600 
    198 H198       -2.4577  -20.2033  -45.9289 H         1 UNK         0.0600 
    199 H199       -0.9613  -21.0587  -45.5654 H         1 UNK         0.0600 
    200 H200       -0.1031  -23.2665  -46.7916 H         1 UNK         0.3000 
    201 H201       -0.2171  -25.4903  -45.0264 H         1 UNK         0.0600 
    202 H202        1.9015  -24.4113  -45.7459 H         1 UNK         0.0600 
    203 H203        1.6462  -24.9591  -47.4011 H         1 UNK         0.0600 
    204 H204        1.9290  -26.1287  -46.1183 H         1 UNK         0.0600 
    205 H205       -0.8294  -25.2499  -48.5436 H         1 UNK         0.3000 
    206 H206       -1.2566  -28.0825  -48.9396 H         1 UNK         0.0600 
    207 H207       -0.4192  -26.5729  -50.7326 H         1 UNK         0.0600 
    208 H208       -1.9239  -27.3335  -51.2228 H         1 UNK         0.0600 
    209 H209       -1.9254  -25.6573  -50.6908 H         1 UNK         0.0600 
    210 H210       -3.2313  -25.6604  -47.5981 H         1 UNK         0.3000 
    211 H211       -5.3419  -25.3882  -47.0320 H         1 UNK         0.0600 
    212 H212       -5.8891  -28.3245  -47.7119 H         1 UNK         0.0600 
    213 H213       -6.8789  -27.2710  -46.7143 H         1 UNK         0.0600 
    214 H214       -5.2792  -27.7409  -46.1636 H         1 UNK         0.0600 
    215 H215       -4.4539  -24.6422  -49.5384 H         1 UNK         0.3000 
    216 H216       -6.8137  -24.8679  -51.3674 H         1 UNK         0.0600 
    217 H217       -5.1712  -24.3052  -53.1426 H         1 UNK         0.0600 
    218 H218       -4.6332  -25.7304  -52.2685 H         1 UNK         0.0600 
    219 H219       -3.8823  -24.1683  -51.9517 H         1 UNK         0.0600 
    220 H220       -5.7782  -22.9307  -48.9779 H         1 UNK         0.3000 
    221 H221       -5.4610  -20.3449  -49.9911 H         1 UNK         0.0600 
    222 H222       -6.4098  -21.4000  -47.2855 H         1 UNK         0.0600 
    223 H223       -4.8009  -20.8284  -47.7416 H         1 UNK         0.0600 
    224 H224       -6.1244  -19.6940  -47.5871 H         1 UNK         0.0600 
    225 H225       -8.4172  -22.1159  -49.8805 H         1 UNK         0.3000 
    226 H226      -10.2875  -19.9321  -49.8778 H         1 UNK         0.0600 
    227 H227      -10.9689  -22.2752  -49.4139 H         1 UNK         0.0600 
    228 H228      -11.8400  -21.6562  -50.8077 H         1 UNK         0.0600 
    229 H229      -10.4930  -22.7639  -51.0410 H         1 UNK         0.0600 
    230 H230       -8.2234  -21.3883  -52.3490 H         1 UNK         0.3000 
    231 H231       -9.3426  -19.6339  -54.4930 H         1 UNK         0.0600 
    232 H232       -7.9635  -21.0504  -56.0025 H         1 UNK         0.0600 
    233 H233       -9.1075  -22.0300  -55.0966 H         1 UNK         0.0600 
    234 H234       -7.4064  -22.0079  -54.6357 H         1 UNK         0.0600 
    235 H235       -6.3542  -20.6057  -52.8047 H         1 UNK         0.3000 
    236 H236       -4.4305  -19.6829  -52.3377 H         1 UNK         0.0600 
    237 H237       -5.8278  -17.7856  -51.4140 H         1 UNK         0.0600 
    238 H238       -4.2208  -17.2906  -51.8965 H         1 UNK         0.0600 
    239 H239       -5.5984  -16.9172  -52.9276 H         1 UNK         0.0600 
    240 H240       -2.8842  -17.5855  -53.3828 H         1 UNK         0.3000 
    241 H241       -2.7050  -17.9095  -56.2692 H         1 UNK         0.0600 
    242 H242       -2.9813  -15.6100  -54.0991 H         1 UNK         0.3800 
    243 H243       -1.7956  -14.4926  -54.7056 H         1 UNK         0.3800 
    244 H244       -1.4917  -19.8856  -55.6466 H         1 UNK         0.0800 
    245 H245       -0.3559  -18.7325  -56.2607 H         1 UNK         0.0800 
    246 H246        1.2603  -17.2206  -54.5195 H         1 UNK         0.0800 
    247 H247        1.9010  -18.6903  -55.2179 H         1 UNK         0.0800 
@<TRIPOS>BOND
     1    1    2 1    
     2    1  127 1    
     3    1  128 1    
     4    1  129 1    
     5    2    3 2    
     6    2    4 am   BACKBONE|DICT|INTERRES
     7    4    5 1    
     8    4  130 1    
     9    5    6 1    
    10    5   65 1    
    11    5  131 1    
    12    6    7 1    
    13    6  132 1    
    14    6  133 1    
    15    7    8 1    
    16    8    9 1    
    17    8  134 1    
    18    8  135 1    
    19    9   10 ar   
    20    9   14 ar   
    21   10   11 ar   
    22   10  136 1    
    23   11   12 ar   
    24   11  126 1    
    25   12   13 ar   
    26   12  137 1    
    27   13   14 ar   
    28   13   15 1    
    29   14  138 1    
    30   15   16 1    
    31   15  139 1    
    32   15  140 1    
    33   16   17 1    
    34   17   18 1    
    35   17  141 1    
    36   17  142 1    
    37   18   19 1    
    38   18   67 1    
    39   18  143 1    
    40   19   20 am   BACKBONE|DICT|INTERRES
    41   19  144 1    
    42   20   21 2    
    43   20   22 1    
    44   22   23 1    
    45   22   24 1    
    46   22  145 1    
    47   23  146 1    
    48   23  147 1    
    49   23  148 1    
    50   24   25 am   BACKBONE|DICT|INTERRES
    51   24  149 1    
    52   25   26 2    
    53   25   27 1    
    54   27   28 1    
    55   27   29 1    
    56   27  150 1    
    57   28  151 1    
    58   28  152 1    
    59   28  153 1    
    60   29   30 am   BACKBONE|DICT|INTERRES
    61   29  154 1    
    62   30   31 2    
    63   30   32 1    
    64   32   33 1    
    65   32   34 1    
    66   32  155 1    
    67   33  156 1    
    68   33  157 1    
    69   33  158 1    
    70   34   35 am   BACKBONE|DICT|INTERRES
    71   34  159 1    
    72   35   36 2    
    73   35   37 1    
    74   37   38 1    
    75   37   39 1    
    76   37  160 1    
    77   38  161 1    
    78   38  162 1    
    79   38  163 1    
    80   39   40 am   BACKBONE|DICT|INTERRES
    81   39  164 1    
    82   40   41 2    
    83   40   42 1    
    84   42   43 1    
    85   42   44 1    
    86   42  165 1    
    87   43  166 1    
    88   43  167 1    
    89   43  168 1    
    90   44   45 am   BACKBONE|DICT|INTERRES
    91   44  169 1    
    92   45   46 2    
    93   45   47 1    
    94   47   48 1    
    95   47   49 1    
    96   47  170 1    
    97   48  171 1    
    98   48  172 1    
    99   48  173 1    
   100   49   50 am   BACKBONE|DICT|INTERRES
   101   49  174 1    
   102   50   51 2    
   103   50   52 1    
   104   52   53 1    
   105   52   54 1    
   106   52  175 1    
   107   53  176 1    
   108   53  177 1    
   109   53  178 1    
   110   54   55 am   BACKBONE|DICT|INTERRES
   111   54  179 1    
   112   55   56 2    
   113   55   57 1    
   114   57   58 1    
   115   57   59 1    
   116   57  180 1    
   117   58  181 1    
   118   58  182 1    
   119   58  183 1    
   120   59   60 am   BACKBONE|DICT|INTERRES
   121   59  184 1    
   122   60   61 2    
   123   60   62 1    
   124   62   63 1    
   125   62   64 1    
   126   62  185 1    
   127   63  186 1    
   128   63  187 1    
   129   63  188 1    
   130   64   65 am   BACKBONE|DICT|INTERRES
   131   64  189 1    
   132   65   66 2    
   133   67   68 2    
   134   67   69 am   BACKBONE|DICT|INTERRES
   135   69   70 1    
   136   69  190 1    
   137   70   71 1    
   138   70   72 1    
   139   70  191 1    
   140   71  192 1    
   141   71  193 1    
   142   71  194 1    
   143   72   73 2    
   144   72   74 am   BACKBONE|DICT|INTERRES
   145   74   75 1    
   146   74  195 1    
   147   75   76 1    
   148   75   77 1    
   149   75  196 1    
   150   76  197 1    
   151   76  198 1    
   152   76  199 1    
   153   77   78 2    
   154   77   79 am   BACKBONE|DICT|INTERRES
   155   79   80 1    
   156   79  200 1    
   157   80   81 1    
   158   80   82 1    
   159   80  201 1    
   160   81  202 1    
   161   81  203 1    
   162   81  204 1    
   163   82   83 2    
   164   82   84 am   BACKBONE|DICT|INTERRES
   165   84   85 1    
   166   84  205 1    
   167   85   86 1    
   168   85   87 1    
   169   85  206 1    
   170   86  207 1    
   171   86  208 1    
   172   86  209 1    
   173   87   88 2    
   174   87   89 am   BACKBONE|DICT|INTERRES
   175   89   90 1    
   176   89  210 1    
   177   90   91 1    
   178   90   92 1    
   179   90  211 1    
   180   91  212 1    
   181   91  213 1    
   182   91  214 1    
   183   92   93 2    
   184   92   94 am   BACKBONE|DICT|INTERRES
   185   94   95 1    
   186   94  215 1    
   187   95   96 1    
   188   95   97 1    
   189   95  216 1    
   190   96  217 1    
   191   96  218 1    
   192   96  219 1    
   193   97   98 2    
   194   97   99 am   BACKBONE|DICT|INTERRES
   195   99  100 1    
   196   99  220 1    
   197  100  101 1    
   198  100  102 1    
   199  100  221 1    
   200  101  222 1    
   201  101  223 1    
   202  101  224 1    
   203  102  103 2    
   204  102  104 am   BACKBONE|DICT|INTERRES
   205  104  105 1    
   206  104  225 1    
   207  105  106 1    
   208  105  107 1    
   209  105  226 1    
   210  106  227 1    
   211  106  228 1    
   212  106  229 1    
   213  107  108 2    
   214  107  109 am   BACKBONE|DICT|INTERRES
   215  109  110 1    
   216  109  230 1    
   217  110  111 1    
   218  110  112 1    
   219  110  231 1    
   220  111  232 1    
   221  111  233 1    
   222  111  234 1    
   223  112  113 2    
   224  112  114 am   BACKBONE|DICT|INTERRES
   225  114  115 1    
   226  114  235 1    
   227  115  116 1    
   228  115  117 1    
   229  115  236 1    
   230  116  237 1    
   231  116  238 1    
   232  116  239 1    
   233  117  118 2    
   234  117  119 am   BACKBONE|DICT|INTERRES
   235  119  120 1    
   236  119  240 1    
   237  120  121 1    
   238  120  124 1    
   239  120  241 1    
   240  121  122 am   BACKBONE|DICT|INTERRES
   241  121  123 2    
   242  122  242 1    
   243  122  243 1    
   244  124  125 1    
   245  124  244 1    
   246  124  245 1    
   247  125  126 1    
   248  126  246 1    
   249  126  247 1    
@<TRIPOS>SUBSTRUCTURE
     1 UNK         1 GROUP             0       ****    0 ROOT    
