@<TRIPOS>MOLECULE
3R540
247   249    1
SMALL
USER_CHARGES


@<TRIPOS>ATOM
      1 CA          7.3645  -18.5251  -46.1418 C.3       0 UNK        -0.1800 
      2 C           6.1330  -17.9447  -45.4607 C.2       0 UNK         0.5000 
      3 O           5.7674  -18.3902  -44.3726 O.2       0 UNK        -0.5000 
      4 N           5.4904  -16.9620  -46.1014 N.am      1 UNK        -0.5000 
      5 CA          4.3047  -16.2688  -45.5909 C.3       1 UNK         0.1400 
      6 C6          3.5472  -15.5193  -46.7131 C.3       23 UNK        -0.0398 
      7 S7          2.7546  -16.6878  -47.8592 S.3       23 UNK        -0.2404 
      8 C8          3.6534  -16.3512  -49.3966 C.3       23 UNK        -0.0205 
      9 C9          3.2899  -17.3768  -50.4539 C.ar      23 UNK        -0.0193 
     10 C10         2.1419  -17.2108  -51.2326 C.ar      23 UNK        -0.1150 
     11 C11         1.8033  -18.1555  -52.2054 C.ar      23 UNK        -0.0193 
     12 C12         2.6229  -19.2719  -52.3961 C.ar      23 UNK        -0.1150 
     13 C13         3.7711  -19.4497  -51.6170 C.ar      23 UNK        -0.0193 
     14 C14         4.0993  -18.4980  -50.6487 C.ar      23 UNK        -0.1150 
     15 C15         4.6715  -20.6580  -51.8241 C.3       23 UNK        -0.0205 
     16 S16         4.5020  -21.8761  -50.4813 S.3       23 UNK        -0.2404 
     17 C17         2.8514  -22.5674  -50.8305 C.3       23 UNK        -0.0398 
     18 CA          2.0273  -22.8336  -49.5496 C.3       11 UNK         0.1400 
     19 N           1.8352  -21.6385  -48.7175 N.am      11 UNK        -0.5000 
     20 C           1.3407  -21.6769  -47.4722 C.2       10 UNK         0.5000 
     21 O           0.9627  -22.7095  -46.9196 O.2       10 UNK        -0.5000 
     22 CA          1.2196  -20.3443  -46.7154 C.3       10 UNK         0.1400 
     23 CB          2.5776  -19.9257  -46.1326 C.3       10 UNK        -0.1800 
     24 N           0.6589  -19.2328  -47.4858 N.am      10 UNK        -0.5000 
     25 C          -0.5062  -19.2307  -48.1486 C.2       9 UNK         0.5000 
     26 O          -1.1891  -20.2372  -48.3435 O.2       9 UNK        -0.5000 
     27 CA         -1.0163  -17.8459  -48.5804 C.3       9 UNK         0.1400 
     28 CB         -2.4461  -17.8734  -49.1514 C.3       9 UNK        -0.1800 
     29 N          -0.9929  -16.9656  -47.4153 N.am      9 UNK        -0.5000 
     30 C          -0.7696  -15.6469  -47.4183 C.2       8 UNK         0.5000 
     31 O          -0.5145  -14.9992  -48.4338 O.2       8 UNK        -0.5000 
     32 CA         -0.8649  -14.9219  -46.0587 C.3       8 UNK         0.1400 
     33 CB         -2.0697  -13.9675  -46.0413 C.3       8 UNK        -0.1800 
     34 N          -0.9836  -15.8486  -44.9267 N.am      8 UNK        -0.5000 
     35 C           0.0541  -16.3629  -44.2560 C.2       7 UNK         0.5000 
     36 O           1.2271  -16.0642  -44.4803 O.2       7 UNK        -0.5000 
     37 CA         -0.2892  -17.3578  -43.1380 C.3       7 UNK         0.1400 
     38 CB          0.9552  -17.9173  -42.4180 C.3       7 UNK        -0.1800 
     39 N          -1.2008  -16.7277  -42.1859 N.am      7 UNK        -0.5000 
     40 C          -2.0194  -17.3921  -41.3580 C.2       6 UNK         0.5000 
     41 O          -2.0874  -18.6211  -41.3116 O.2       6 UNK        -0.5000 
     42 CA         -2.9224  -16.5606  -40.4219 C.3       6 UNK         0.1400 
     43 CB         -2.2644  -16.4118  -39.0414 C.3       6 UNK        -0.1800 
     44 N          -3.2448  -15.2290  -40.9348 N.am      6 UNK        -0.5000 
     45 C          -3.9568  -14.9772  -42.0410 C.2       5 UNK         0.5000 
     46 O          -4.4977  -15.8528  -42.7172 O.2       5 UNK        -0.5000 
     47 CA         -4.0681  -13.5048  -42.4892 C.3       5 UNK         0.1400 
     48 CB         -5.4383  -12.9323  -42.0945 C.3       5 UNK        -0.1800 
     49 N          -3.0204  -12.5952  -42.0026 N.am      5 UNK        -0.5000 
     50 C          -1.6975  -12.7541  -42.1439 C.2       4 UNK         0.5000 
     51 O          -1.1667  -13.7888  -42.5546 O.2       4 UNK        -0.5000 
     52 CA         -0.8154  -11.5648  -41.7221 C.3       4 UNK         0.1400 
     53 CB         -0.4243  -11.6903  -40.2420 C.3       4 UNK        -0.1800 
     54 N           0.4030  -11.5109  -42.5262 N.am      4 UNK        -0.5000 
     55 C           0.4570  -11.2789  -43.8435 C.2       3 UNK         0.5000 
     56 O          -0.5028  -10.8770  -44.5024 O.2       3 UNK        -0.5000 
     57 CA          1.7839  -11.5941  -44.5637 C.3       3 UNK         0.1400 
     58 CB          2.6630  -10.3376  -44.7109 C.3       3 UNK        -0.1800 
     59 N           2.5259  -12.7231  -43.9806 N.am      3 UNK        -0.5000 
     60 C           3.1922  -12.7952  -42.8174 C.2       2 UNK         0.5000 
     61 O           3.3092  -11.8511  -42.0367 O.2       2 UNK        -0.5000 
     62 CA          3.7660  -14.1690  -42.4214 C.3       2 UNK         0.1400 
     63 CB          2.9737  -14.7389  -41.2336 C.3       2 UNK        -0.1800 
     64 N           3.7105  -15.1299  -43.5237 N.am      2 UNK        -0.5000 
     65 C           4.6631  -15.3024  -44.4459 C.2       1 UNK         0.5000 
     66 O           5.7451  -14.7099  -44.4428 O.2       1 UNK        -0.5000 
     67 C           0.6857  -23.4940  -49.9175 C.2       11 UNK         0.5000 
     68 O           0.5564  -24.7140  -49.8140 O.2       11 UNK        -0.5000 
     69 N          -0.2952  -22.6714  -50.3128 N.am      12 UNK        -0.5000 
     70 CA         -1.6394  -23.1193  -50.6659 C.3       12 UNK         0.1400 
     71 CB         -2.3801  -21.9962  -51.3975 C.3       12 UNK        -0.1800 
     72 C          -2.4297  -23.5976  -49.4393 C.2       12 UNK         0.5000 
     73 O          -3.1289  -24.6050  -49.5323 O.2       12 UNK        -0.5000 
     74 N          -2.2720  -22.9000  -48.3062 N.am      13 UNK        -0.5000 
     75 CA         -2.8529  -23.2705  -47.0169 C.3       13 UNK         0.1400 
     76 CB         -2.6035  -22.1484  -45.9981 C.3       13 UNK        -0.1800 
     77 C          -2.3231  -24.6206  -46.4983 C.2       13 UNK         0.5000 
     78 O          -3.1189  -25.4510  -46.0593 O.2       13 UNK        -0.5000 
     79 N          -1.0032  -24.8367  -46.6031 N.am      14 UNK        -0.5000 
     80 CA         -0.3337  -26.0901  -46.2456 C.3       14 UNK         0.1400 
     81 CB          1.1884  -25.8850  -46.2683 C.3       14 UNK        -0.1800 
     82 C          -0.7335  -27.2675  -47.1546 C.2       14 UNK         0.5000 
     83 O          -0.8905  -28.3866  -46.6652 O.2       14 UNK        -0.5000 
     84 N          -0.9145  -26.9916  -48.4533 N.am      15 UNK        -0.5000 
     85 CA         -1.3744  -27.9562  -49.4551 C.3       15 UNK         0.1400 
     86 CB         -1.0394  -27.4120  -50.8531 C.3       15 UNK        -0.1800 
     87 C          -2.8798  -28.2810  -49.3610 C.2       15 UNK         0.5000 
     88 O          -3.3171  -29.2549  -49.9753 O.2       15 UNK        -0.5000 
     89 N          -3.6411  -27.4521  -48.6297 N.am      16 UNK        -0.5000 
     90 CA         -5.1058  -27.4310  -48.5366 C.3       16 UNK         0.1400 
     91 CB         -5.6432  -28.7100  -47.8615 C.3       16 UNK        -0.1800 
     92 C          -5.7695  -27.1275  -49.8986 C.2       16 UNK         0.5000 
     93 O          -6.8064  -27.7030  -50.2358 O.2       16 UNK        -0.5000 
     94 N          -5.1348  -26.2296  -50.6597 N.am      17 UNK        -0.5000 
     95 CA         -5.5672  -25.7444  -51.9648 C.3       17 UNK         0.1400 
     96 CB         -4.3081  -25.4908  -52.8145 C.3       17 UNK        -0.1800 
     97 C          -6.4188  -24.4682  -51.8179 C.2       17 UNK         0.5000 
     98 O          -6.7271  -24.0410  -50.7010 O.2       17 UNK        -0.5000 
     99 N          -6.7823  -23.8679  -52.9586 N.am      18 UNK        -0.5000 
    100 CA        -7.5296  -22.6140  -53.0641 C.3       18 UNK         0.1400 
    101 CB        -8.0930  -22.4918  -54.4913 C.3       18 UNK        -0.1800 
    102 C         -6.6643  -21.3977  -52.6742 C.2       18 UNK         0.5000 
    103 O         -6.2743  -20.6073  -53.5351 O.2       18 UNK        -0.5000 
    104 N         -6.3750  -21.2666  -51.3743 N.am      19 UNK        -0.5000 
    105 CA        -5.5411  -20.2217  -50.7703 C.3       19 UNK         0.1400 
    106 CB        -5.3451  -20.5497  -49.2824 C.3       19 UNK        -0.1800 
    107 C         -6.0567  -18.7816  -50.9645 C.2       19 UNK         0.5000 
    108 O         -5.2700  -17.8421  -50.8585 O.2       19 UNK        -0.5000 
    109 N         -7.3480  -18.6292  -51.2898 N.am      20 UNK        -0.5000 
    110 CA        -7.9554  -17.3653  -51.7113 C.3       20 UNK         0.1400 
    111 CB        -9.4801  -17.5411  -51.7785 C.3       20 UNK        -0.1800 
    112 C         -7.4104  -16.8539  -53.0623 C.2       20 UNK         0.5000 
    113 O         -7.3645  -15.6410  -53.2716 O.2       20 UNK        -0.5000 
    114 N         -7.0019  -17.7791  -53.9421 N.am      21 UNK        -0.5000 
    115 CA        -6.3462  -17.4900  -55.2164 C.3       21 UNK         0.1400 
    116 CB        -6.9011  -18.4318  -56.2971 C.3       21 UNK        -0.1800 
    117 C         -4.8215  -17.6478  -55.0921 C.2       21 UNK         0.5000 
    118 O         -4.0809  -16.8135  -55.6136 O.2       21 UNK        -0.5000 
    119 N         -4.3823  -18.7139  -54.4087 N.am      22 UNK        -0.5000 
    120 CA        -2.9900  -19.1049  -54.1214 C.3       22 UNK         0.1400 
    121 C         -2.1457  -19.5293  -55.3609 C.2       22 UNK         0.5000 
    122 N         -2.2990  -18.8918  -56.5129 N.am      22 UNK        -0.7600 
    123 O         -1.3595  -20.4685  -55.2827 O.2       22 UNK        -0.5000 
    124 C124       -2.2534  -18.0512  -53.2518 C.3       23 UNK        -0.0398 
    125 S125       -0.8842  -18.7458  -52.2635 S.3       23 UNK        -0.2404 
    126 C126        0.5542  -17.9630  -53.0490 C.3       23 UNK        -0.0205 
    127 H127        7.5626  -18.0445  -47.1002 H         1 UNK         0.0600 
    128 H128        7.2267  -19.5917  -46.3192 H         1 UNK         0.0600 
    129 H129        8.2411  -18.3937  -45.5075 H         1 UNK         0.0600 
    130 H130        5.8561  -16.6194  -46.9769 H         1 UNK         0.3000 
    131 H131        3.6361  -17.0254  -45.1756 H         1 UNK         0.0600 
    132 H132        2.7512  -14.8948  -46.3057 H         1 UNK         0.0800 
    133 H133        4.2132  -14.8430  -47.2515 H         1 UNK         0.0800 
    134 H134        4.7278  -16.3692  -49.2082 H         1 UNK         0.0800 
    135 H135        3.4127  -15.3468  -49.7483 H         1 UNK         0.0800 
    136 H136        1.5086  -16.3486  -51.0753 H         1 UNK         0.1150 
    137 H137        2.3628  -20.0021  -53.1498 H         1 UNK         0.1150 
    138 H138        4.9847  -18.6347  -50.0434 H         1 UNK         0.1150 
    139 H139        4.4657  -21.1390  -52.7818 H         1 UNK         0.0800 
    140 H140        5.7098  -20.3262  -51.8682 H         1 UNK         0.0800 
    141 H141        2.9983  -23.4955  -51.3862 H         1 UNK         0.0800 
    142 H142        2.3046  -21.9011  -51.4980 H         1 UNK         0.0800 
    143 H143        2.5824  -23.5575  -48.9485 H         1 UNK         0.0600 
    144 H144        2.1298  -20.7543  -49.1061 H         1 UNK         0.3000 
    145 H145        0.5405  -20.5164  -45.8782 H         1 UNK         0.0600 
    146 H146        2.4714  -19.0660  -45.4718 H         1 UNK         0.0600 
    147 H147        3.0193  -20.7312  -45.5446 H         1 UNK         0.0600 
    148 H148        3.2898  -19.6618  -46.9157 H         1 UNK         0.0600 
    149 H149        1.1615  -18.3565  -47.4215 H         1 UNK         0.3000 
    150 H150       -0.3316  -17.4785  -49.3476 H         1 UNK         0.0600 
    151 H151       -2.5606  -18.6299  -49.9270 H         1 UNK         0.0600 
    152 H152       -2.7095  -16.9137  -49.5959 H         1 UNK         0.0600 
    153 H153       -3.1786  -18.0916  -48.3746 H         1 UNK         0.0600 
    154 H154       -1.1707  -17.4141  -46.5289 H         1 UNK         0.3000 
    155 H155        0.0400  -14.3208  -45.9473 H         1 UNK         0.0600 
    156 H156       -3.0148  -14.5074  -46.1089 H         1 UNK         0.0600 
    157 H157       -2.0292  -13.2668  -46.8762 H         1 UNK         0.0600 
    158 H158       -2.0840  -13.3728  -45.1289 H         1 UNK         0.0600 
    159 H159       -1.9199  -16.1055  -44.6481 H         1 UNK         0.3000 
    160 H160       -0.8030  -18.1920  -43.6203 H         1 UNK         0.0600 
    161 H161        1.4795  -17.1424  -41.8617 H         1 UNK         0.0600 
    162 H162        1.6609  -18.3502  -43.1280 H         1 UNK         0.0600 
    163 H163        0.6864  -18.7053  -41.7148 H         1 UNK         0.0600 
    164 H164       -1.2166  -15.7096  -42.1988 H         1 UNK         0.3000 
    165 H165       -3.8593  -17.1077  -40.2985 H         1 UNK         0.0600 
    166 H166       -2.9242  -15.8980  -38.3421 H         1 UNK         0.0600 
    167 H167       -2.0332  -17.3872  -38.6112 H         1 UNK         0.0600 
    168 H168       -1.3314  -15.8494  -39.0999 H         1 UNK         0.0600 
    169 H169       -2.8281  -14.4456  -40.4543 H         1 UNK         0.3000 
    170 H170       -4.0061  -13.5058  -43.5788 H         1 UNK         0.0600 
    171 H171       -6.2490  -13.5616  -42.4646 H         1 UNK         0.0600 
    172 H172       -5.5461  -12.8616  -41.0115 H         1 UNK         0.0600 
    173 H173       -5.5873  -11.9370  -42.5138 H         1 UNK         0.0600 
    174 H174       -3.3530  -11.7225  -41.6183 H         1 UNK         0.3000 
    175 H175       -1.3694  -10.6357  -41.8707 H         1 UNK         0.0600 
    176 H176        0.1384  -12.6054  -40.0512 H         1 UNK         0.0600 
    177 H177        0.1900  -10.8476  -39.9239 H         1 UNK         0.0600 
    178 H178       -1.3075  -11.7075  -39.6024 H         1 UNK         0.0600 
    179 H179        1.2597  -11.8071  -42.0754 H         1 UNK         0.3000 
    180 H180        1.5138  -11.9181  -45.5701 H         1 UNK         0.0600 
    181 H181        2.9255   -9.9043  -43.7457 H         1 UNK         0.0600 
    182 H182        2.1409   -9.5663  -45.2783 H         1 UNK         0.0600 
    183 H183        3.5876  -10.5625  -45.2424 H         1 UNK         0.0600 
    184 H184        2.4409  -13.5891  -44.4918 H         1 UNK         0.3000 
    185 H185        4.8024  -14.0243  -42.1094 H         1 UNK         0.0600 
    186 H186        3.3499  -15.7192  -40.9408 H         1 UNK         0.0600 
    187 H187        3.0540  -14.0885  -40.3617 H         1 UNK         0.0600 
    188 H188        1.9129  -14.8378  -41.4691 H         1 UNK         0.0600 
    189 H189        2.8264  -15.6186  -43.6526 H         1 UNK         0.3000 
    190 H190       -0.1343  -21.6743  -50.3047 H         1 UNK         0.3000 
    191 H191       -1.5479  -23.9641  -51.3516 H         1 UNK         0.0600 
    192 H192       -2.4447  -21.0974  -50.7836 H         1 UNK         0.0600 
    193 H193       -3.3943  -22.3012  -51.6579 H         1 UNK         0.0600 
    194 H194       -1.8704  -21.7349  -52.3249 H         1 UNK         0.0600 
    195 H195       -1.7170  -22.0477  -48.3276 H         1 UNK         0.3000 
    196 H196       -3.9316  -23.3679  -47.1562 H         1 UNK         0.0600 
    197 H197       -3.0503  -22.3900  -45.0330 H         1 UNK         0.0600 
    198 H198       -3.0415  -21.2083  -46.3344 H         1 UNK         0.0600 
    199 H199       -1.5387  -21.9811  -45.8358 H         1 UNK         0.0600 
    200 H200       -0.4047  -24.0837  -46.9320 H         1 UNK         0.3000 
    201 H201       -0.6260  -26.3463  -45.2252 H         1 UNK         0.0600 
    202 H202        1.4927  -25.1184  -45.5555 H         1 UNK         0.0600 
    203 H203        1.5384  -25.5810  -47.2556 H         1 UNK         0.0600 
    204 H204        1.7122  -26.8035  -46.0009 H         1 UNK         0.0600 
    205 H205       -0.7010  -26.0586  -48.7887 H         1 UNK         0.3000 
    206 H206       -0.8279  -28.8908  -49.3129 H         1 UNK         0.0600 
    207 H207        0.0312  -27.2387  -50.9633 H         1 UNK         0.0600 
    208 H208       -1.3354  -28.1165  -51.6313 H         1 UNK         0.0600 
    209 H209       -1.5538  -26.4710  -51.0501 H         1 UNK         0.0600 
    210 H210       -3.1744  -26.6693  -48.1906 H         1 UNK         0.3000 
    211 H211       -5.3522  -26.5894  -47.8875 H         1 UNK         0.0600 
    212 H212       -5.4987  -29.5924  -48.4851 H         1 UNK         0.0600 
    213 H213       -6.7118  -28.6244  -47.6617 H         1 UNK         0.0600 
    214 H214       -5.1482  -28.8882  -46.9068 H         1 UNK         0.0600 
    215 H215       -4.3395  -25.7413  -50.2518 H         1 UNK         0.3000 
    216 H216       -6.1760  -26.5046  -52.4582 H         1 UNK         0.0600 
    217 H217       -4.5618  -25.2397  -53.8446 H         1 UNK         0.0600 
    218 H218       -3.6741  -26.3772  -52.8503 H         1 UNK         0.0600 
    219 H219       -3.7107  -24.6725  -52.4130 H         1 UNK         0.0600 
    220 H220       -6.4764  -24.2698  -53.8327 H         1 UNK         0.3000 
    221 H221       -8.3757  -22.6515  -52.3748 H         1 UNK         0.0600 
    222 H222       -7.2999  -22.4802  -55.2402 H         1 UNK         0.0600 
    223 H223       -8.7613  -23.3211  -54.7237 H         1 UNK         0.0600 
    224 H224       -8.6670  -21.5714  -54.6077 H         1 UNK         0.0600 
    225 H225       -6.6800  -22.0136  -50.7584 H         1 UNK         0.3000 
    226 H226       -4.5693  -20.2561  -51.2617 H         1 UNK         0.0600 
    227 H227       -4.8811  -21.5277  -49.1524 H         1 UNK         0.0600 
    228 H228       -4.6965  -19.8205  -48.7983 H         1 UNK         0.0600 
    229 H229       -6.2938  -20.5539  -48.7448 H         1 UNK         0.0600 
    230 H230       -7.9292  -19.4527  -51.3356 H         1 UNK         0.3000 
    231 H231       -7.7292  -16.6108  -50.9550 H         1 UNK         0.0600 
    232 H232       -9.8869  -17.8338  -50.8104 H         1 UNK         0.0600 
    233 H233       -9.7665  -18.2999  -52.5078 H         1 UNK         0.0600 
    234 H234       -9.9679  -16.6088  -52.0661 H         1 UNK         0.0600 
    235 H235       -7.0336  -18.7554  -53.6719 H         1 UNK         0.3000 
    236 H236       -6.5542  -16.4638  -55.5265 H         1 UNK         0.0600 
    237 H237       -6.4299  -18.2392  -57.2617 H         1 UNK         0.0600 
    238 H238       -6.7295  -19.4805  -56.0510 H         1 UNK         0.0600 
    239 H239       -7.9744  -18.2913  -56.4257 H         1 UNK         0.0600 
    240 H240       -5.0798  -19.3803  -54.0846 H         1 UNK         0.3000 
    241 H241       -3.1006  -20.0051  -53.5165 H         1 UNK         0.0600 
    242 H242       -2.9175  -18.0892  -56.5527 H         1 UNK         0.3800 
    243 H243       -1.7651  -19.1683  -57.3216 H         1 UNK         0.3800 
    244 H244       -2.9529  -17.6164  -52.5361 H         1 UNK         0.0800 
    245 H245       -1.9053  -17.2168  -53.8625 H         1 UNK         0.0800 
    246 H246        0.3657  -16.8969  -53.1853 H         1 UNK         0.0800 
    247 H247        0.6978  -18.3843  -54.0452 H         1 UNK         0.0800 
@<TRIPOS>BOND
     1    1    2 1    
     2    1  127 1    
     3    1  128 1    
     4    1  129 1    
     5    2    3 2    
     6    2    4 am   BACKBONE|DICT|INTERRES
     7    4    5 1    
     8    4  130 1    
     9    5    6 1    
    10    5   65 1    
    11    5  131 1    
    12    6    7 1    
    13    6  132 1    
    14    6  133 1    
    15    7    8 1    
    16    8    9 1    
    17    8  134 1    
    18    8  135 1    
    19    9   10 ar   
    20    9   14 ar   
    21   10   11 ar   
    22   10  136 1    
    23   11   12 ar   
    24   11  126 1    
    25   12   13 ar   
    26   12  137 1    
    27   13   14 ar   
    28   13   15 1    
    29   14  138 1    
    30   15   16 1    
    31   15  139 1    
    32   15  140 1    
    33   16   17 1    
    34   17   18 1    
    35   17  141 1    
    36   17  142 1    
    37   18   19 1    
    38   18   67 1    
    39   18  143 1    
    40   19   20 am   BACKBONE|DICT|INTERRES
    41   19  144 1    
    42   20   21 2    
    43   20   22 1    
    44   22   23 1    
    45   22   24 1    
    46   22  145 1    
    47   23  146 1    
    48   23  147 1    
    49   23  148 1    
    50   24   25 am   BACKBONE|DICT|INTERRES
    51   24  149 1    
    52   25   26 2    
    53   25   27 1    
    54   27   28 1    
    55   27   29 1    
    56   27  150 1    
    57   28  151 1    
    58   28  152 1    
    59   28  153 1    
    60   29   30 am   BACKBONE|DICT|INTERRES
    61   29  154 1    
    62   30   31 2    
    63   30   32 1    
    64   32   33 1    
    65   32   34 1    
    66   32  155 1    
    67   33  156 1    
    68   33  157 1    
    69   33  158 1    
    70   34   35 am   BACKBONE|DICT|INTERRES
    71   34  159 1    
    72   35   36 2    
    73   35   37 1    
    74   37   38 1    
    75   37   39 1    
    76   37  160 1    
    77   38  161 1    
    78   38  162 1    
    79   38  163 1    
    80   39   40 am   BACKBONE|DICT|INTERRES
    81   39  164 1    
    82   40   41 2    
    83   40   42 1    
    84   42   43 1    
    85   42   44 1    
    86   42  165 1    
    87   43  166 1    
    88   43  167 1    
    89   43  168 1    
    90   44   45 am   BACKBONE|DICT|INTERRES
    91   44  169 1    
    92   45   46 2    
    93   45   47 1    
    94   47   48 1    
    95   47   49 1    
    96   47  170 1    
    97   48  171 1    
    98   48  172 1    
    99   48  173 1    
   100   49   50 am   BACKBONE|DICT|INTERRES
   101   49  174 1    
   102   50   51 2    
   103   50   52 1    
   104   52   53 1    
   105   52   54 1    
   106   52  175 1    
   107   53  176 1    
   108   53  177 1    
   109   53  178 1    
   110   54   55 am   BACKBONE|DICT|INTERRES
   111   54  179 1    
   112   55   56 2    
   113   55   57 1    
   114   57   58 1    
   115   57   59 1    
   116   57  180 1    
   117   58  181 1    
   118   58  182 1    
   119   58  183 1    
   120   59   60 am   BACKBONE|DICT|INTERRES
   121   59  184 1    
   122   60   61 2    
   123   60   62 1    
   124   62   63 1    
   125   62   64 1    
   126   62  185 1    
   127   63  186 1    
   128   63  187 1    
   129   63  188 1    
   130   64   65 am   BACKBONE|DICT|INTERRES
   131   64  189 1    
   132   65   66 2    
   133   67   68 2    
   134   67   69 am   BACKBONE|DICT|INTERRES
   135   69   70 1    
   136   69  190 1    
   137   70   71 1    
   138   70   72 1    
   139   70  191 1    
   140   71  192 1    
   141   71  193 1    
   142   71  194 1    
   143   72   73 2    
   144   72   74 am   BACKBONE|DICT|INTERRES
   145   74   75 1    
   146   74  195 1    
   147   75   76 1    
   148   75   77 1    
   149   75  196 1    
   150   76  197 1    
   151   76  198 1    
   152   76  199 1    
   153   77   78 2    
   154   77   79 am   BACKBONE|DICT|INTERRES
   155   79   80 1    
   156   79  200 1    
   157   80   81 1    
   158   80   82 1    
   159   80  201 1    
   160   81  202 1    
   161   81  203 1    
   162   81  204 1    
   163   82   83 2    
   164   82   84 am   BACKBONE|DICT|INTERRES
   165   84   85 1    
   166   84  205 1    
   167   85   86 1    
   168   85   87 1    
   169   85  206 1    
   170   86  207 1    
   171   86  208 1    
   172   86  209 1    
   173   87   88 2    
   174   87   89 am   BACKBONE|DICT|INTERRES
   175   89   90 1    
   176   89  210 1    
   177   90   91 1    
   178   90   92 1    
   179   90  211 1    
   180   91  212 1    
   181   91  213 1    
   182   91  214 1    
   183   92   93 2    
   184   92   94 am   BACKBONE|DICT|INTERRES
   185   94   95 1    
   186   94  215 1    
   187   95   96 1    
   188   95   97 1    
   189   95  216 1    
   190   96  217 1    
   191   96  218 1    
   192   96  219 1    
   193   97   98 2    
   194   97   99 am   BACKBONE|DICT|INTERRES
   195   99  100 1    
   196   99  220 1    
   197  100  101 1    
   198  100  102 1    
   199  100  221 1    
   200  101  222 1    
   201  101  223 1    
   202  101  224 1    
   203  102  103 2    
   204  102  104 am   BACKBONE|DICT|INTERRES
   205  104  105 1    
   206  104  225 1    
   207  105  106 1    
   208  105  107 1    
   209  105  226 1    
   210  106  227 1    
   211  106  228 1    
   212  106  229 1    
   213  107  108 2    
   214  107  109 am   BACKBONE|DICT|INTERRES
   215  109  110 1    
   216  109  230 1    
   217  110  111 1    
   218  110  112 1    
   219  110  231 1    
   220  111  232 1    
   221  111  233 1    
   222  111  234 1    
   223  112  113 2    
   224  112  114 am   BACKBONE|DICT|INTERRES
   225  114  115 1    
   226  114  235 1    
   227  115  116 1    
   228  115  117 1    
   229  115  236 1    
   230  116  237 1    
   231  116  238 1    
   232  116  239 1    
   233  117  118 2    
   234  117  119 am   BACKBONE|DICT|INTERRES
   235  119  120 1    
   236  119  240 1    
   237  120  121 1    
   238  120  124 1    
   239  120  241 1    
   240  121  122 am   BACKBONE|DICT|INTERRES
   241  121  123 2    
   242  122  242 1    
   243  122  243 1    
   244  124  125 1    
   245  124  244 1    
   246  124  245 1    
   247  125  126 1    
   248  126  246 1    
   249  126  247 1    
@<TRIPOS>SUBSTRUCTURE
     1 UNK         1 GROUP             0       ****    0 ROOT    
