@<TRIPOS>MOLECULE
3R540
247   249    1
SMALL
USER_CHARGES


@<TRIPOS>ATOM
      1 CA          4.7495  -13.3865  -44.0781 C.3       0 UNK        -0.1800 
      2 C           4.1668  -13.3466  -45.4826 C.2       0 UNK         0.5000 
      3 O           2.9505  -13.4309  -45.6425 O.2       0 UNK        -0.5000 
      4 N           5.0217  -13.2021  -46.5024 N.am      1 UNK        -0.5000 
      5 CA          4.6922  -13.1897  -47.9370 C.3       1 UNK         0.1400 
      6 C6          5.9410  -13.5133  -48.7956 C.3       23 UNK        -0.0398 
      7 S7          6.5304  -15.2224  -48.5206 S.3       23 UNK        -0.2404 
      8 C8          6.3438  -15.9676  -50.1738 C.3       23 UNK        -0.0205 
      9 C9          4.9412  -16.5034  -50.4388 C.ar      23 UNK        -0.0193 
     10 C10         3.8920  -15.6320  -50.7503 C.ar      23 UNK        -0.1150 
     11 C11         2.6192  -16.1179  -51.0655 C.ar      23 UNK        -0.0193 
     12 C12         2.4169  -17.5034  -51.0886 C.ar      23 UNK        -0.1150 
     13 C13         3.4440  -18.3876  -50.7616 C.ar      23 UNK        -0.0193 
     14 C14         4.7036  -17.8821  -50.4283 C.ar      23 UNK        -0.1150 
     15 C15         3.1900  -19.8875  -50.8025 C.3       23 UNK        -0.0205 
     16 S16         2.4750  -20.5021  -49.2465 S.3       23 UNK        -0.2404 
     17 C17         0.7278  -19.9710  -49.3462 C.3       23 UNK        -0.0398 
     18 CA         -0.2209  -20.9782  -48.6462 C.3       11 UNK         0.1400 
     19 N           0.1350  -21.1725  -47.2317 N.am      11 UNK        -0.5000 
     20 C          -0.0933  -22.2574  -46.4786 C.2       10 UNK         0.5000 
     21 O          -0.7763  -23.2078  -46.8663 O.2       10 UNK        -0.5000 
     22 CA          0.4694  -22.2638  -45.0406 C.3       10 UNK         0.1400 
     23 CB          0.8709  -23.6751  -44.5694 C.3       10 UNK        -0.1800 
     24 N           1.5510  -21.2995  -44.8199 N.am      10 UNK        -0.5000 
     25 C           2.7801  -21.2775  -45.3600 C.2       9 UNK         0.5000 
     26 O           3.2249  -22.1611  -46.0923 O.2       9 UNK        -0.5000 
     27 CA          3.6629  -20.0573  -45.0199 C.3       9 UNK         0.1400 
     28 CB          4.0763  -19.2853  -46.2846 C.3       9 UNK        -0.1800 
     29 N           2.9718  -19.1313  -44.1191 N.am      9 UNK        -0.5000 
     30 C           3.3591  -18.8358  -42.8726 C.2       8 UNK         0.5000 
     31 O           4.3940  -19.2560  -42.3542 O.2       8 UNK        -0.5000 
     32 CA          2.4190  -17.9315  -42.0546 C.3       8 UNK         0.1400 
     33 CB          2.7708  -16.4512  -42.2710 C.3       8 UNK        -0.1800 
     34 N           0.9970  -18.1474  -42.3442 N.am      8 UNK        -0.5000 
     35 C           0.3196  -19.2606  -42.0192 C.2       7 UNK         0.5000 
     36 O           0.8473  -20.2525  -41.5177 O.2       7 UNK        -0.5000 
     37 CA         -1.1894  -19.2915  -42.3095 C.3       7 UNK         0.1400 
     38 CB         -1.9709  -18.6536  -41.1510 C.3       7 UNK        -0.1800 
     39 N          -1.5100  -18.5853  -43.5459 N.am      7 UNK        -0.5000 
     40 C          -2.0586  -19.1436  -44.6322 C.2       6 UNK         0.5000 
     41 O          -2.3858  -20.3283  -44.7270 O.2       6 UNK        -0.5000 
     42 CA         -2.2604  -18.2115  -45.8393 C.3       6 UNK         0.1400 
     43 CB         -3.5687  -17.4217  -45.6630 C.3       6 UNK        -0.1800 
     44 N          -1.1681  -17.2684  -46.0725 N.am      6 UNK        -0.5000 
     45 C           0.1448  -17.5390  -46.0885 C.2       5 UNK         0.5000 
     46 O           0.6268  -18.6666  -46.0002 O.2       5 UNK        -0.5000 
     47 CA          1.0940  -16.3344  -46.1330 C.3       5 UNK         0.1400 
     48 CB          1.5097  -16.0586  -47.5825 C.3       5 UNK        -0.1800 
     49 N           0.5479  -15.1083  -45.5457 N.am      5 UNK        -0.5000 
     50 C          -0.0185  -14.9509  -44.3393 C.2       4 UNK         0.5000 
     51 O          -0.2050  -15.8725  -43.5406 O.2       4 UNK        -0.5000 
     52 CA         -0.4790  -13.5281  -43.9704 C.3       4 UNK         0.1400 
     53 CB          0.5047  -12.8910  -42.9776 C.3       4 UNK        -0.1800 
     54 N          -0.6384  -12.6351  -45.1224 N.am      4 UNK        -0.5000 
     55 C          -1.5550  -12.7570  -46.0911 C.2       3 UNK         0.5000 
     56 O          -2.3817  -13.6705  -46.1327 O.2       3 UNK        -0.5000 
     57 CA         -1.5399  -11.7029  -47.2172 C.3       3 UNK         0.1400 
     58 CB         -2.3729  -10.4666  -46.8278 C.3       3 UNK        -0.1800 
     59 N          -0.2015  -11.3259  -47.7034 N.am      3 UNK        -0.5000 
     60 C           0.7541  -10.6229  -47.0792 C.2       2 UNK         0.5000 
     61 O           0.6717  -10.2369  -45.9119 O.2       2 UNK        -0.5000 
     62 CA          2.0443  -10.3765  -47.8741 C.3       2 UNK         0.1400 
     63 CB          2.7611   -9.0800  -47.4457 C.3       2 UNK        -0.1800 
     64 N           2.9070  -11.5293  -47.6616 N.am      2 UNK        -0.5000 
     65 C           3.9724  -11.8900  -48.3816 C.2       1 UNK         0.5000 
     66 O           4.3807  -11.2493  -49.3516 O.2       1 UNK        -0.5000 
     67 C          -1.7181  -20.6265  -48.8288 C.2       11 UNK         0.5000 
     68 O          -2.0755  -19.7445  -49.6134 O.2       11 UNK        -0.5000 
     69 N          -2.5572  -21.3432  -48.0796 N.am      12 UNK        -0.5000 
     70 CA         -4.0113  -21.3867  -48.1075 C.3       12 UNK         0.1400 
     71 CB         -4.6626  -20.0906  -47.5996 C.3       12 UNK        -0.1800 
     72 C          -4.4330  -22.5819  -47.2482 C.2       12 UNK         0.5000 
     73 O          -5.1894  -23.4244  -47.7238 O.2       12 UNK        -0.5000 
     74 N          -3.8896  -22.6624  -46.0223 N.am      13 UNK        -0.5000 
     75 CA         -4.1657  -23.7156  -45.0424 C.3       13 UNK         0.1400 
     76 CB         -3.4370  -23.3898  -43.7292 C.3       13 UNK        -0.1800 
     77 C          -3.8073  -25.1332  -45.5280 C.2       13 UNK         0.5000 
     78 O          -4.6446  -26.0322  -45.4426 O.2       13 UNK        -0.5000 
     79 N          -2.5880  -25.3050  -46.0583 N.am      14 UNK        -0.5000 
     80 CA         -2.1133  -26.5736  -46.6232 C.3       14 UNK         0.1400 
     81 CB         -0.5785  -26.6138  -46.5626 C.3       14 UNK        -0.1800 
     82 C          -2.6017  -26.7880  -48.0682 C.2       14 UNK         0.5000 
     83 O          -2.6215  -27.9219  -48.5469 O.2       14 UNK        -0.5000 
     84 N          -2.9949  -25.6932  -48.7290 N.am      15 UNK        -0.5000 
     85 CA         -3.4994  -25.6492  -50.1001 C.3       15 UNK         0.1400 
     86 CB         -3.1124  -24.2862  -50.6887 C.3       15 UNK        -0.1800 
     87 C          -5.0234  -25.8777  -50.1966 C.2       15 UNK         0.5000 
     88 O          -5.5756  -25.7893  -51.2970 O.2       15 UNK        -0.5000 
     89 N          -5.6786  -26.1158  -49.0479 N.am      16 UNK        -0.5000 
     90 CA         -7.1173  -26.3390  -48.8476 C.3       16 UNK         0.1400 
     91 CB         -7.5356  -27.6850  -49.4746 C.3       16 UNK        -0.1800 
     92 C          -8.0043  -25.1680  -49.3271 C.2       16 UNK         0.5000 
     93 O          -9.1673  -25.3810  -49.6735 O.2       16 UNK        -0.5000 
     94 N          -7.4198  -23.9610  -49.3778 N.am      17 UNK        -0.5000 
     95 CA         -7.9377  -22.7246  -49.9749 C.3       17 UNK         0.1400 
     96 CB         -9.1126  -22.1757  -49.1408 C.3       17 UNK        -0.1800 
     97 C          -8.2848  -22.8522  -51.4791 C.2       17 UNK         0.5000 
     98 O          -9.0567  -22.0407  -51.9937 O.2       17 UNK        -0.5000 
     99 N          -7.7336  -23.8734  -52.1507 N.am      18 UNK        -0.5000 
    100 CA        -8.0683  -24.2601  -53.5181 C.3       18 UNK         0.1400 
    101 CB        -8.5757  -25.7117  -53.5170 C.3       18 UNK        -0.1800 
    102 C         -6.8565  -24.1076  -54.4441 C.2       18 UNK         0.5000 
    103 O         -6.9774  -23.4800  -55.4969 O.2       18 UNK        -0.5000 
    104 N         -5.7075  -24.6697  -54.0411 N.am      19 UNK        -0.5000 
    105 CA        -4.4608  -24.6054  -54.8113 C.3       19 UNK         0.1400 
    106 CB        -3.5602  -25.7884  -54.4204 C.3       19 UNK        -0.1800 
    107 C         -3.7262  -23.2578  -54.6563 C.2       19 UNK         0.5000 
    108 O         -2.8892  -22.9230  -55.4953 O.2       19 UNK        -0.5000 
    109 N         -4.0623  -22.5080  -53.6021 N.am      20 UNK        -0.5000 
    110 CA        -3.5644  -21.1816  -53.2665 C.3       20 UNK         0.1400 
    111 CB        -2.1237  -21.2586  -52.7243 C.3       20 UNK        -0.1800 
    112 C         -4.5112  -20.5833  -52.2178 C.2       20 UNK         0.5000 
    113 O         -5.2274  -21.3285  -51.5440 O.2       20 UNK        -0.5000 
    114 N         -4.4830  -19.2556  -52.0929 N.am      21 UNK        -0.5000 
    115 CA        -5.2274  -18.4742  -51.1088 C.3       21 UNK         0.1400 
    116 CB        -6.6987  -18.3175  -51.5422 C.3       21 UNK        -0.1800 
    117 C         -4.4888  -17.1377  -50.9297 C.2       21 UNK         0.5000 
    118 O         -5.0492  -16.0716  -51.1869 O.2       21 UNK        -0.5000 
    119 N         -3.2008  -17.2369  -50.5821 N.am      22 UNK        -0.5000 
    120 CA        -2.2132  -16.1467  -50.6636 C.3       22 UNK         0.1400 
    121 C         -2.1549  -15.1882  -49.4372 C.2       22 UNK         0.5000 
    122 N         -3.0193  -15.3243  -48.4426 N.am      22 UNK        -0.7600 
    123 O         -1.3088  -14.3010  -49.3849 O.2       22 UNK        -0.5000 
    124 C124       -0.8182  -16.7232  -51.0217 C.3       23 UNK        -0.0398 
    125 S125        0.0664  -15.7444  -52.2860 S.3       23 UNK        -0.2404 
    126 C126        1.5031  -15.1091  -51.3520 C.3       23 UNK        -0.0205 
    127 H127        5.8268  -13.2198  -44.0810 H         1 UNK         0.0600 
    128 H128        4.5553  -14.3564  -43.6216 H         1 UNK         0.0600 
    129 H129        4.2868  -12.6182  -43.4588 H         1 UNK         0.0600 
    130 H130        6.0067  -13.1208  -46.2954 H         1 UNK         0.3000 
    131 H131        3.9744  -13.9888  -48.1178 H         1 UNK         0.0600 
    132 H132        6.7528  -12.8235  -48.5598 H         1 UNK         0.0800 
    133 H133        5.7402  -13.3737  -49.8578 H         1 UNK         0.0800 
    134 H134        7.0696  -16.7777  -50.2600 H         1 UNK         0.0800 
    135 H135        6.6180  -15.2472  -50.9457 H         1 UNK         0.0800 
    136 H136        4.0648  -14.5666  -50.7607 H         1 UNK         0.1150 
    137 H137        1.4625  -17.9194  -51.3614 H         1 UNK         0.1150 
    138 H138        5.5061  -18.5651  -50.1873 H         1 UNK         0.1150 
    139 H139        2.5374  -20.1417  -51.6390 H         1 UNK         0.0800 
    140 H140        4.1282  -20.4141  -50.9832 H         1 UNK         0.0800 
    141 H141        0.4546  -19.8700  -50.3975 H         1 UNK         0.0800 
    142 H142        0.6367  -18.9796  -48.9007 H         1 UNK         0.0800 
    143 H143       -0.0876  -21.9384  -49.1493 H         1 UNK         0.0600 
    144 H144        0.6045  -20.3853  -46.7932 H         1 UNK         0.3000 
    145 H145       -0.3466  -21.9349  -44.3980 H         1 UNK         0.0600 
    146 H146        1.2980  -23.6505  -43.5669 H         1 UNK         0.0600 
    147 H147        0.0029  -24.3333  -44.5323 H         1 UNK         0.0600 
    148 H148        1.6011  -24.1338  -45.2366 H         1 UNK         0.0600 
    149 H149        1.3115  -20.5236  -44.2221 H         1 UNK         0.3000 
    150 H150        4.5677  -20.4498  -44.5521 H         1 UNK         0.0600 
    151 H151        4.6083  -19.9310  -46.9841 H         1 UNK         0.0600 
    152 H152        4.7404  -18.4561  -46.0407 H         1 UNK         0.0600 
    153 H153        3.2127  -18.8757  -46.8082 H         1 UNK         0.0600 
    154 H154        2.1076  -18.7412  -44.4735 H         1 UNK         0.3000 
    155 H155        2.5800  -18.1618  -40.9993 H         1 UNK         0.0600 
    156 H156        3.8056  -16.2526  -41.9895 H         1 UNK         0.0600 
    157 H157        2.1396  -15.8015  -41.6645 H         1 UNK         0.0600 
    158 H158        2.6534  -16.1537  -43.3127 H         1 UNK         0.0600 
    159 H159        0.4992  -17.3539  -42.7407 H         1 UNK         0.3000 
    160 H160       -1.4855  -20.3404  -42.3810 H         1 UNK         0.0600 
    161 H161       -1.7217  -17.5986  -41.0292 H         1 UNK         0.0600 
    162 H162       -1.7526  -19.1559  -40.2077 H         1 UNK         0.0600 
    163 H163       -3.0459  -18.7263  -41.3170 H         1 UNK         0.0600 
    164 H164       -1.2526  -17.6048  -43.5887 H         1 UNK         0.3000 
    165 H165       -2.3358  -18.8368  -46.7253 H         1 UNK         0.0600 
    166 H166       -3.9201  -17.0211  -46.6109 H         1 UNK         0.0600 
    167 H167       -4.3708  -18.0472  -45.2696 H         1 UNK         0.0600 
    168 H168       -3.4456  -16.5885  -44.9697 H         1 UNK         0.0600 
    169 H169       -1.4351  -16.2968  -46.1479 H         1 UNK         0.3000 
    170 H170        1.9882  -16.5964  -45.5661 H         1 UNK         0.0600 
    171 H171        1.9559  -16.9411  -48.0434 H         1 UNK         0.0600 
    172 H172        0.6574  -15.7597  -48.1908 H         1 UNK         0.0600 
    173 H173        2.2471  -15.2622  -47.6326 H         1 UNK         0.0600 
    174 H174        0.7035  -14.2649  -46.0786 H         1 UNK         0.3000 
    175 H175       -1.4504  -13.6206  -43.4808 H         1 UNK         0.0600 
    176 H176        0.6309  -13.5173  -42.0934 H         1 UNK         0.0600 
    177 H177        1.4900  -12.7498  -43.4230 H         1 UNK         0.0600 
    178 H178        0.1482  -11.9183  -42.6385 H         1 UNK         0.0600 
    179 H179       -0.0139  -11.8346  -45.1751 H         1 UNK         0.3000 
    180 H180       -2.0404  -12.1589  -48.0718 H         1 UNK         0.0600 
    181 H181       -1.9678   -9.9566  -45.9535 H         1 UNK         0.0600 
    182 H182       -3.3984  -10.7511  -46.5890 H         1 UNK         0.0600 
    183 H183       -2.4180   -9.7477  -47.6458 H         1 UNK         0.0600 
    184 H184        0.0033  -11.6629  -48.6345 H         1 UNK         0.3000 
    185 H185        1.7915  -10.3042  -48.9339 H         1 UNK         0.0600 
    186 H186        2.0934   -8.2215  -47.5259 H         1 UNK         0.0600 
    187 H187        3.1077   -9.1334  -46.4129 H         1 UNK         0.0600 
    188 H188        3.6260   -8.8763  -48.0769 H         1 UNK         0.0600 
    189 H189        2.6664  -12.1218  -46.8680 H         1 UNK         0.3000 
    190 H190       -2.1221  -22.0564  -47.5001 H         1 UNK         0.3000 
    191 H191       -4.3287  -21.5587  -49.1350 H         1 UNK         0.0600 
    192 H192       -4.5429  -19.9788  -46.5235 H         1 UNK         0.0600 
    193 H193       -5.7340  -20.0984  -47.8027 H         1 UNK         0.0600 
    194 H194       -4.2473  -19.2068  -48.0805 H         1 UNK         0.0600 
    195 H195       -3.3098  -21.8964  -45.6934 H         1 UNK         0.3000 
    196 H196       -5.2394  -23.7004  -44.8441 H         1 UNK         0.0600 
    197 H197       -3.6343  -24.1497  -42.9721 H         1 UNK         0.0600 
    198 H198       -3.7668  -22.4334  -43.3227 H         1 UNK         0.0600 
    199 H199       -2.3572  -23.3369  -43.8691 H         1 UNK         0.0600 
    200 H200       -1.9604  -24.5104  -46.1472 H         1 UNK         0.3000 
    201 H201       -2.4948  -27.4003  -46.0202 H         1 UNK         0.0600 
    202 H202       -0.2228  -26.5346  -45.5357 H         1 UNK         0.0600 
    203 H203       -0.1285  -25.8054  -47.1397 H         1 UNK         0.0600 
    204 H204       -0.1965  -27.5534  -46.9638 H         1 UNK         0.0600 
    205 H205       -2.9602  -24.8138  -48.2359 H         1 UNK         0.3000 
    206 H206       -3.0129  -26.4290  -50.6893 H         1 UNK         0.0600 
    207 H207       -2.0428  -24.0988  -50.5919 H         1 UNK         0.0600 
    208 H208       -3.3510  -24.2396  -51.7466 H         1 UNK         0.0600 
    209 H209       -3.6444  -23.4704  -50.2028 H         1 UNK         0.0600 
    210 H210       -5.1293  -26.0944  -48.2000 H         1 UNK         0.3000 
    211 H211       -7.2671  -26.4106  -47.7695 H         1 UNK         0.0600 
    212 H212       -7.4733  -27.6592  -50.5631 H         1 UNK         0.0600 
    213 H213       -8.5628  -27.9395  -49.2114 H         1 UNK         0.0600 
    214 H214       -6.9015  -28.4982  -49.1215 H         1 UNK         0.0600 
    215 H215       -6.4858  -23.8868  -48.9809 H         1 UNK         0.3000 
    216 H216       -7.1275  -21.9987  -49.9085 H         1 UNK         0.0600 
    217 H217       -9.4068  -21.1830  -49.4834 H         1 UNK         0.0600 
    218 H218       -8.8399  -22.0859  -48.0893 H         1 UNK         0.0600 
    219 H219       -9.9905  -22.8187  -49.2071 H         1 UNK         0.0600 
    220 H220       -7.0862  -24.4797  -51.6591 H         1 UNK         0.3000 
    221 H221       -8.8660  -23.6283  -53.9140 H         1 UNK         0.0600 
    222 H222       -7.8331  -26.4022  -53.1149 H         1 UNK         0.0600 
    223 H223       -9.4782  -25.8090  -52.9130 H         1 UNK         0.0600 
    224 H224       -8.8218  -26.0419  -54.5270 H         1 UNK         0.0600 
    225 H225       -5.6767  -25.1669  -53.1557 H         1 UNK         0.3000 
    226 H226       -4.6989  -24.7151  -55.8716 H         1 UNK         0.0600 
    227 H227       -4.0383  -26.7376  -54.6623 H         1 UNK         0.0600 
    228 H228       -2.6139  -25.7563  -54.9621 H         1 UNK         0.0600 
    229 H229       -3.3291  -25.7986  -53.3568 H         1 UNK         0.0600 
    230 H230       -4.7904  -22.8325  -52.9775 H         1 UNK         0.3000 
    231 H231       -3.5914  -20.5579  -54.1623 H         1 UNK         0.0600 
    232 H232       -1.4421  -21.6943  -53.4544 H         1 UNK         0.0600 
    233 H233       -2.0683  -21.8573  -51.8155 H         1 UNK         0.0600 
    234 H234       -1.7432  -20.2658  -52.4816 H         1 UNK         0.0600 
    235 H235       -3.8518  -18.7200  -52.6730 H         1 UNK         0.3000 
    236 H236       -5.2051  -18.9928  -50.1511 H         1 UNK         0.0600 
    237 H237       -7.2556  -17.7162  -50.8228 H         1 UNK         0.0600 
    238 H238       -6.7807  -17.8312  -52.5148 H         1 UNK         0.0600 
    239 H239       -7.1978  -19.2846  -51.6088 H         1 UNK         0.0600 
    240 H240       -2.8321  -18.1517  -50.3292 H         1 UNK         0.3000 
    241 H241       -2.5295  -15.5091  -51.4913 H         1 UNK         0.0600 
    242 H242       -2.9534  -14.7012  -47.6441 H         1 UNK         0.3800 
    243 H243       -3.7512  -16.0117  -48.4954 H         1 UNK         0.3800 
    244 H244       -0.2049  -16.8528  -50.1294 H         1 UNK         0.0800 
    245 H245       -0.9182  -17.7242  -51.4445 H         1 UNK         0.0800 
    246 H246        1.9184  -14.2792  -51.9256 H         1 UNK         0.0800 
    247 H247        1.1603  -14.6831  -50.4087 H         1 UNK         0.0800 
@<TRIPOS>BOND
     1    1    2 1    
     2    1  127 1    
     3    1  128 1    
     4    1  129 1    
     5    2    3 2    
     6    2    4 am   BACKBONE|DICT|INTERRES
     7    4    5 1    
     8    4  130 1    
     9    5    6 1    
    10    5   65 1    
    11    5  131 1    
    12    6    7 1    
    13    6  132 1    
    14    6  133 1    
    15    7    8 1    
    16    8    9 1    
    17    8  134 1    
    18    8  135 1    
    19    9   10 ar   
    20    9   14 ar   
    21   10   11 ar   
    22   10  136 1    
    23   11   12 ar   
    24   11  126 1    
    25   12   13 ar   
    26   12  137 1    
    27   13   14 ar   
    28   13   15 1    
    29   14  138 1    
    30   15   16 1    
    31   15  139 1    
    32   15  140 1    
    33   16   17 1    
    34   17   18 1    
    35   17  141 1    
    36   17  142 1    
    37   18   19 1    
    38   18   67 1    
    39   18  143 1    
    40   19   20 am   BACKBONE|DICT|INTERRES
    41   19  144 1    
    42   20   21 2    
    43   20   22 1    
    44   22   23 1    
    45   22   24 1    
    46   22  145 1    
    47   23  146 1    
    48   23  147 1    
    49   23  148 1    
    50   24   25 am   BACKBONE|DICT|INTERRES
    51   24  149 1    
    52   25   26 2    
    53   25   27 1    
    54   27   28 1    
    55   27   29 1    
    56   27  150 1    
    57   28  151 1    
    58   28  152 1    
    59   28  153 1    
    60   29   30 am   BACKBONE|DICT|INTERRES
    61   29  154 1    
    62   30   31 2    
    63   30   32 1    
    64   32   33 1    
    65   32   34 1    
    66   32  155 1    
    67   33  156 1    
    68   33  157 1    
    69   33  158 1    
    70   34   35 am   BACKBONE|DICT|INTERRES
    71   34  159 1    
    72   35   36 2    
    73   35   37 1    
    74   37   38 1    
    75   37   39 1    
    76   37  160 1    
    77   38  161 1    
    78   38  162 1    
    79   38  163 1    
    80   39   40 am   BACKBONE|DICT|INTERRES
    81   39  164 1    
    82   40   41 2    
    83   40   42 1    
    84   42   43 1    
    85   42   44 1    
    86   42  165 1    
    87   43  166 1    
    88   43  167 1    
    89   43  168 1    
    90   44   45 am   BACKBONE|DICT|INTERRES
    91   44  169 1    
    92   45   46 2    
    93   45   47 1    
    94   47   48 1    
    95   47   49 1    
    96   47  170 1    
    97   48  171 1    
    98   48  172 1    
    99   48  173 1    
   100   49   50 am   BACKBONE|DICT|INTERRES
   101   49  174 1    
   102   50   51 2    
   103   50   52 1    
   104   52   53 1    
   105   52   54 1    
   106   52  175 1    
   107   53  176 1    
   108   53  177 1    
   109   53  178 1    
   110   54   55 am   BACKBONE|DICT|INTERRES
   111   54  179 1    
   112   55   56 2    
   113   55   57 1    
   114   57   58 1    
   115   57   59 1    
   116   57  180 1    
   117   58  181 1    
   118   58  182 1    
   119   58  183 1    
   120   59   60 am   BACKBONE|DICT|INTERRES
   121   59  184 1    
   122   60   61 2    
   123   60   62 1    
   124   62   63 1    
   125   62   64 1    
   126   62  185 1    
   127   63  186 1    
   128   63  187 1    
   129   63  188 1    
   130   64   65 am   BACKBONE|DICT|INTERRES
   131   64  189 1    
   132   65   66 2    
   133   67   68 2    
   134   67   69 am   BACKBONE|DICT|INTERRES
   135   69   70 1    
   136   69  190 1    
   137   70   71 1    
   138   70   72 1    
   139   70  191 1    
   140   71  192 1    
   141   71  193 1    
   142   71  194 1    
   143   72   73 2    
   144   72   74 am   BACKBONE|DICT|INTERRES
   145   74   75 1    
   146   74  195 1    
   147   75   76 1    
   148   75   77 1    
   149   75  196 1    
   150   76  197 1    
   151   76  198 1    
   152   76  199 1    
   153   77   78 2    
   154   77   79 am   BACKBONE|DICT|INTERRES
   155   79   80 1    
   156   79  200 1    
   157   80   81 1    
   158   80   82 1    
   159   80  201 1    
   160   81  202 1    
   161   81  203 1    
   162   81  204 1    
   163   82   83 2    
   164   82   84 am   BACKBONE|DICT|INTERRES
   165   84   85 1    
   166   84  205 1    
   167   85   86 1    
   168   85   87 1    
   169   85  206 1    
   170   86  207 1    
   171   86  208 1    
   172   86  209 1    
   173   87   88 2    
   174   87   89 am   BACKBONE|DICT|INTERRES
   175   89   90 1    
   176   89  210 1    
   177   90   91 1    
   178   90   92 1    
   179   90  211 1    
   180   91  212 1    
   181   91  213 1    
   182   91  214 1    
   183   92   93 2    
   184   92   94 am   BACKBONE|DICT|INTERRES
   185   94   95 1    
   186   94  215 1    
   187   95   96 1    
   188   95   97 1    
   189   95  216 1    
   190   96  217 1    
   191   96  218 1    
   192   96  219 1    
   193   97   98 2    
   194   97   99 am   BACKBONE|DICT|INTERRES
   195   99  100 1    
   196   99  220 1    
   197  100  101 1    
   198  100  102 1    
   199  100  221 1    
   200  101  222 1    
   201  101  223 1    
   202  101  224 1    
   203  102  103 2    
   204  102  104 am   BACKBONE|DICT|INTERRES
   205  104  105 1    
   206  104  225 1    
   207  105  106 1    
   208  105  107 1    
   209  105  226 1    
   210  106  227 1    
   211  106  228 1    
   212  106  229 1    
   213  107  108 2    
   214  107  109 am   BACKBONE|DICT|INTERRES
   215  109  110 1    
   216  109  230 1    
   217  110  111 1    
   218  110  112 1    
   219  110  231 1    
   220  111  232 1    
   221  111  233 1    
   222  111  234 1    
   223  112  113 2    
   224  112  114 am   BACKBONE|DICT|INTERRES
   225  114  115 1    
   226  114  235 1    
   227  115  116 1    
   228  115  117 1    
   229  115  236 1    
   230  116  237 1    
   231  116  238 1    
   232  116  239 1    
   233  117  118 2    
   234  117  119 am   BACKBONE|DICT|INTERRES
   235  119  120 1    
   236  119  240 1    
   237  120  121 1    
   238  120  124 1    
   239  120  241 1    
   240  121  122 am   BACKBONE|DICT|INTERRES
   241  121  123 2    
   242  122  242 1    
   243  122  243 1    
   244  124  125 1    
   245  124  244 1    
   246  124  245 1    
   247  125  126 1    
   248  126  246 1    
   249  126  247 1    
@<TRIPOS>SUBSTRUCTURE
     1 UNK         1 GROUP             0       ****    0 ROOT    
