@<TRIPOS>MOLECULE
3R540
247   249    1
SMALL
USER_CHARGES


@<TRIPOS>ATOM
      1 CA         -1.8601  -11.4010  -50.6308 C.3       0 UNK        -0.1800 
      2 C          -0.5384  -12.1020  -50.3497 C.2       0 UNK         0.5000 
      3 O           0.4183  -11.4586  -49.9157 O.2       0 UNK        -0.5000 
      4 N          -0.4823  -13.4167  -50.5978 N.am      1 UNK        -0.5000 
      5 CA          0.6747  -14.2713  -50.3198 C.3       1 UNK         0.1400 
      6 C6          0.5151  -15.6661  -50.9696 C.3       23 UNK        -0.0398 
      7 S7          2.1297  -16.4471  -51.3064 S.3       23 UNK        -0.2404 
      8 C8          1.6262  -17.8829  -52.2982 C.3       23 UNK        -0.0205 
      9 C9          1.0119  -18.9765  -51.4393 C.ar      23 UNK        -0.0193 
     10 C10        -0.3613  -18.9870  -51.1717 C.ar      23 UNK        -0.1150 
     11 C11        -0.9229  -20.0029  -50.3950 C.ar      23 UNK        -0.0193 
     12 C12        -0.1071  -21.0276  -49.9106 C.ar      23 UNK        -0.1150 
     13 C13         1.2673  -21.0260  -50.1665 C.ar      23 UNK        -0.0193 
     14 C14         1.8208  -19.9964  -50.9302 C.ar      23 UNK        -0.1150 
     15 C15         2.1514  -22.1452  -49.6366 C.3       23 UNK        -0.0205 
     16 S16         3.0735  -21.6872  -48.1324 S.3       23 UNK        -0.2404 
     17 C17         1.7412  -21.3843  -46.9231 C.3       23 UNK        -0.0398 
     18 CA          1.3450  -22.6247  -46.0826 C.3       11 UNK         0.1400 
     19 N           0.6857  -22.2266  -44.8370 N.am      11 UNK        -0.5000 
     20 C           0.4254  -23.0395  -43.8048 C.2       10 UNK         0.5000 
     21 O           0.8105  -24.2063  -43.7413 O.2       10 UNK        -0.5000 
     22 CA         -0.4493  -22.4645  -42.6731 C.3       10 UNK         0.1400 
     23 CB          0.4064  -21.7169  -41.6397 C.3       10 UNK        -0.1800 
     24 N          -1.5041  -21.5794  -43.1737 N.am      10 UNK        -0.5000 
     25 C          -2.5274  -21.9862  -43.9394 C.2       9 UNK         0.5000 
     26 O          -2.7294  -23.1644  -44.2348 O.2       9 UNK        -0.5000 
     27 CA         -3.4507  -20.8929  -44.5106 C.3       9 UNK         0.1400 
     28 CB         -4.5348  -20.5056  -43.4949 C.3       9 UNK        -0.1800 
     29 N          -2.7220  -19.6966  -44.9382 N.am      9 UNK        -0.5000 
     30 C          -1.8246  -19.6721  -45.9332 C.2       8 UNK         0.5000 
     31 O          -1.5495  -20.6540  -46.6162 O.2       8 UNK        -0.5000 
     32 CA         -1.0664  -18.3560  -46.1779 C.3       8 UNK         0.1400 
     33 CB         -1.9061  -17.3798  -47.0092 C.3       8 UNK        -0.1800 
     34 N          -0.6528  -17.7154  -44.9317 N.am      8 UNK        -0.5000 
     35 C           0.2197  -18.2482  -44.0648 C.2       7 UNK         0.5000 
     36 O           0.8089  -19.3118  -44.2563 O.2       7 UNK        -0.5000 
     37 CA          0.4192  -17.4980  -42.7373 C.3       7 UNK         0.1400 
     38 CB          1.4220  -16.3457  -42.8903 C.3       7 UNK        -0.1800 
     39 N          -0.8453  -16.9830  -42.2141 N.am      7 UNK        -0.5000 
     40 C          -1.8250  -17.7533  -41.7206 C.2       6 UNK         0.5000 
     41 O          -1.7454  -18.9774  -41.6146 O.2       6 UNK        -0.5000 
     42 CA         -3.1262  -17.0341  -41.3189 C.3       6 UNK         0.1400 
     43 CB         -3.0043  -16.4393  -39.9081 C.3       6 UNK        -0.1800 
     44 N          -3.4958  -15.9766  -42.2625 N.am      6 UNK        -0.5000 
     45 C          -3.8678  -16.1969  -43.5315 C.2       5 UNK         0.5000 
     46 O          -3.9732  -17.3175  -44.0235 O.2       5 UNK        -0.5000 
     47 CA         -4.1146  -14.9618  -44.4157 C.3       5 UNK         0.1400 
     48 CB         -5.5762  -14.5033  -44.3150 C.3       5 UNK        -0.1800 
     49 N          -3.2235  -13.8431  -44.0997 N.am      5 UNK        -0.5000 
     50 C          -1.8952  -13.8687  -44.2664 C.2       4 UNK         0.5000 
     51 O          -1.2746  -14.8456  -44.6927 O.2       4 UNK        -0.5000 
     52 CA         -1.1288  -12.6190  -43.8255 C.3       4 UNK         0.1400 
     53 CB         -0.6117  -12.7929  -42.3846 C.3       4 UNK        -0.1800 
     54 N          -0.0204  -12.3999  -44.7468 N.am      4 UNK        -0.5000 
     55 C           0.6837  -11.2676  -44.8614 C.2       3 UNK         0.5000 
     56 O           0.4525  -10.2638  -44.1846 O.2       3 UNK        -0.5000 
     57 CA          1.8094  -11.2109  -45.9191 C.3       3 UNK         0.1400 
     58 CB          3.1098  -10.6085  -45.3475 C.3       3 UNK        -0.1800 
     59 N           2.0795  -12.4767  -46.6113 N.am      3 UNK        -0.5000 
     60 C           2.5709  -13.6196  -46.1091 C.2       2 UNK         0.5000 
     61 O           2.8962  -13.7618  -44.9305 O.2       2 UNK        -0.5000 
     62 CA          2.7443  -14.8042  -47.0876 C.3       2 UNK         0.1400 
     63 CB          2.1799  -16.1162  -46.5071 C.3       2 UNK        -0.1800 
     64 N           2.2165  -14.5771  -48.4411 N.am      2 UNK        -0.5000 
     65 C           0.9383  -14.3947  -48.8027 C.2       1 UNK         0.5000 
     66 O           0.0007  -14.3237  -48.0061 O.2       1 UNK        -0.5000 
     67 C           0.4709  -23.6230  -46.8769 C.2       11 UNK         0.5000 
     68 O           0.9615  -24.6766  -47.2847 O.2       11 UNK        -0.5000 
     69 N          -0.8217  -23.3002  -47.0389 N.am      12 UNK        -0.5000 
     70 CA         -1.8174  -24.0886  -47.7720 C.3       12 UNK         0.1400 
     71 CB         -3.1511  -23.3300  -47.8157 C.3       12 UNK        -0.1800 
     72 C          -2.0350  -25.5070  -47.2176 C.2       12 UNK         0.5000 
     73 O          -2.3931  -26.4043  -47.9807 O.2       12 UNK        -0.5000 
     74 N          -1.7879  -25.6907  -45.9134 N.am      13 UNK        -0.5000 
     75 CA         -1.8041  -26.9847  -45.2331 C.3       13 UNK         0.1400 
     76 CB         -1.6941  -26.7615  -43.7175 C.3       13 UNK        -0.1800 
     77 C          -0.7065  -27.9508  -45.7265 C.2       13 UNK         0.5000 
     78 O          -0.9013  -29.1641  -45.6400 O.2       13 UNK        -0.5000 
     79 N           0.4077  -27.4145  -46.2490 N.am      14 UNK        -0.5000 
     80 CA          1.4377  -28.1890  -46.9394 C.3       14 UNK         0.1400 
     81 CB          2.7984  -27.4799  -46.8347 C.3       14 UNK        -0.1800 
     82 C           1.0273  -28.4223  -48.4031 C.2       14 UNK         0.5000 
     83 O           0.9375  -29.5741  -48.8304 O.2       14 UNK        -0.5000 
     84 N           0.7452  -27.3320  -49.1275 N.am      15 UNK        -0.5000 
     85 CA          0.2312  -27.3301  -50.4957 C.3       15 UNK         0.1400 
     86 CB          1.3168  -27.7742  -51.4954 C.3       15 UNK        -0.1800 
     87 C          -0.2573  -25.9164  -50.8317 C.2       15 UNK         0.5000 
     88 O           0.4378  -24.9516  -50.5170 O.2       15 UNK        -0.5000 
     89 N          -1.4300  -25.8090  -51.4647 N.am      16 UNK        -0.5000 
     90 CA         -2.0122  -24.5401  -51.9062 C.3       16 UNK         0.1400 
     91 CB         -3.5178  -24.7467  -52.1367 C.3       16 UNK        -0.1800 
     92 C          -1.3348  -24.0011  -53.1818 C.2       16 UNK         0.5000 
     93 O          -0.7574  -24.7762  -53.9493 O.2       16 UNK        -0.5000 
     94 N          -1.4571  -22.6876  -53.3988 N.am      17 UNK        -0.5000 
     95 CA         -0.9715  -21.9779  -54.5795 C.3       17 UNK         0.1400 
     96 CB          0.3830  -21.3156  -54.2674 C.3       17 UNK        -0.1800 
     97 C          -2.0687  -21.0076  -55.0504 C.2       17 UNK         0.5000 
     98 O          -3.1124  -21.4759  -55.5072 O.2       17 UNK        -0.5000 
     99 N          -1.8434  -19.6935  -54.9307 N.am      18 UNK        -0.5000 
    100 CA        -2.7810  -18.6381  -55.3101 C.3       18 UNK         0.1400 
    101 CB        -2.5956  -18.2919  -56.7976 C.3       18 UNK        -0.1800 
    102 C         -2.5513  -17.4040  -54.4247 C.2       18 UNK         0.5000 
    103 O         -1.4419  -17.2220  -53.9219 O.2       18 UNK        -0.5000 
    104 N         -3.6014  -16.5840  -54.2792 N.am      19 UNK        -0.5000 
    105 CA        -3.7075  -15.3684  -53.4590 C.3       19 UNK         0.1400 
    106 CB        -2.6006  -14.3479  -53.7976 C.3       19 UNK        -0.1800 
    107 C         -3.7858  -15.6441  -51.9428 C.2       19 UNK         0.5000 
    108 O         -3.4513  -16.7357  -51.4765 O.2       19 UNK        -0.5000 
    109 N         -4.2693  -14.6366  -51.1988 N.am      20 UNK        -0.5000 
    110 CA        -4.6020  -14.6793  -49.7687 C.3       20 UNK         0.1400 
    111 CB        -3.3227  -14.7356  -48.9046 C.3       20 UNK        -0.1800 
    112 C         -5.6250  -15.7971  -49.4730 C.2       20 UNK         0.5000 
    113 O         -6.6965  -15.7994  -50.0830 O.2       20 UNK        -0.5000 
    114 N         -5.2712  -16.7517  -48.6008 N.am      21 UNK        -0.5000 
    115 CA        -6.0746  -17.9358  -48.2724 C.3       21 UNK         0.1400 
    116 CB        -5.3885  -18.7047  -47.1330 C.3       21 UNK        -0.1800 
    117 C         -6.3250  -18.8762  -49.4709 C.2       21 UNK         0.5000 
    118 O         -7.2840  -19.6481  -49.4426 O.2       21 UNK        -0.5000 
    119 N         -5.4714  -18.7820  -50.4964 N.am      22 UNK        -0.5000 
    120 CA        -5.5664  -19.5163  -51.7636 C.3       22 UNK         0.1400 
    121 C         -6.2708  -18.6944  -52.8850 C.2       22 UNK         0.5000 
    122 N         -6.8127  -17.5100  -52.6188 N.am      22 UNK        -0.7600 
    123 O         -6.3348  -19.1395  -54.0268 O.2       22 UNK        -0.5000 
    124 C124       -4.1754  -20.0291  -52.2200 C.3       23 UNK        -0.0398 
    125 S125       -3.3867  -21.1418  -51.0108 S.3       23 UNK        -0.2404 
    126 C126       -2.3967  -19.9714  -50.0299 C.3       23 UNK        -0.0205 
    127 H127       -1.7105  -10.5881  -51.3414 H         1 UNK         0.0600 
    128 H128       -2.2638  -10.9810  -49.7094 H         1 UNK         0.0600 
    129 H129       -2.6017  -12.0833  -51.0464 H         1 UNK         0.0600 
    130 H130       -1.3129  -13.8943  -50.9120 H         1 UNK         0.3000 
    131 H131        1.5346  -13.7731  -50.7738 H         1 UNK         0.0600 
    132 H132       -0.0989  -16.3229  -50.3506 H         1 UNK         0.0800 
    133 H133       -0.0039  -15.5808  -51.9252 H         1 UNK         0.0800 
    134 H134        0.9336  -17.5713  -53.0789 H         1 UNK         0.0800 
    135 H135        2.5032  -18.2722  -52.8173 H         1 UNK         0.0800 
    136 H136       -0.9922  -18.1980  -51.5561 H         1 UNK         0.1150 
    137 H137       -0.5438  -21.8176  -49.3181 H         1 UNK         0.1150 
    138 H138        2.8825  -19.9932  -51.1330 H         1 UNK         0.1150 
    139 H139        1.5552  -23.0296  -49.4284 H         1 UNK         0.0800 
    140 H140        2.8618  -22.4409  -50.4098 H         1 UNK         0.0800 
    141 H141        2.1254  -20.6104  -46.2574 H         1 UNK         0.0800 
    142 H142        0.8794  -20.9316  -47.4085 H         1 UNK         0.0800 
    143 H143        2.2618  -23.1467  -45.8000 H         1 UNK         0.0600 
    144 H144        0.3834  -21.2605  -44.7741 H         1 UNK         0.3000 
    145 H145       -0.9302  -23.3051  -42.1685 H         1 UNK         0.0600 
    146 H146       -0.2028  -21.3571  -40.8103 H         1 UNK         0.0600 
    147 H147        1.1723  -22.3713  -41.2219 H         1 UNK         0.0600 
    148 H148        0.9132  -20.8577  -42.0785 H         1 UNK         0.0600 
    149 H149       -1.4363  -20.5981  -42.9275 H         1 UNK         0.3000 
    150 H150       -3.9485  -21.3062  -45.3897 H         1 UNK         0.0600 
    151 H151       -5.0985  -21.3814  -43.1714 H         1 UNK         0.0600 
    152 H152       -5.2465  -19.8032  -43.9290 H         1 UNK         0.0600 
    153 H153       -4.1069  -20.0420  -42.6059 H         1 UNK         0.0600 
    154 H154       -2.9555  -18.8289  -44.4624 H         1 UNK         0.3000 
    155 H155       -0.1641  -18.5910  -46.7466 H         1 UNK         0.0600 
    156 H156       -1.3591  -16.4559  -47.1935 H         1 UNK         0.0600 
    157 H157       -2.8367  -17.1212  -46.5066 H         1 UNK         0.0600 
    158 H158       -2.1567  -17.8091  -47.9790 H         1 UNK         0.0600 
    159 H159       -1.0493  -16.8023  -44.7308 H         1 UNK         0.3000 
    160 H160        0.8262  -18.2054  -42.0114 H         1 UNK         0.0600 
    161 H161        1.0877  -15.6087  -43.6209 H         1 UNK         0.0600 
    162 H162        2.3926  -16.7175  -43.2197 H         1 UNK         0.0600 
    163 H163        1.5792  -15.8300  -41.9431 H         1 UNK         0.0600 
    164 H164       -1.0090  -15.9929  -42.3138 H         1 UNK         0.3000 
    165 H165       -3.9272  -17.7764  -41.3087 H         1 UNK         0.0600 
    166 H166       -2.2348  -15.6678  -39.8592 H         1 UNK         0.0600 
    167 H167       -3.9461  -15.9955  -39.5850 H         1 UNK         0.0600 
    168 H168       -2.7434  -17.2101  -39.1815 H         1 UNK         0.0600 
    169 H169       -3.4385  -15.0247  -41.9328 H         1 UNK         0.3000 
    170 H170       -3.9259  -15.2565  -45.4492 H         1 UNK         0.0600 
    171 H171       -6.2576  -15.3164  -44.5698 H         1 UNK         0.0600 
    172 H172       -5.8261  -14.1683  -43.3076 H         1 UNK         0.0600 
    173 H173       -5.7805  -13.6830  -45.0033 H         1 UNK         0.0600 
    174 H174       -3.6594  -13.0092  -43.7327 H         1 UNK         0.3000 
    175 H175       -1.8010  -11.7597  -43.8715 H         1 UNK         0.0600 
    176 H176       -0.1268  -11.8865  -42.0224 H         1 UNK         0.0600 
    177 H177       -1.4284  -13.0157  -41.6969 H         1 UNK         0.0600 
    178 H178        0.1111  -13.6063  -42.3139 H         1 UNK         0.0600 
    179 H179        0.1924  -13.1858  -45.3498 H         1 UNK         0.3000 
    180 H180        1.4491  -10.5304  -46.6919 H         1 UNK         0.0600 
    181 H181        3.8873  -10.5521  -46.1092 H         1 UNK         0.0600 
    182 H182        2.9441   -9.5949  -44.9809 H         1 UNK         0.0600 
    183 H183        3.4971  -11.1949  -44.5139 H         1 UNK         0.0600 
    184 H184        1.8130  -12.4907  -47.5862 H         1 UNK         0.3000 
    185 H185        3.8204  -14.9361  -47.2077 H         1 UNK         0.0600 
    186 H186        2.2737  -16.9398  -47.2152 H         1 UNK         0.0600 
    187 H187        2.7156  -16.4058  -45.6035 H         1 UNK         0.0600 
    188 H188        1.1264  -16.0160  -46.2465 H         1 UNK         0.0600 
    189 H189        2.9106  -14.6131  -49.1754 H         1 UNK         0.3000 
    190 H190       -1.1356  -22.3904  -46.7043 H         1 UNK         0.3000 
    191 H191       -1.4542  -24.1870  -48.7936 H         1 UNK         0.0600 
    192 H192       -3.8734  -23.8485  -48.4473 H         1 UNK         0.0600 
    193 H193       -3.0264  -22.3298  -48.2242 H         1 UNK         0.0600 
    194 H194       -3.5916  -23.2342  -46.8238 H         1 UNK         0.0600 
    195 H195       -1.5509  -24.8813  -45.3541 H         1 UNK         0.3000 
    196 H196       -2.7693  -27.4524  -45.4377 H         1 UNK         0.0600 
    197 H197       -1.7965  -27.7034  -43.1774 H         1 UNK         0.0600 
    198 H198       -2.4759  -26.0922  -43.3574 H         1 UNK         0.0600 
    199 H199       -0.7310  -26.3316  -43.4433 H         1 UNK         0.0600 
    200 H200        0.4790  -26.4054  -46.3260 H         1 UNK         0.3000 
    201 H201        1.5402  -29.1631  -46.4560 H         1 UNK         0.0600 
    202 H202        3.0778  -27.3181  -45.7936 H         1 UNK         0.0600 
    203 H203        2.8014  -26.5118  -47.3349 H         1 UNK         0.0600 
    204 H204        3.5833  -28.0831  -47.2923 H         1 UNK         0.0600 
    205 H205        0.8379  -26.4125  -48.7063 H         1 UNK         0.3000 
    206 H206       -0.6149  -28.0185  -50.5493 H         1 UNK         0.0600 
    207 H207        1.6206  -28.8075  -51.3295 H         1 UNK         0.0600 
    208 H208        0.9518  -27.7076  -52.5211 H         1 UNK         0.0600 
    209 H209        2.2064  -27.1473  -51.4225 H         1 UNK         0.0600 
    210 H210       -1.9287  -26.6463  -51.7272 H         1 UNK         0.3000 
    211 H211       -1.8822  -23.8007  -51.1136 H         1 UNK         0.0600 
    212 H212       -3.7082  -25.4991  -52.9030 H         1 UNK         0.0600 
    213 H213       -3.9986  -23.8227  -52.4601 H         1 UNK         0.0600 
    214 H214       -4.0151  -25.0649  -51.2200 H         1 UNK         0.0600 
    215 H215       -1.9806  -22.1289  -52.7367 H         1 UNK         0.3000 
    216 H216       -0.8197  -22.6800  -55.4019 H         1 UNK         0.0600 
    217 H217        0.7663  -20.7686  -55.1296 H         1 UNK         0.0600 
    218 H218        1.1302  -22.0630  -54.0002 H         1 UNK         0.0600 
    219 H219        0.3040  -20.6211  -53.4351 H         1 UNK         0.0600 
    220 H220       -0.9942  -19.3591  -54.4930 H         1 UNK         0.3000 
    221 H221       -3.8032  -18.9853  -55.1478 H         1 UNK         0.0600 
    222 H222       -1.5811  -17.9492  -57.0048 H         1 UNK         0.0600 
    223 H223       -2.7937  -19.1558  -57.4322 H         1 UNK         0.0600 
    224 H224       -3.2801  -17.5006  -57.1052 H         1 UNK         0.0600 
    225 H225       -4.4644  -16.8549  -54.7296 H         1 UNK         0.3000 
    226 H226       -4.6621  -14.9215  -53.7409 H         1 UNK         0.0600 
    227 H227       -2.5425  -14.1729  -54.8718 H         1 UNK         0.0600 
    228 H228       -2.7955  -13.3845  -53.3259 H         1 UNK         0.0600 
    229 H229       -1.6187  -14.6778  -53.4600 H         1 UNK         0.0600 
    230 H230       -4.5643  -13.7967  -51.6763 H         1 UNK         0.3000 
    231 H231       -5.1114  -13.7429  -49.5366 H         1 UNK         0.0600 
    232 H232       -3.5562  -14.7932  -47.8413 H         1 UNK         0.0600 
    233 H233       -2.7314  -13.8314  -49.0341 H         1 UNK         0.0600 
    234 H234       -2.6866  -15.5834  -49.1586 H         1 UNK         0.0600 
    235 H235       -4.3633  -16.6882  -48.1674 H         1 UNK         0.3000 
    236 H236       -7.0478  -17.5903  -47.9178 H         1 UNK         0.0600 
    237 H237       -5.2480  -18.0733  -46.2563 H         1 UNK         0.0600 
    238 H238       -5.9886  -19.5599  -46.8199 H         1 UNK         0.0600 
    239 H239       -4.4141  -19.0870  -47.4374 H         1 UNK         0.0600 
    240 H240       -4.7406  -18.0810  -50.4647 H         1 UNK         0.3000 
    241 H241       -6.1963  -20.3949  -51.6150 H         1 UNK         0.0600 
    242 H242       -6.7895  -17.1170  -51.6852 H         1 UNK         0.3800 
    243 H243       -7.2896  -17.0128  -53.3535 H         1 UNK         0.3800 
    244 H244       -4.2759  -20.5904  -53.1492 H         1 UNK         0.0800 
    245 H245       -3.5025  -19.1995  -52.4300 H         1 UNK         0.0800 
    246 H246       -2.5104  -20.2199  -48.9767 H         1 UNK         0.0800 
    247 H247       -2.7846  -18.9587  -50.1316 H         1 UNK         0.0800 
@<TRIPOS>BOND
     1    1    2 1    
     2    1  127 1    
     3    1  128 1    
     4    1  129 1    
     5    2    3 2    
     6    2    4 am   BACKBONE|DICT|INTERRES
     7    4    5 1    
     8    4  130 1    
     9    5    6 1    
    10    5   65 1    
    11    5  131 1    
    12    6    7 1    
    13    6  132 1    
    14    6  133 1    
    15    7    8 1    
    16    8    9 1    
    17    8  134 1    
    18    8  135 1    
    19    9   10 ar   
    20    9   14 ar   
    21   10   11 ar   
    22   10  136 1    
    23   11   12 ar   
    24   11  126 1    
    25   12   13 ar   
    26   12  137 1    
    27   13   14 ar   
    28   13   15 1    
    29   14  138 1    
    30   15   16 1    
    31   15  139 1    
    32   15  140 1    
    33   16   17 1    
    34   17   18 1    
    35   17  141 1    
    36   17  142 1    
    37   18   19 1    
    38   18   67 1    
    39   18  143 1    
    40   19   20 am   BACKBONE|DICT|INTERRES
    41   19  144 1    
    42   20   21 2    
    43   20   22 1    
    44   22   23 1    
    45   22   24 1    
    46   22  145 1    
    47   23  146 1    
    48   23  147 1    
    49   23  148 1    
    50   24   25 am   BACKBONE|DICT|INTERRES
    51   24  149 1    
    52   25   26 2    
    53   25   27 1    
    54   27   28 1    
    55   27   29 1    
    56   27  150 1    
    57   28  151 1    
    58   28  152 1    
    59   28  153 1    
    60   29   30 am   BACKBONE|DICT|INTERRES
    61   29  154 1    
    62   30   31 2    
    63   30   32 1    
    64   32   33 1    
    65   32   34 1    
    66   32  155 1    
    67   33  156 1    
    68   33  157 1    
    69   33  158 1    
    70   34   35 am   BACKBONE|DICT|INTERRES
    71   34  159 1    
    72   35   36 2    
    73   35   37 1    
    74   37   38 1    
    75   37   39 1    
    76   37  160 1    
    77   38  161 1    
    78   38  162 1    
    79   38  163 1    
    80   39   40 am   BACKBONE|DICT|INTERRES
    81   39  164 1    
    82   40   41 2    
    83   40   42 1    
    84   42   43 1    
    85   42   44 1    
    86   42  165 1    
    87   43  166 1    
    88   43  167 1    
    89   43  168 1    
    90   44   45 am   BACKBONE|DICT|INTERRES
    91   44  169 1    
    92   45   46 2    
    93   45   47 1    
    94   47   48 1    
    95   47   49 1    
    96   47  170 1    
    97   48  171 1    
    98   48  172 1    
    99   48  173 1    
   100   49   50 am   BACKBONE|DICT|INTERRES
   101   49  174 1    
   102   50   51 2    
   103   50   52 1    
   104   52   53 1    
   105   52   54 1    
   106   52  175 1    
   107   53  176 1    
   108   53  177 1    
   109   53  178 1    
   110   54   55 am   BACKBONE|DICT|INTERRES
   111   54  179 1    
   112   55   56 2    
   113   55   57 1    
   114   57   58 1    
   115   57   59 1    
   116   57  180 1    
   117   58  181 1    
   118   58  182 1    
   119   58  183 1    
   120   59   60 am   BACKBONE|DICT|INTERRES
   121   59  184 1    
   122   60   61 2    
   123   60   62 1    
   124   62   63 1    
   125   62   64 1    
   126   62  185 1    
   127   63  186 1    
   128   63  187 1    
   129   63  188 1    
   130   64   65 am   BACKBONE|DICT|INTERRES
   131   64  189 1    
   132   65   66 2    
   133   67   68 2    
   134   67   69 am   BACKBONE|DICT|INTERRES
   135   69   70 1    
   136   69  190 1    
   137   70   71 1    
   138   70   72 1    
   139   70  191 1    
   140   71  192 1    
   141   71  193 1    
   142   71  194 1    
   143   72   73 2    
   144   72   74 am   BACKBONE|DICT|INTERRES
   145   74   75 1    
   146   74  195 1    
   147   75   76 1    
   148   75   77 1    
   149   75  196 1    
   150   76  197 1    
   151   76  198 1    
   152   76  199 1    
   153   77   78 2    
   154   77   79 am   BACKBONE|DICT|INTERRES
   155   79   80 1    
   156   79  200 1    
   157   80   81 1    
   158   80   82 1    
   159   80  201 1    
   160   81  202 1    
   161   81  203 1    
   162   81  204 1    
   163   82   83 2    
   164   82   84 am   BACKBONE|DICT|INTERRES
   165   84   85 1    
   166   84  205 1    
   167   85   86 1    
   168   85   87 1    
   169   85  206 1    
   170   86  207 1    
   171   86  208 1    
   172   86  209 1    
   173   87   88 2    
   174   87   89 am   BACKBONE|DICT|INTERRES
   175   89   90 1    
   176   89  210 1    
   177   90   91 1    
   178   90   92 1    
   179   90  211 1    
   180   91  212 1    
   181   91  213 1    
   182   91  214 1    
   183   92   93 2    
   184   92   94 am   BACKBONE|DICT|INTERRES
   185   94   95 1    
   186   94  215 1    
   187   95   96 1    
   188   95   97 1    
   189   95  216 1    
   190   96  217 1    
   191   96  218 1    
   192   96  219 1    
   193   97   98 2    
   194   97   99 am   BACKBONE|DICT|INTERRES
   195   99  100 1    
   196   99  220 1    
   197  100  101 1    
   198  100  102 1    
   199  100  221 1    
   200  101  222 1    
   201  101  223 1    
   202  101  224 1    
   203  102  103 2    
   204  102  104 am   BACKBONE|DICT|INTERRES
   205  104  105 1    
   206  104  225 1    
   207  105  106 1    
   208  105  107 1    
   209  105  226 1    
   210  106  227 1    
   211  106  228 1    
   212  106  229 1    
   213  107  108 2    
   214  107  109 am   BACKBONE|DICT|INTERRES
   215  109  110 1    
   216  109  230 1    
   217  110  111 1    
   218  110  112 1    
   219  110  231 1    
   220  111  232 1    
   221  111  233 1    
   222  111  234 1    
   223  112  113 2    
   224  112  114 am   BACKBONE|DICT|INTERRES
   225  114  115 1    
   226  114  235 1    
   227  115  116 1    
   228  115  117 1    
   229  115  236 1    
   230  116  237 1    
   231  116  238 1    
   232  116  239 1    
   233  117  118 2    
   234  117  119 am   BACKBONE|DICT|INTERRES
   235  119  120 1    
   236  119  240 1    
   237  120  121 1    
   238  120  124 1    
   239  120  241 1    
   240  121  122 am   BACKBONE|DICT|INTERRES
   241  121  123 2    
   242  122  242 1    
   243  122  243 1    
   244  124  125 1    
   245  124  244 1    
   246  124  245 1    
   247  125  126 1    
   248  126  246 1    
   249  126  247 1    
@<TRIPOS>SUBSTRUCTURE
     1 UNK         1 GROUP             0       ****    0 ROOT    
