@<TRIPOS>MOLECULE
3R540
247   249    1
SMALL
USER_CHARGES


@<TRIPOS>ATOM
      1 CA          4.4266  -11.8361  -54.0092 C.3       0 UNK        -0.1800 
      2 C           4.9384  -12.3760  -52.6811 C.2       0 UNK         0.5000 
      3 O           5.9977  -11.9539  -52.2173 O.2       0 UNK        -0.5000 
      4 N           4.1935  -13.3099  -52.0744 N.am      1 UNK        -0.5000 
      5 CA          4.4997  -13.9226  -50.7763 C.3       1 UNK         0.1400 
      6 C6          3.6129  -15.1701  -50.5353 C.3       23 UNK        -0.0398 
      7 S7          4.0563  -16.1313  -49.0459 S.3       23 UNK        -0.2404 
      8 C8          3.5811  -17.8245  -49.5365 C.3       23 UNK        -0.0205 
      9 C9          2.1409  -17.9542  -50.0277 C.ar      23 UNK        -0.0193 
     10 C10         1.8594  -18.7721  -51.1258 C.ar      23 UNK        -0.1150 
     11 C11         0.5480  -18.9233  -51.5849 C.ar      23 UNK        -0.0193 
     12 C12        -0.4883  -18.2357  -50.9489 C.ar      23 UNK        -0.1150 
     13 C13        -0.2227  -17.4151  -49.8504 C.ar      23 UNK        -0.0193 
     14 C14         1.0893  -17.2895  -49.3873 C.ar      23 UNK        -0.1150 
     15 C15        -1.3548  -16.6752  -49.1569 C.3       23 UNK        -0.0205 
     16 S16        -2.4615  -17.8130  -48.2701 S.3       23 UNK        -0.2404 
     17 C17        -1.3450  -18.5072  -47.0006 C.3       23 UNK        -0.0398 
     18 CA         -0.7057  -19.8739  -47.3615 C.3       11 UNK         0.1400 
     19 N           0.1703  -20.3455  -46.2861 N.am      11 UNK        -0.5000 
     20 C           0.9403  -21.4424  -46.3344 C.2       10 UNK         0.5000 
     21 O           1.0688  -22.1545  -47.3298 O.2       10 UNK        -0.5000 
     22 CA          1.6327  -21.8472  -45.0223 C.3       10 UNK         0.1400 
     23 CB          2.9297  -21.0510  -44.8113 C.3       10 UNK        -0.1800 
     24 N           0.7477  -21.6777  -43.8680 N.am      10 UNK        -0.5000 
     25 C          -0.3347  -22.4336  -43.6304 C.2       9 UNK         0.5000 
     26 O          -0.6754  -23.3791  -44.3398 O.2       9 UNK        -0.5000 
     27 CA         -1.2055  -22.0426  -42.4221 C.3       9 UNK         0.1400 
     28 CB         -0.6255  -22.6237  -41.1242 C.3       9 UNK        -0.1800 
     29 N          -1.3540  -20.5938  -42.2820 N.am      9 UNK        -0.5000 
     30 C          -2.0025  -19.8099  -43.1552 C.2       8 UNK         0.5000 
     31 O          -2.5915  -20.2363  -44.1474 O.2       8 UNK        -0.5000 
     32 CA         -1.9339  -18.2904  -42.9097 C.3       8 UNK         0.1400 
     33 CB         -3.1009  -17.8333  -42.0243 C.3       8 UNK        -0.1800 
     34 N          -0.6649  -17.8578  -42.3177 N.am      8 UNK        -0.5000 
     35 C           0.5366  -18.0040  -42.8985 C.2       7 UNK         0.5000 
     36 O           0.6832  -18.5221  -44.0070 O.2       7 UNK        -0.5000 
     37 CA          1.7765  -17.5337  -42.1115 C.3       7 UNK         0.1400 
     38 CB          2.7380  -16.7192  -42.9938 C.3       7 UNK        -0.1800 
     39 N           1.4103  -16.7249  -40.9490 N.am      7 UNK        -0.5000 
     40 C           1.4743  -17.1149  -39.6687 C.2       6 UNK         0.5000 
     41 O           1.8646  -18.2275  -39.3144 O.2       6 UNK        -0.5000 
     42 CA          1.0234  -16.0980  -38.5972 C.3       6 UNK         0.1400 
     43 CB          2.2457  -15.4431  -37.9356 C.3       6 UNK        -0.1800 
     44 N           0.1510  -15.0427  -39.1187 N.am      6 UNK        -0.5000 
     45 C          -1.1079  -15.2259  -39.5404 C.2       5 UNK         0.5000 
     46 O          -1.6960  -16.3043  -39.4694 O.2       5 UNK        -0.5000 
     47 CA         -1.8043  -14.0189  -40.2053 C.3       5 UNK         0.1400 
     48 CB         -2.6360  -13.2436  -39.1728 C.3       5 UNK        -0.1800 
     49 N          -0.8844  -13.0915  -40.8787 N.am      5 UNK        -0.5000 
     50 C          -0.0567  -13.4251  -41.8785 C.2       4 UNK         0.5000 
     51 O           0.0219  -14.5680  -42.3349 O.2       4 UNK        -0.5000 
     52 CA          0.8801  -12.3191  -42.4011 C.3       4 UNK         0.1400 
     53 CB          1.8950  -11.9144  -41.3180 C.3       4 UNK        -0.1800 
     54 N           1.6233  -12.7834  -43.5713 N.am      4 UNK        -0.5000 
     55 C           1.1552  -12.7958  -44.8237 C.2       3 UNK         0.5000 
     56 O           0.0895  -12.2813  -45.1721 O.2       3 UNK        -0.5000 
     57 CA          2.0175  -13.5505  -45.8523 C.3       3 UNK         0.1400 
     58 CB          1.3972  -14.9205  -46.1729 C.3       3 UNK        -0.1800 
     59 N           2.2026  -12.8079  -47.0983 N.am      3 UNK        -0.5000 
     60 C           2.8320  -11.6302  -47.2155 C.2       2 UNK         0.5000 
     61 O           3.3246  -11.0198  -46.2643 O.2       2 UNK        -0.5000 
     62 CA          2.9523  -11.0705  -48.6518 C.3       2 UNK         0.1400 
     63 CB          3.9170   -9.8705  -48.7560 C.3       2 UNK        -0.1800 
     64 N           3.3051  -12.1001  -49.6400 N.am      2 UNK        -0.5000 
     65 C           4.3878  -12.8974  -49.6246 C.2       1 UNK         0.5000 
     66 O           5.2767  -12.8423  -48.7731 O.2       1 UNK        -0.5000 
     67 C          -1.7489  -20.9471  -47.7424 C.2       11 UNK         0.5000 
     68 O          -1.8505  -21.3042  -48.9160 O.2       11 UNK        -0.5000 
     69 N          -2.4600  -21.4817  -46.7382 N.am      12 UNK        -0.5000 
     70 CA         -3.4435  -22.5519  -46.8987 C.3       12 UNK         0.1400 
     71 CB         -4.1548  -22.8111  -45.5630 C.3       12 UNK        -0.1800 
     72 C          -2.8359  -23.8514  -47.4532 C.2       12 UNK         0.5000 
     73 O          -3.4407  -24.4645  -48.3306 O.2       12 UNK        -0.5000 
     74 N          -1.6468  -24.2345  -46.9670 N.am      13 UNK        -0.5000 
     75 CA         -0.8989  -25.3992  -47.4429 C.3       13 UNK         0.1400 
     76 CB          0.3150  -25.6494  -46.5358 C.3       13 UNK        -0.1800 
     77 C          -0.4689  -25.2666  -48.9148 C.2       13 UNK         0.5000 
     78 O          -0.6939  -26.1912  -49.6962 O.2       13 UNK        -0.5000 
     79 N           0.0938  -24.1061  -49.2801 N.am      14 UNK        -0.5000 
     80 CA          0.5184  -23.7804  -50.6450 C.3       14 UNK         0.1400 
     81 CB          1.3499  -22.4910  -50.6145 C.3       14 UNK        -0.1800 
     82 C          -0.6544  -23.6547  -51.6393 C.2       14 UNK         0.5000 
     83 O          -0.4782  -23.9152  -52.8311 O.2       14 UNK        -0.5000 
     84 N          -1.8323  -23.2768  -51.1309 N.am      15 UNK        -0.5000 
     85 CA         -3.0914  -23.2156  -51.8687 C.3       15 UNK         0.1400 
     86 CB         -3.9401  -22.0789  -51.2820 C.3       15 UNK        -0.1800 
     87 C          -3.8687  -24.5461  -51.8678 C.2       15 UNK         0.5000 
     88 O          -4.9451  -24.6028  -52.4586 O.2       15 UNK        -0.5000 
     89 N          -3.3508  -25.5855  -51.1947 N.am      16 UNK        -0.5000 
     90 CA         -3.9625  -26.9103  -51.0250 C.3       16 UNK         0.1400 
     91 CB         -3.9242  -27.6943  -52.3529 C.3       16 UNK        -0.1800 
     92 C          -5.3754  -26.8429  -50.3993 C.2       16 UNK         0.5000 
     93 O          -6.2980  -27.5163  -50.8612 O.2       16 UNK        -0.5000 
     94 N          -5.5044  -25.9977  -49.3678 N.am      17 UNK        -0.5000 
     95 CA         -6.7034  -25.6646  -48.5939 C.3       17 UNK         0.1400 
     96 CB         -7.3503  -26.9205  -47.9727 C.3       17 UNK        -0.1800 
     97 C          -7.7254  -24.7711  -49.3297 C.2       17 UNK         0.5000 
     98 O          -8.8025  -24.5292  -48.7811 O.2       17 UNK        -0.5000 
     99 N          -7.3856  -24.2567  -50.5212 N.am      18 UNK        -0.5000 
    100 CA        -8.1653  -23.2282  -51.2146 C.3       18 UNK         0.1400 
    101 CB        -7.8220  -23.2441  -52.7127 C.3       18 UNK        -0.1800 
    102 C         -7.9107  -21.8320  -50.6120 C.2       18 UNK         0.5000 
    103 O         -6.9614  -21.6410  -49.8464 O.2       18 UNK        -0.5000 
    104 N         -8.7533  -20.8640  -50.9917 N.am      19 UNK        -0.5000 
    105 CA        -8.7013  -19.4683  -50.5508 C.3       19 UNK         0.1400 
    106 CB       -10.0832  -18.8302  -50.7818 C.3       19 UNK        -0.1800 
    107 C         -7.5634  -18.6817  -51.2374 C.2       19 UNK         0.5000 
    108 O         -7.8269  -17.8060  -52.0627 O.2       19 UNK        -0.5000 
    109 N         -6.3163  -19.0378  -50.8979 N.am      20 UNK        -0.5000 
    110 CA        -5.0480  -18.4471  -51.3526 C.3       20 UNK         0.1400 
    111 CB        -4.9558  -16.9603  -50.9513 C.3       20 UNK        -0.1800 
    112 C         -4.7326  -18.6649  -52.8501 C.2       20 UNK         0.5000 
    113 O         -3.8026  -18.0478  -53.3704 O.2       20 UNK        -0.5000 
    114 N         -5.4873  -19.5460  -53.5189 N.am      21 UNK        -0.5000 
    115 CA        -5.2908  -19.9414  -54.9109 C.3       21 UNK         0.1400 
    116 CB        -6.6247  -20.4678  -55.4687 C.3       21 UNK        -0.1800 
    117 C         -4.1661  -20.9882  -54.9969 C.2       21 UNK         0.5000 
    118 O         -4.4383  -22.1829  -54.8807 O.2       21 UNK        -0.5000 
    119 N         -2.9256  -20.5039  -55.1306 N.am      22 UNK        -0.5000 
    120 CA        -1.6706  -21.2739  -55.1288 C.3       22 UNK         0.1400 
    121 C         -1.6456  -22.4885  -56.0977 C.2       22 UNK         0.5000 
    122 N         -1.1811  -23.6433  -55.6382 N.am      22 UNK        -0.7600 
    123 O         -1.9937  -22.3752  -57.2709 O.2       22 UNK        -0.5000 
    124 C124       -0.4463  -20.3616  -55.3952 C.3       23 UNK        -0.0398 
    125 S125       -0.3069  -18.9710  -54.2223 S.3       23 UNK        -0.2404 
    126 C126        0.2435  -19.8627  -52.7380 C.3       23 UNK        -0.0205 
    127 H127        4.2646  -10.7605  -53.9390 H         1 UNK         0.0600 
    128 H128        5.1575  -12.0213  -54.7963 H         1 UNK         0.0600 
    129 H129        3.4859  -12.3030  -54.3022 H         1 UNK         0.0600 
    130 H130        3.3412  -13.6193  -52.5196 H         1 UNK         0.3000 
    131 H131        5.5388  -14.2575  -50.8139 H         1 UNK         0.0600 
    132 H132        3.6887  -15.8332  -51.3985 H         1 UNK         0.0800 
    133 H133        2.5606  -14.8900  -50.4646 H         1 UNK         0.0800 
    134 H134        3.7167  -18.4877  -48.6814 H         1 UNK         0.0800 
    135 H135        4.2774  -18.1647  -50.3046 H         1 UNK         0.0800 
    136 H136        2.6617  -19.3056  -51.6159 H         1 UNK         0.1150 
    137 H137       -1.5042  -18.3508  -51.3013 H         1 UNK         0.1150 
    138 H138        1.2925  -16.6691  -48.5286 H         1 UNK         0.1150 
    139 H139       -0.9692  -15.9295  -48.4608 H         1 UNK         0.0800 
    140 H140       -1.9311  -16.1262  -49.9021 H         1 UNK         0.0800 
    141 H141       -0.5628  -17.7802  -46.7769 H         1 UNK         0.0800 
    142 H142       -1.9281  -18.6002  -46.0862 H         1 UNK         0.0800 
    143 H143       -0.0706  -19.7283  -48.2369 H         1 UNK         0.0600 
    144 H144        0.1749  -19.7990  -45.4304 H         1 UNK         0.3000 
    145 H145        1.8956  -22.9046  -45.0955 H         1 UNK         0.0600 
    146 H146        3.4398  -21.3622  -43.8997 H         1 UNK         0.0600 
    147 H147        3.6202  -21.2105  -45.6404 H         1 UNK         0.0600 
    148 H148        2.7461  -19.9788  -44.7438 H         1 UNK         0.0600 
    149 H149        0.9280  -20.8846  -43.2712 H         1 UNK         0.3000 
    150 H150       -2.1980  -22.4719  -42.5745 H         1 UNK         0.0600 
    151 H151       -0.5180  -23.7069  -41.1961 H         1 UNK         0.0600 
    152 H152       -1.2776  -22.4188  -40.2749 H         1 UNK         0.0600 
    153 H153        0.3585  -22.2101  -40.8997 H         1 UNK         0.0600 
    154 H154       -0.8996  -20.1601  -41.4920 H         1 UNK         0.3000 
    155 H155       -2.0311  -17.7930  -43.8760 H         1 UNK         0.0600 
    156 H156       -3.0400  -18.2630  -41.0237 H         1 UNK         0.0600 
    157 H157       -4.0582  -18.1323  -42.4534 H         1 UNK         0.0600 
    158 H158       -3.1164  -16.7481  -41.9239 H         1 UNK         0.0600 
    159 H159       -0.7140  -17.4174  -41.4094 H         1 UNK         0.3000 
    160 H160        2.3009  -18.4377  -41.7965 H         1 UNK         0.0600 
    161 H161        3.6592  -16.4913  -42.4575 H         1 UNK         0.0600 
    162 H162        2.2942  -15.7743  -43.3031 H         1 UNK         0.0600 
    163 H163        3.0169  -17.2668  -43.8950 H         1 UNK         0.0600 
    164 H164        1.0151  -15.8164  -41.1700 H         1 UNK         0.3000 
    165 H165        0.4732  -16.6498  -37.8321 H         1 UNK         0.0600 
    166 H166        1.9469  -14.7761  -37.1267 H         1 UNK         0.0600 
    167 H167        2.9084  -16.1956  -37.5059 H         1 UNK         0.0600 
    168 H168        2.8287  -14.8633  -38.6525 H         1 UNK         0.0600 
    169 H169        0.5565  -14.1231  -39.2094 H         1 UNK         0.3000 
    170 H170       -2.4836  -14.4149  -40.9629 H         1 UNK         0.0600 
    171 H171       -3.3482  -13.9007  -38.6717 H         1 UNK         0.0600 
    172 H172       -2.0062  -12.7945  -38.4039 H         1 UNK         0.0600 
    173 H173       -3.2100  -12.4466  -39.6460 H         1 UNK         0.0600 
    174 H174       -0.8893  -12.1379  -40.5460 H         1 UNK         0.3000 
    175 H175        0.2775  -11.4490  -42.6698 H         1 UNK         0.0600 
    176 H176        2.4894  -12.7657  -40.9828 H         1 UNK         0.0600 
    177 H177        2.5821  -11.1534  -41.6888 H         1 UNK         0.0600 
    178 H178        1.3979  -11.4954  -40.4425 H         1 UNK         0.0600 
    179 H179        2.4955  -13.2521  -43.3777 H         1 UNK         0.3000 
    180 H180        3.0060  -13.7196  -45.4199 H         1 UNK         0.0600 
    181 H181        0.4977  -14.8225  -46.7810 H         1 UNK         0.0600 
    182 H182        1.1129  -15.4553  -45.2663 H         1 UNK         0.0600 
    183 H183        2.1064  -15.5508  -46.7076 H         1 UNK         0.0600 
    184 H184        1.8217  -13.2295  -47.9313 H         1 UNK         0.3000 
    185 H185        1.9570  -10.7134  -48.9203 H         1 UNK         0.0600 
    186 H186        3.5926   -9.0506  -48.1141 H         1 UNK         0.0600 
    187 H187        4.9310  -10.1383  -48.4576 H         1 UNK         0.0600 
    188 H188        3.9589   -9.4865  -49.7752 H         1 UNK         0.0600 
    189 H189        2.6493  -12.2145  -50.3997 H         1 UNK         0.3000 
    190 H190       -2.3452  -21.1123  -45.7977 H         1 UNK         0.3000 
    191 H191       -4.1898  -22.2060  -47.6173 H         1 UNK         0.0600 
    192 H192       -3.4544  -23.1237  -44.7880 H         1 UNK         0.0600 
    193 H193       -4.9056  -23.5956  -45.6654 H         1 UNK         0.0600 
    194 H194       -4.6661  -21.9155  -45.2095 H         1 UNK         0.0600 
    195 H195       -1.2343  -23.7095  -46.2019 H         1 UNK         0.3000 
    196 H196       -1.5573  -26.2672  -47.3688 H         1 UNK         0.0600 
    197 H197        0.8793  -26.5210  -46.8695 H         1 UNK         0.0600 
    198 H198        0.0056  -25.8373  -45.5076 H         1 UNK         0.0600 
    199 H199        0.9970  -24.7992  -46.5293 H         1 UNK         0.0600 
    200 H200        0.2602  -23.3938  -48.5730 H         1 UNK         0.3000 
    201 H201        1.1602  -24.5902  -50.9977 H         1 UNK         0.0600 
    202 H202        2.2056  -22.5891  -49.9464 H         1 UNK         0.0600 
    203 H203        0.7579  -21.6407  -50.2728 H         1 UNK         0.0600 
    204 H204        1.7400  -22.2557  -51.6044 H         1 UNK         0.0600 
    205 H205       -1.8691  -22.9934  -50.1572 H         1 UNK         0.3000 
    206 H206       -2.8872  -22.9826  -52.9116 H         1 UNK         0.0600 
    207 H207       -4.8594  -21.9396  -51.8499 H         1 UNK         0.0600 
    208 H208       -3.3946  -21.1363  -51.3090 H         1 UNK         0.0600 
    209 H209       -4.2177  -22.2781  -50.2462 H         1 UNK         0.0600 
    210 H210       -2.4719  -25.4494  -50.7099 H         1 UNK         0.3000 
    211 H211       -3.3375  -27.4446  -50.3081 H         1 UNK         0.0600 
    212 H212       -4.5594  -27.2368  -53.1120 H         1 UNK         0.0600 
    213 H213       -4.2686  -28.7194  -52.2118 H         1 UNK         0.0600 
    214 H214       -2.9105  -27.7449  -52.7502 H         1 UNK         0.0600 
    215 H215       -4.6741  -25.4735  -49.0886 H         1 UNK         0.3000 
    216 H216       -6.3385  -25.0547  -47.7662 H         1 UNK         0.0600 
    217 H217       -7.8316  -27.5455  -48.7250 H         1 UNK         0.0600 
    218 H218       -8.1146  -26.6461  -47.2448 H         1 UNK         0.0600 
    219 H219       -6.6116  -27.5285  -47.4504 H         1 UNK         0.0600 
    220 H220       -6.4843  -24.4856  -50.9226 H         1 UNK         0.3000 
    221 H221       -9.2270  -23.4607  -51.1075 H         1 UNK         0.0600 
    222 H222       -6.8185  -22.8647  -52.9044 H         1 UNK         0.0600 
    223 H223       -7.8821  -24.2522  -53.1234 H         1 UNK         0.0600 
    224 H224       -8.5158  -22.6232  -53.2801 H         1 UNK         0.0600 
    225 H225       -9.4897  -21.0908  -51.6445 H         1 UNK         0.3000 
    226 H226       -8.5066  -19.4483  -49.4762 H         1 UNK         0.0600 
    227 H227      -10.8581  -19.3558  -50.2234 H         1 UNK         0.0600 
    228 H228      -10.0946  -17.7913  -50.4494 H         1 UNK         0.0600 
    229 H229      -10.3634  -18.8416  -51.8359 H         1 UNK         0.0600 
    230 H230       -6.2298  -19.8325  -50.2702 H         1 UNK         0.3000 
    231 H231       -4.2645  -18.9727  -50.8056 H         1 UNK         0.0600 
    232 H232       -5.1395  -16.8274  -49.8852 H         1 UNK         0.0600 
    233 H233       -5.6711  -16.3448  -51.4968 H         1 UNK         0.0600 
    234 H234       -3.9629  -16.5610  -51.1586 H         1 UNK         0.0600 
    235 H235       -6.2225  -20.0175  -53.0155 H         1 UNK         0.3000 
    236 H236       -5.0040  -19.0683  -55.5013 H         1 UNK         0.0600 
    237 H237       -6.5149  -20.7783  -56.5084 H         1 UNK         0.0600 
    238 H238       -6.9914  -21.3272  -54.9073 H         1 UNK         0.0600 
    239 H239       -7.3948  -19.6967  -55.4387 H         1 UNK         0.0600 
    240 H240       -2.8100  -19.4996  -55.1462 H         1 UNK         0.3000 
    241 H241       -1.5673  -21.6673  -54.1197 H         1 UNK         0.0600 
    242 H242       -1.1405  -24.4368  -56.2579 H         1 UNK         0.3800 
    243 H243       -0.8865  -23.7532  -54.6700 H         1 UNK         0.3800 
    244 H244        0.4800  -20.9380  -55.3546 H         1 UNK         0.0800 
    245 H245       -0.4985  -19.9460  -56.4030 H         1 UNK         0.0800 
    246 H246        1.1215  -20.4581  -52.9901 H         1 UNK         0.0800 
    247 H247       -0.5300  -20.5610  -52.4171 H         1 UNK         0.0800 
@<TRIPOS>BOND
     1    1    2 1    
     2    1  127 1    
     3    1  128 1    
     4    1  129 1    
     5    2    3 2    
     6    2    4 am   BACKBONE|DICT|INTERRES
     7    4    5 1    
     8    4  130 1    
     9    5    6 1    
    10    5   65 1    
    11    5  131 1    
    12    6    7 1    
    13    6  132 1    
    14    6  133 1    
    15    7    8 1    
    16    8    9 1    
    17    8  134 1    
    18    8  135 1    
    19    9   10 ar   
    20    9   14 ar   
    21   10   11 ar   
    22   10  136 1    
    23   11   12 ar   
    24   11  126 1    
    25   12   13 ar   
    26   12  137 1    
    27   13   14 ar   
    28   13   15 1    
    29   14  138 1    
    30   15   16 1    
    31   15  139 1    
    32   15  140 1    
    33   16   17 1    
    34   17   18 1    
    35   17  141 1    
    36   17  142 1    
    37   18   19 1    
    38   18   67 1    
    39   18  143 1    
    40   19   20 am   BACKBONE|DICT|INTERRES
    41   19  144 1    
    42   20   21 2    
    43   20   22 1    
    44   22   23 1    
    45   22   24 1    
    46   22  145 1    
    47   23  146 1    
    48   23  147 1    
    49   23  148 1    
    50   24   25 am   BACKBONE|DICT|INTERRES
    51   24  149 1    
    52   25   26 2    
    53   25   27 1    
    54   27   28 1    
    55   27   29 1    
    56   27  150 1    
    57   28  151 1    
    58   28  152 1    
    59   28  153 1    
    60   29   30 am   BACKBONE|DICT|INTERRES
    61   29  154 1    
    62   30   31 2    
    63   30   32 1    
    64   32   33 1    
    65   32   34 1    
    66   32  155 1    
    67   33  156 1    
    68   33  157 1    
    69   33  158 1    
    70   34   35 am   BACKBONE|DICT|INTERRES
    71   34  159 1    
    72   35   36 2    
    73   35   37 1    
    74   37   38 1    
    75   37   39 1    
    76   37  160 1    
    77   38  161 1    
    78   38  162 1    
    79   38  163 1    
    80   39   40 am   BACKBONE|DICT|INTERRES
    81   39  164 1    
    82   40   41 2    
    83   40   42 1    
    84   42   43 1    
    85   42   44 1    
    86   42  165 1    
    87   43  166 1    
    88   43  167 1    
    89   43  168 1    
    90   44   45 am   BACKBONE|DICT|INTERRES
    91   44  169 1    
    92   45   46 2    
    93   45   47 1    
    94   47   48 1    
    95   47   49 1    
    96   47  170 1    
    97   48  171 1    
    98   48  172 1    
    99   48  173 1    
   100   49   50 am   BACKBONE|DICT|INTERRES
   101   49  174 1    
   102   50   51 2    
   103   50   52 1    
   104   52   53 1    
   105   52   54 1    
   106   52  175 1    
   107   53  176 1    
   108   53  177 1    
   109   53  178 1    
   110   54   55 am   BACKBONE|DICT|INTERRES
   111   54  179 1    
   112   55   56 2    
   113   55   57 1    
   114   57   58 1    
   115   57   59 1    
   116   57  180 1    
   117   58  181 1    
   118   58  182 1    
   119   58  183 1    
   120   59   60 am   BACKBONE|DICT|INTERRES
   121   59  184 1    
   122   60   61 2    
   123   60   62 1    
   124   62   63 1    
   125   62   64 1    
   126   62  185 1    
   127   63  186 1    
   128   63  187 1    
   129   63  188 1    
   130   64   65 am   BACKBONE|DICT|INTERRES
   131   64  189 1    
   132   65   66 2    
   133   67   68 2    
   134   67   69 am   BACKBONE|DICT|INTERRES
   135   69   70 1    
   136   69  190 1    
   137   70   71 1    
   138   70   72 1    
   139   70  191 1    
   140   71  192 1    
   141   71  193 1    
   142   71  194 1    
   143   72   73 2    
   144   72   74 am   BACKBONE|DICT|INTERRES
   145   74   75 1    
   146   74  195 1    
   147   75   76 1    
   148   75   77 1    
   149   75  196 1    
   150   76  197 1    
   151   76  198 1    
   152   76  199 1    
   153   77   78 2    
   154   77   79 am   BACKBONE|DICT|INTERRES
   155   79   80 1    
   156   79  200 1    
   157   80   81 1    
   158   80   82 1    
   159   80  201 1    
   160   81  202 1    
   161   81  203 1    
   162   81  204 1    
   163   82   83 2    
   164   82   84 am   BACKBONE|DICT|INTERRES
   165   84   85 1    
   166   84  205 1    
   167   85   86 1    
   168   85   87 1    
   169   85  206 1    
   170   86  207 1    
   171   86  208 1    
   172   86  209 1    
   173   87   88 2    
   174   87   89 am   BACKBONE|DICT|INTERRES
   175   89   90 1    
   176   89  210 1    
   177   90   91 1    
   178   90   92 1    
   179   90  211 1    
   180   91  212 1    
   181   91  213 1    
   182   91  214 1    
   183   92   93 2    
   184   92   94 am   BACKBONE|DICT|INTERRES
   185   94   95 1    
   186   94  215 1    
   187   95   96 1    
   188   95   97 1    
   189   95  216 1    
   190   96  217 1    
   191   96  218 1    
   192   96  219 1    
   193   97   98 2    
   194   97   99 am   BACKBONE|DICT|INTERRES
   195   99  100 1    
   196   99  220 1    
   197  100  101 1    
   198  100  102 1    
   199  100  221 1    
   200  101  222 1    
   201  101  223 1    
   202  101  224 1    
   203  102  103 2    
   204  102  104 am   BACKBONE|DICT|INTERRES
   205  104  105 1    
   206  104  225 1    
   207  105  106 1    
   208  105  107 1    
   209  105  226 1    
   210  106  227 1    
   211  106  228 1    
   212  106  229 1    
   213  107  108 2    
   214  107  109 am   BACKBONE|DICT|INTERRES
   215  109  110 1    
   216  109  230 1    
   217  110  111 1    
   218  110  112 1    
   219  110  231 1    
   220  111  232 1    
   221  111  233 1    
   222  111  234 1    
   223  112  113 2    
   224  112  114 am   BACKBONE|DICT|INTERRES
   225  114  115 1    
   226  114  235 1    
   227  115  116 1    
   228  115  117 1    
   229  115  236 1    
   230  116  237 1    
   231  116  238 1    
   232  116  239 1    
   233  117  118 2    
   234  117  119 am   BACKBONE|DICT|INTERRES
   235  119  120 1    
   236  119  240 1    
   237  120  121 1    
   238  120  124 1    
   239  120  241 1    
   240  121  122 am   BACKBONE|DICT|INTERRES
   241  121  123 2    
   242  122  242 1    
   243  122  243 1    
   244  124  125 1    
   245  124  244 1    
   246  124  245 1    
   247  125  126 1    
   248  126  246 1    
   249  126  247 1    
@<TRIPOS>SUBSTRUCTURE
     1 UNK         1 GROUP             0       ****    0 ROOT    
