@<TRIPOS>MOLECULE
3R540
247   249    1
SMALL
USER_CHARGES


@<TRIPOS>ATOM
      1 CA          3.5657  -11.0526  -44.2764 C.3       0 UNK        -0.1800 
      2 C           3.6666  -12.5385  -44.5917 C.2       0 UNK         0.5000 
      3 O           4.5323  -13.2247  -44.0483 O.2       0 UNK        -0.5000 
      4 N           2.7846  -13.0328  -45.4627 N.am      1 UNK        -0.5000 
      5 CA          2.6559  -14.4344  -45.8524 C.3       1 UNK         0.1400 
      6 C6          3.7954  -14.9204  -46.7855 C.3       23 UNK        -0.0398 
      7 S7          3.7951  -14.1696  -48.4519 S.3       23 UNK        -0.2404 
      8 C8          4.7669  -15.3973  -49.3808 C.3       23 UNK        -0.0205 
      9 C9          3.9817  -16.6768  -49.6295 C.ar      23 UNK        -0.0193 
     10 C10         3.0507  -16.7313  -50.6676 C.ar      23 UNK        -0.1150 
     11 C11         2.3290  -17.9013  -50.9167 C.ar      23 UNK        -0.0193 
     12 C12         2.5399  -19.0261  -50.1116 C.ar      23 UNK        -0.1150 
     13 C13         3.4720  -18.9849  -49.0696 C.ar      23 UNK        -0.0193 
     14 C14         4.1954  -17.8106  -48.8409 C.ar      23 UNK        -0.1150 
     15 C15         3.7381  -20.2126  -48.2115 C.3       23 UNK        -0.0205 
     16 S16         3.1284  -20.0090  -46.5073 S.3       23 UNK        -0.2404 
     17 C17         1.4447  -20.7041  -46.6154 C.3       23 UNK        -0.0398 
     18 CA          1.3996  -22.2490  -46.4827 C.3       11 UNK         0.1400 
     19 N           2.1878  -22.7606  -45.3578 N.am      11 UNK        -0.5000 
     20 C           2.7503  -23.9755  -45.3143 C.2       10 UNK         0.5000 
     21 O           2.6850  -24.7907  -46.2340 O.2       10 UNK        -0.5000 
     22 CA          3.5104  -24.3511  -44.0270 C.3       10 UNK         0.1400 
     23 CB          4.9964  -23.9848  -44.1598 C.3       10 UNK        -0.1800 
     24 N           2.9684  -23.7106  -42.8278 N.am      10 UNK        -0.5000 
     25 C           1.7801  -23.9995  -42.2793 C.2       9 UNK         0.5000 
     26 O           1.0250  -24.8728  -42.7035 O.2       9 UNK        -0.5000 
     27 CA          1.3413  -23.1312  -41.0831 C.3       9 UNK         0.1400 
     28 CB          1.8336  -23.7454  -39.7643 C.3       9 UNK        -0.1800 
     29 N           1.7864  -21.7345  -41.1628 N.am      9 UNK        -0.5000 
     30 C           1.5003  -20.8960  -42.1671 C.2       8 UNK         0.5000 
     31 O           0.8659  -21.2279  -43.1729 O.2       8 UNK        -0.5000 
     32 CA          2.0680  -19.4706  -42.0601 C.3       8 UNK         0.1400 
     33 CB          3.5574  -19.4603  -42.4393 C.3       8 UNK        -0.1800 
     34 N           1.3508  -18.5812  -42.9688 N.am      8 UNK        -0.5000 
     35 C           0.1494  -18.0499  -42.7172 C.2       7 UNK         0.5000 
     36 O          -0.4157  -18.0932  -41.6219 O.2       7 UNK        -0.5000 
     37 CA         -0.5576  -17.4048  -43.9213 C.3       7 UNK         0.1400 
     38 CB         -1.6865  -18.3184  -44.4278 C.3       7 UNK        -0.1800 
     39 N          -1.1010  -16.0753  -43.6426 N.am      7 UNK        -0.5000 
     40 C          -0.3880  -15.0107  -43.2486 C.2       6 UNK         0.5000 
     41 O           0.8229  -15.0435  -43.0253 O.2       6 UNK        -0.5000 
     42 CA         -1.1543  -13.6785  -43.1812 C.3       6 UNK         0.1400 
     43 CB         -0.2443  -12.4782  -42.8598 C.3       6 UNK        -0.1800 
     44 N          -1.7959  -13.4454  -44.4735 N.am      6 UNK        -0.5000 
     45 C          -3.1059  -13.2658  -44.6800 C.2       5 UNK         0.5000 
     46 O          -3.9407  -13.2678  -43.7738 O.2       5 UNK        -0.5000 
     47 CA         -3.5616  -13.0864  -46.1457 C.3       5 UNK         0.1400 
     48 CB         -4.8910  -12.3134  -46.2752 C.3       5 UNK        -0.1800 
     49 N          -2.5296  -12.5165  -47.0202 N.am      5 UNK        -0.5000 
     50 C          -1.9826  -11.2908  -46.9572 C.2       4 UNK         0.5000 
     51 O          -2.3265  -10.4326  -46.1436 O.2       4 UNK        -0.5000 
     52 CA         -0.8480  -10.9671  -47.9543 C.3       4 UNK         0.1400 
     53 CB          0.3734  -10.3772  -47.2271 C.3       4 UNK        -0.1800 
     54 N          -0.4183  -12.1557  -48.6930 N.am      4 UNK        -0.5000 
     55 C          -0.7541  -12.4577  -49.9546 C.2       3 UNK         0.5000 
     56 O          -1.4091  -11.7120  -50.6830 O.2       3 UNK        -0.5000 
     57 CA         -0.3092  -13.8365  -50.4911 C.3       3 UNK         0.1400 
     58 CB          0.9006  -13.6955  -51.4258 C.3       3 UNK        -0.1800 
     59 N           0.0034  -14.8076  -49.4378 N.am      3 UNK        -0.5000 
     60 C          -0.9040  -15.3294  -48.6006 C.2       2 UNK         0.5000 
     61 O          -2.1037  -15.0585  -48.6438 O.2       2 UNK        -0.5000 
     62 CA         -0.3778  -16.2189  -47.4586 C.3       2 UNK         0.1400 
     63 CB         -0.3677  -17.6973  -47.8629 C.3       2 UNK        -0.1800 
     64 N           0.9467  -15.8394  -46.9528 N.am      2 UNK        -0.5000 
     65 C           1.2348  -14.6466  -46.4128 C.2       1 UNK         0.5000 
     66 O           0.4106  -13.7286  -46.3441 O.2       1 UNK        -0.5000 
     67 C          -0.0536  -22.7417  -46.3609 C.2       11 UNK         0.5000 
     68 O          -0.6297  -23.2106  -47.3412 O.2       11 UNK        -0.5000 
     69 N          -0.6012  -22.6739  -45.1383 N.am      12 UNK        -0.5000 
     70 CA         -1.9493  -23.1189  -44.7764 C.3       12 UNK         0.1400 
     71 CB         -2.2445  -22.6681  -43.3380 C.3       12 UNK        -0.1800 
     72 C          -2.1769  -24.6378  -44.9290 C.2       12 UNK         0.5000 
     73 O          -3.3273  -25.0707  -44.9922 O.2       12 UNK        -0.5000 
     74 N          -1.0878  -25.4152  -45.0042 N.am      13 UNK        -0.5000 
     75 CA         -1.0824  -26.8514  -45.2839 C.3       13 UNK         0.1400 
     76 CB          0.3089  -27.4155  -44.9543 C.3       13 UNK        -0.1800 
     77 C          -1.4808  -27.2124  -46.7317 C.2       13 UNK         0.5000 
     78 O          -1.7551  -28.3848  -46.9951 O.2       13 UNK        -0.5000 
     79 N          -1.5007  -26.2292  -47.6458 N.am      14 UNK        -0.5000 
     80 CA         -1.9641  -26.3830  -49.0263 C.3       14 UNK         0.1400 
     81 CB         -1.6895  -25.0811  -49.7954 C.3       14 UNK        -0.1800 
     82 C          -3.4629  -26.7334  -49.1062 C.2       14 UNK         0.5000 
     83 O          -4.2395  -26.3466  -48.2284 O.2       14 UNK        -0.5000 
     84 N          -3.8535  -27.4238  -50.1845 N.am      15 UNK        -0.5000 
     85 CA         -5.2281  -27.8373  -50.4786 C.3       15 UNK         0.1400 
     86 CB         -5.1876  -28.9929  -51.4948 C.3       15 UNK        -0.1800 
     87 C          -6.0899  -26.6521  -50.9632 C.2       15 UNK         0.5000 
     88 O          -6.4713  -26.5980  -52.1328 O.2       15 UNK        -0.5000 
     89 N          -6.3216  -25.6899  -50.0604 N.am      16 UNK        -0.5000 
     90 CA         -7.0816  -24.4379  -50.1950 C.3       16 UNK         0.1400 
     91 CB         -8.5480  -24.7136  -50.5776 C.3       16 UNK        -0.1800 
     92 C          -6.4595  -23.3808  -51.1304 C.2       16 UNK         0.5000 
     93 O          -6.8161  -22.2080  -51.0163 O.2       16 UNK        -0.5000 
     94 N          -5.5332  -23.7855  -52.0102 N.am      17 UNK        -0.5000 
     95 CA         -4.8807  -22.9698  -53.0381 C.3       17 UNK         0.1400 
     96 CB         -3.8284  -23.8227  -53.7615 C.3       17 UNK        -0.1800 
     97 C          -4.2468  -21.6686  -52.5160 C.2       17 UNK         0.5000 
     98 O          -4.3694  -20.6328  -53.1712 O.2       17 UNK        -0.5000 
     99 N          -3.6251  -21.7400  -51.3304 N.am      18 UNK        -0.5000 
    100 CA        -2.9964  -20.6129  -50.6373 C.3       18 UNK         0.1400 
    101 CB        -2.2136  -21.1381  -49.4245 C.3       18 UNK        -0.1800 
    102 C         -3.9890  -19.5139  -50.2109 C.2       18 UNK         0.5000 
    103 O         -3.6157  -18.3427  -50.1778 O.2       18 UNK        -0.5000 
    104 N         -5.2331  -19.9042  -49.9065 N.am      19 UNK        -0.5000 
    105 CA        -6.3216  -18.9832  -49.5864 C.3       19 UNK         0.1400 
    106 CB        -7.2852  -19.6623  -48.6001 C.3       19 UNK        -0.1800 
    107 C         -7.0690  -18.5390  -50.8550 C.2       19 UNK         0.5000 
    108 O         -7.4872  -17.3839  -50.9393 O.2       19 UNK        -0.5000 
    109 N         -7.2372  -19.4668  -51.8075 N.am      20 UNK        -0.5000 
    110 CA        -8.0015  -19.2735  -53.0374 C.3       20 UNK         0.1400 
    111 CB        -8.2364  -20.6351  -53.7083 C.3       20 UNK        -0.1800 
    112 C         -7.3550  -18.2899  -54.0284 C.2       20 UNK         0.5000 
    113 O         -8.0790  -17.5003  -54.6375 O.2       20 UNK        -0.5000 
    114 N         -6.0254  -18.3537  -54.1884 N.am      21 UNK        -0.5000 
    115 CA        -5.2937  -17.5303  -55.1569 C.3       21 UNK         0.1400 
    116 CB        -5.4458  -18.1215  -56.5718 C.3       21 UNK        -0.1800 
    117 C         -3.8064  -17.3460  -54.8182 C.2       21 UNK         0.5000 
    118 O         -3.2414  -16.3106  -55.1726 O.2       21 UNK        -0.5000 
    119 N         -3.1876  -18.3395  -54.1670 N.am      22 UNK        -0.5000 
    120 CA        -1.7446  -18.4042  -53.8739 C.3       22 UNK         0.1400 
    121 C         -0.8420  -18.6251  -55.1294 C.2       22 UNK         0.5000 
    122 N         -1.3764  -19.0991  -56.2488 N.am      22 UNK        -0.7600 
    123 O          0.3622  -18.3915  -55.0931 O.2       22 UNK        -0.5000 
    124 C124       -1.2589  -17.2450  -52.9490 C.3       23 UNK        -0.0398 
    125 S125       -0.3711  -17.8275  -51.4676 S.3       23 UNK        -0.2404 
    126 C126        1.3377  -17.9473  -52.0675 C.3       23 UNK        -0.0205 
    127 H127        2.7682  -10.5706  -44.8426 H         1 UNK         0.0600 
    128 H128        4.5037  -10.5527  -44.5179 H         1 UNK         0.0600 
    129 H129        3.3634  -10.9079  -43.2151 H         1 UNK         0.0600 
    130 H130        2.0558  -12.4456  -45.8459 H         1 UNK         0.3000 
    131 H131        2.7028  -15.0292  -44.9384 H         1 UNK         0.0600 
    132 H132        4.7641  -14.7191  -46.3271 H         1 UNK         0.0800 
    133 H133        3.7460  -16.0043  -46.8723 H         1 UNK         0.0800 
    134 H134        5.0604  -14.9618  -50.3370 H         1 UNK         0.0800 
    135 H135        5.6946  -15.6098  -48.8471 H         1 UNK         0.0800 
    136 H136        2.9000  -15.8610  -51.2887 H         1 UNK         0.1150 
    137 H137        1.9817  -19.9318  -50.3029 H         1 UNK         0.1150 
    138 H138        4.9261  -17.7831  -48.0447 H         1 UNK         0.1150 
    139 H139        3.3061  -21.1076  -48.6612 H         1 UNK         0.0800 
    140 H140        4.8145  -20.3860  -48.1741 H         1 UNK         0.0800 
    141 H141        0.9917  -20.3930  -47.5583 H         1 UNK         0.0800 
    142 H142        0.8585  -20.2355  -45.8232 H         1 UNK         0.0800 
    143 H143        1.8069  -22.6648  -47.4067 H         1 UNK         0.0600 
    144 H144        2.2377  -22.1654  -44.5421 H         1 UNK         0.3000 
    145 H145        3.4330  -25.4332  -43.9007 H         1 UNK         0.0600 
    146 H146        5.5625  -24.3083  -43.2862 H         1 UNK         0.0600 
    147 H147        5.4411  -24.4678  -45.0310 H         1 UNK         0.0600 
    148 H148        5.1372  -22.9091  -44.2736 H         1 UNK         0.0600 
    149 H149        3.5236  -22.9782  -42.4111 H         1 UNK         0.3000 
    150 H150        0.2501  -23.1258  -41.0670 H         1 UNK         0.0600 
    151 H151        2.9225  -23.7448  -39.7013 H         1 UNK         0.0600 
    152 H152        1.4995  -24.7792  -39.6662 H         1 UNK         0.0600 
    153 H153        1.4463  -23.1980  -38.9048 H         1 UNK         0.0600 
    154 H154        2.3267  -21.3933  -40.3807 H         1 UNK         0.3000 
    155 H155        1.9554  -19.1158  -41.0335 H         1 UNK         0.0600 
    156 H156        3.7221  -19.8451  -43.4465 H         1 UNK         0.0600 
    157 H157        4.1428  -20.0746  -41.7542 H         1 UNK         0.0600 
    158 H158        3.9671  -18.4508  -42.3965 H         1 UNK         0.0600 
    159 H159        1.7240  -18.5244  -43.9041 H         1 UNK         0.3000 
    160 H160        0.1728  -17.2922  -44.7229 H         1 UNK         0.0600 
    161 H161       -2.4630  -18.4504  -43.6733 H         1 UNK         0.0600 
    162 H162       -1.3052  -19.3097  -44.6782 H         1 UNK         0.0600 
    163 H163       -2.1578  -17.9159  -45.3241 H         1 UNK         0.0600 
    164 H164       -2.0934  -15.9579  -43.7826 H         1 UNK         0.3000 
    165 H165       -1.8940  -13.7733  -42.3840 H         1 UNK         0.0600 
    166 H166        0.2570  -12.6101  -41.9003 H         1 UNK         0.0600 
    167 H167        0.5253  -12.3429  -43.6204 H         1 UNK         0.0600 
    168 H168       -0.8203  -11.5546  -42.8024 H         1 UNK         0.0600 
    169 H169       -1.1690  -13.4566  -45.2738 H         1 UNK         0.3000 
    170 H170       -3.7391  -14.0950  -46.5211 H         1 UNK         0.0600 
    171 H171       -5.6991  -12.8367  -45.7630 H         1 UNK         0.0600 
    172 H172       -4.8251  -11.3149  -45.8424 H         1 UNK         0.0600 
    173 H173       -5.1860  -12.2087  -47.3192 H         1 UNK         0.0600 
    174 H174       -2.1830  -13.1515  -47.7297 H         1 UNK         0.3000 
    175 H175       -1.2294  -10.2114  -48.6436 H         1 UNK         0.0600 
    176 H176        1.1950  -10.1914  -47.9190 H         1 UNK         0.0600 
    177 H177        0.1262   -9.4252  -46.7559 H         1 UNK         0.0600 
    178 H178        0.7357  -11.0427  -46.4442 H         1 UNK         0.0600 
    179 H179        0.0858  -12.8438  -48.1456 H         1 UNK         0.3000 
    180 H180       -1.1407  -14.2340  -51.0772 H         1 UNK         0.0600 
    181 H181        1.8037  -13.4194  -50.8803 H         1 UNK         0.0600 
    182 H182        0.7263  -12.9300  -52.1831 H         1 UNK         0.0600 
    183 H183        1.0907  -14.6282  -51.9554 H         1 UNK         0.0600 
    184 H184        0.9729  -15.0666  -49.3250 H         1 UNK         0.3000 
    185 H185       -1.0839  -16.1041  -46.6344 H         1 UNK         0.0600 
    186 H186       -1.3187  -17.9869  -48.3119 H         1 UNK         0.0600 
    187 H187        0.4178  -17.9089  -48.5868 H         1 UNK         0.0600 
    188 H188       -0.2090  -18.3386  -46.9986 H         1 UNK         0.0600 
    189 H189        1.6678  -16.5425  -47.0205 H         1 UNK         0.3000 
    190 H190       -0.0550  -22.2561  -44.3878 H         1 UNK         0.3000 
    191 H191       -2.6526  -22.6174  -45.4444 H         1 UNK         0.0600 
    192 H192       -2.1334  -21.5888  -43.2300 H         1 UNK         0.0600 
    193 H193       -3.2652  -22.9214  -43.0492 H         1 UNK         0.0600 
    194 H194       -1.5727  -23.1473  -42.6259 H         1 UNK         0.0600 
    195 H195       -0.1856  -24.9783  -44.8778 H         1 UNK         0.3000 
    196 H196       -1.8083  -27.3270  -44.6215 H         1 UNK         0.0600 
    197 H197        0.3496  -28.4909  -45.1319 H         1 UNK         0.0600 
    198 H198        0.5633  -27.2536  -43.9070 H         1 UNK         0.0600 
    199 H199        1.0847  -26.9526  -45.5648 H         1 UNK         0.0600 
    200 H200       -1.2690  -25.2871  -47.3540 H         1 UNK         0.3000 
    201 H201       -1.3904  -27.1908  -49.4852 H         1 UNK         0.0600 
    202 H202       -1.9734  -25.1739  -50.8443 H         1 UNK         0.0600 
    203 H203       -2.2504  -24.2454  -49.3755 H         1 UNK         0.0600 
    204 H204       -0.6312  -24.8203  -49.7674 H         1 UNK         0.0600 
    205 H205       -3.1617  -27.6752  -50.8760 H         1 UNK         0.3000 
    206 H206       -5.6841  -28.2188  -49.5625 H         1 UNK         0.0600 
    207 H207       -4.6344  -29.8453  -51.0999 H         1 UNK         0.0600 
    208 H208       -6.1939  -29.3420  -51.7298 H         1 UNK         0.0600 
    209 H209       -4.7164  -28.6924  -52.4315 H         1 UNK         0.0600 
    210 H210       -5.8572  -25.8115  -49.1636 H         1 UNK         0.3000 
    211 H211       -7.0829  -23.9903  -49.2000 H         1 UNK         0.0600 
    212 H212       -8.6369  -25.1289  -51.5818 H         1 UNK         0.0600 
    213 H213       -9.1351  -23.7945  -50.5548 H         1 UNK         0.0600 
    214 H214       -9.0128  -25.4122  -49.8819 H         1 UNK         0.0600 
    215 H215       -5.3744  -24.7830  -52.0651 H         1 UNK         0.3000 
    216 H216       -5.6462  -22.6938  -53.7641 H         1 UNK         0.0600 
    217 H217       -3.3369  -23.2522  -54.5509 H         1 UNK         0.0600 
    218 H218       -4.2829  -24.6965  -54.2291 H         1 UNK         0.0600 
    219 H219       -3.0541  -24.1734  -53.0780 H         1 UNK         0.0600 
    220 H220       -3.5956  -22.6332  -50.8627 H         1 UNK         0.3000 
    221 H221       -2.2819  -20.1586  -51.3225 H         1 UNK         0.0600 
    222 H222       -1.7178  -20.3244  -48.8946 H         1 UNK         0.0600 
    223 H223       -2.8632  -21.6467  -48.7111 H         1 UNK         0.0600 
    224 H224       -1.4368  -21.8390  -49.7307 H         1 UNK         0.0600 
    225 H225       -5.4844  -20.8781  -50.0192 H         1 UNK         0.3000 
    226 H226       -5.9205  -18.0908  -49.1007 H         1 UNK         0.0600 
    227 H227       -8.0980  -18.9892  -48.3245 H         1 UNK         0.0600 
    228 H228       -7.7339  -20.5614  -49.0239 H         1 UNK         0.0600 
    229 H229       -6.7720  -19.9455  -47.6811 H         1 UNK         0.0600 
    230 H230       -6.9131  -20.4114  -51.6220 H         1 UNK         0.3000 
    231 H231       -8.9758  -18.8668  -52.7582 H         1 UNK         0.0600 
    232 H232       -7.2994  -21.0901  -54.0269 H         1 UNK         0.0600 
    233 H233       -8.8665  -20.5306  -54.5924 H         1 UNK         0.0600 
    234 H234       -8.7356  -21.3299  -53.0325 H         1 UNK         0.0600 
    235 H235       -5.4961  -19.0308  -53.6498 H         1 UNK         0.3000 
    236 H236       -5.7269  -16.5275  -55.1557 H         1 UNK         0.0600 
    237 H237       -4.8759  -17.5460  -57.3026 H         1 UNK         0.0600 
    238 H238       -5.0914  -19.1519  -56.6139 H         1 UNK         0.0600 
    239 H239       -6.4857  -18.1126  -56.8984 H         1 UNK         0.0600 
    240 H240       -3.7064  -19.1762  -53.9094 H         1 UNK         0.3000 
    241 H241       -1.6369  -19.3402  -53.3284 H         1 UNK         0.0600 
    242 H242       -2.3590  -19.3122  -56.3009 H         1 UNK         0.3800 
    243 H243       -0.7871  -19.2463  -57.0532 H         1 UNK         0.3800 
    244 H244       -2.1118  -16.6823  -52.5673 H         1 UNK         0.0800 
    245 H245       -0.6585  -16.5093  -53.4866 H         1 UNK         0.0800 
    246 H246        1.4609  -18.8780  -52.6226 H         1 UNK         0.0800 
    247 H247        1.5405  -17.1389  -52.7713 H         1 UNK         0.0800 
@<TRIPOS>BOND
     1    1    2 1    
     2    1  127 1    
     3    1  128 1    
     4    1  129 1    
     5    2    3 2    
     6    2    4 am   BACKBONE|DICT|INTERRES
     7    4    5 1    
     8    4  130 1    
     9    5    6 1    
    10    5   65 1    
    11    5  131 1    
    12    6    7 1    
    13    6  132 1    
    14    6  133 1    
    15    7    8 1    
    16    8    9 1    
    17    8  134 1    
    18    8  135 1    
    19    9   10 ar   
    20    9   14 ar   
    21   10   11 ar   
    22   10  136 1    
    23   11   12 ar   
    24   11  126 1    
    25   12   13 ar   
    26   12  137 1    
    27   13   14 ar   
    28   13   15 1    
    29   14  138 1    
    30   15   16 1    
    31   15  139 1    
    32   15  140 1    
    33   16   17 1    
    34   17   18 1    
    35   17  141 1    
    36   17  142 1    
    37   18   19 1    
    38   18   67 1    
    39   18  143 1    
    40   19   20 am   BACKBONE|DICT|INTERRES
    41   19  144 1    
    42   20   21 2    
    43   20   22 1    
    44   22   23 1    
    45   22   24 1    
    46   22  145 1    
    47   23  146 1    
    48   23  147 1    
    49   23  148 1    
    50   24   25 am   BACKBONE|DICT|INTERRES
    51   24  149 1    
    52   25   26 2    
    53   25   27 1    
    54   27   28 1    
    55   27   29 1    
    56   27  150 1    
    57   28  151 1    
    58   28  152 1    
    59   28  153 1    
    60   29   30 am   BACKBONE|DICT|INTERRES
    61   29  154 1    
    62   30   31 2    
    63   30   32 1    
    64   32   33 1    
    65   32   34 1    
    66   32  155 1    
    67   33  156 1    
    68   33  157 1    
    69   33  158 1    
    70   34   35 am   BACKBONE|DICT|INTERRES
    71   34  159 1    
    72   35   36 2    
    73   35   37 1    
    74   37   38 1    
    75   37   39 1    
    76   37  160 1    
    77   38  161 1    
    78   38  162 1    
    79   38  163 1    
    80   39   40 am   BACKBONE|DICT|INTERRES
    81   39  164 1    
    82   40   41 2    
    83   40   42 1    
    84   42   43 1    
    85   42   44 1    
    86   42  165 1    
    87   43  166 1    
    88   43  167 1    
    89   43  168 1    
    90   44   45 am   BACKBONE|DICT|INTERRES
    91   44  169 1    
    92   45   46 2    
    93   45   47 1    
    94   47   48 1    
    95   47   49 1    
    96   47  170 1    
    97   48  171 1    
    98   48  172 1    
    99   48  173 1    
   100   49   50 am   BACKBONE|DICT|INTERRES
   101   49  174 1    
   102   50   51 2    
   103   50   52 1    
   104   52   53 1    
   105   52   54 1    
   106   52  175 1    
   107   53  176 1    
   108   53  177 1    
   109   53  178 1    
   110   54   55 am   BACKBONE|DICT|INTERRES
   111   54  179 1    
   112   55   56 2    
   113   55   57 1    
   114   57   58 1    
   115   57   59 1    
   116   57  180 1    
   117   58  181 1    
   118   58  182 1    
   119   58  183 1    
   120   59   60 am   BACKBONE|DICT|INTERRES
   121   59  184 1    
   122   60   61 2    
   123   60   62 1    
   124   62   63 1    
   125   62   64 1    
   126   62  185 1    
   127   63  186 1    
   128   63  187 1    
   129   63  188 1    
   130   64   65 am   BACKBONE|DICT|INTERRES
   131   64  189 1    
   132   65   66 2    
   133   67   68 2    
   134   67   69 am   BACKBONE|DICT|INTERRES
   135   69   70 1    
   136   69  190 1    
   137   70   71 1    
   138   70   72 1    
   139   70  191 1    
   140   71  192 1    
   141   71  193 1    
   142   71  194 1    
   143   72   73 2    
   144   72   74 am   BACKBONE|DICT|INTERRES
   145   74   75 1    
   146   74  195 1    
   147   75   76 1    
   148   75   77 1    
   149   75  196 1    
   150   76  197 1    
   151   76  198 1    
   152   76  199 1    
   153   77   78 2    
   154   77   79 am   BACKBONE|DICT|INTERRES
   155   79   80 1    
   156   79  200 1    
   157   80   81 1    
   158   80   82 1    
   159   80  201 1    
   160   81  202 1    
   161   81  203 1    
   162   81  204 1    
   163   82   83 2    
   164   82   84 am   BACKBONE|DICT|INTERRES
   165   84   85 1    
   166   84  205 1    
   167   85   86 1    
   168   85   87 1    
   169   85  206 1    
   170   86  207 1    
   171   86  208 1    
   172   86  209 1    
   173   87   88 2    
   174   87   89 am   BACKBONE|DICT|INTERRES
   175   89   90 1    
   176   89  210 1    
   177   90   91 1    
   178   90   92 1    
   179   90  211 1    
   180   91  212 1    
   181   91  213 1    
   182   91  214 1    
   183   92   93 2    
   184   92   94 am   BACKBONE|DICT|INTERRES
   185   94   95 1    
   186   94  215 1    
   187   95   96 1    
   188   95   97 1    
   189   95  216 1    
   190   96  217 1    
   191   96  218 1    
   192   96  219 1    
   193   97   98 2    
   194   97   99 am   BACKBONE|DICT|INTERRES
   195   99  100 1    
   196   99  220 1    
   197  100  101 1    
   198  100  102 1    
   199  100  221 1    
   200  101  222 1    
   201  101  223 1    
   202  101  224 1    
   203  102  103 2    
   204  102  104 am   BACKBONE|DICT|INTERRES
   205  104  105 1    
   206  104  225 1    
   207  105  106 1    
   208  105  107 1    
   209  105  226 1    
   210  106  227 1    
   211  106  228 1    
   212  106  229 1    
   213  107  108 2    
   214  107  109 am   BACKBONE|DICT|INTERRES
   215  109  110 1    
   216  109  230 1    
   217  110  111 1    
   218  110  112 1    
   219  110  231 1    
   220  111  232 1    
   221  111  233 1    
   222  111  234 1    
   223  112  113 2    
   224  112  114 am   BACKBONE|DICT|INTERRES
   225  114  115 1    
   226  114  235 1    
   227  115  116 1    
   228  115  117 1    
   229  115  236 1    
   230  116  237 1    
   231  116  238 1    
   232  116  239 1    
   233  117  118 2    
   234  117  119 am   BACKBONE|DICT|INTERRES
   235  119  120 1    
   236  119  240 1    
   237  120  121 1    
   238  120  124 1    
   239  120  241 1    
   240  121  122 am   BACKBONE|DICT|INTERRES
   241  121  123 2    
   242  122  242 1    
   243  122  243 1    
   244  124  125 1    
   245  124  244 1    
   246  124  245 1    
   247  125  126 1    
   248  126  246 1    
   249  126  247 1    
@<TRIPOS>SUBSTRUCTURE
     1 UNK         1 GROUP             0       ****    0 ROOT    
