@<TRIPOS>MOLECULE
3R540
247   249    1
SMALL
USER_CHARGES


@<TRIPOS>ATOM
      1 CA          6.5808  -13.8044  -51.1758 C.3       0 UNK        -0.1800 
      2 C           5.3834  -12.8562  -51.1510 C.2       0 UNK         0.5000 
      3 O           5.5535  -11.6758  -51.4493 O.2       0 UNK        -0.5000 
      4 N           4.1609  -13.3005  -50.8284 N.am      1 UNK        -0.5000 
      5 CA          3.7497  -14.6205  -50.3398 C.3       1 UNK         0.1400 
      6 C6          2.2324  -14.8777  -50.5645 C.3       23 UNK        -0.0398 
      7 S7          1.1344  -13.4377  -50.2749 S.3       23 UNK        -0.2404 
      8 C8         -0.2788  -13.8283  -51.3565 C.3       23 UNK        -0.0205 
      9 C9         -1.2037  -14.8639  -50.7330 C.ar      23 UNK        -0.0193 
     10 C10        -2.3788  -14.4656  -50.0879 C.ar      23 UNK        -0.1150 
     11 C11        -3.2405  -15.4136  -49.5260 C.ar      23 UNK        -0.0193 
     12 C12        -2.8995  -16.7697  -49.5870 C.ar      23 UNK        -0.1150 
     13 C13        -1.7280  -17.1790  -50.2279 C.ar      23 UNK        -0.0193 
     14 C14        -0.8959  -16.2239  -50.8160 C.ar      23 UNK        -0.1150 
     15 C15        -1.3490  -18.6482  -50.2916 C.3       23 UNK        -0.0205 
     16 S16        -0.0015  -19.0304  -49.1353 S.3       23 UNK        -0.2404 
     17 C17        -0.8784  -19.2365  -47.5472 C.3       23 UNK        -0.0398 
     18 CA         -0.7066  -20.6756  -47.0048 C.3       11 UNK         0.1400 
     19 N          -0.5052  -20.7190  -45.5504 N.am      11 UNK        -0.5000 
     20 C          -0.0601  -21.8022  -44.8951 C.2       10 UNK         0.5000 
     21 O           0.2402  -22.8555  -45.4552 O.2       10 UNK        -0.5000 
     22 CA         -0.0161  -21.7277  -43.3624 C.3       10 UNK         0.1400 
     23 CB          1.2420  -20.9927  -42.8747 C.3       10 UNK        -0.1800 
     24 N          -1.2255  -21.0899  -42.8421 N.am      10 UNK        -0.5000 
     25 C          -2.4135  -21.7109  -42.7706 C.2       9 UNK         0.5000 
     26 O          -2.5728  -22.8984  -43.0525 O.2       9 UNK        -0.5000 
     27 CA         -3.6360  -20.8802  -42.3303 C.3       9 UNK         0.1400 
     28 CB         -3.8933  -21.0671  -40.8276 C.3       9 UNK        -0.1800 
     29 N          -3.5159  -19.4512  -42.6141 N.am      9 UNK        -0.5000 
     30 C          -3.4594  -18.8974  -43.8340 C.2       8 UNK         0.5000 
     31 O          -3.5305  -19.5363  -44.8841 O.2       8 UNK        -0.5000 
     32 CA         -3.1913  -17.3785  -43.8696 C.3       8 UNK         0.1400 
     33 CB         -4.5039  -16.5944  -43.7365 C.3       8 UNK        -0.1800 
     34 N          -2.2647  -16.9414  -42.8172 N.am      8 UNK        -0.5000 
     35 C          -1.0189  -17.4093  -42.6712 C.2       7 UNK         0.5000 
     36 O          -0.5205  -18.2367  -43.4348 O.2       7 UNK        -0.5000 
     37 CA         -0.2536  -16.9731  -41.4172 C.3       7 UNK         0.1400 
     38 CB         -0.3916  -18.0559  -40.3277 C.3       7 UNK        -0.1800 
     39 N           1.1509  -16.7435  -41.7461 N.am      7 UNK        -0.5000 
     40 C           2.0330  -16.1228  -40.9505 C.2       6 UNK         0.5000 
     41 O           1.7684  -15.7212  -39.8163 O.2       6 UNK        -0.5000 
     42 CA          3.4345  -15.8595  -41.5293 C.3       6 UNK         0.1400 
     43 CB          4.2418  -17.1581  -41.6913 C.3       6 UNK        -0.1800 
     44 N           3.3437  -15.1520  -42.8049 N.am      6 UNK        -0.5000 
     45 C           3.0740  -13.8426  -42.9195 C.2       5 UNK         0.5000 
     46 O           3.0066  -13.0734  -41.9597 O.2       5 UNK        -0.5000 
     47 CA          2.8095  -13.2940  -44.3363 C.3       5 UNK         0.1400 
     48 CB          4.1060  -12.7670  -44.9688 C.3       5 UNK        -0.1800 
     49 N           2.1965  -14.2801  -45.2259 N.am      5 UNK        -0.5000 
     50 C           0.9716  -14.7986  -45.0554 C.2       4 UNK         0.5000 
     51 O           0.1863  -14.4318  -44.1809 O.2       4 UNK        -0.5000 
     52 CA          0.5700  -15.9472  -45.9958 C.3       4 UNK         0.1400 
     53 CB         -0.1147  -15.3984  -47.2507 C.3       4 UNK        -0.1800 
     54 N           1.6991  -16.7984  -46.3833 N.am      4 UNK        -0.5000 
     55 C           2.3894  -17.5701  -45.5313 C.2       3 UNK         0.5000 
     56 O           2.1672  -17.6237  -44.3249 O.2       3 UNK        -0.5000 
     57 CA          3.5784  -18.3535  -46.1094 C.3       3 UNK         0.1400 
     58 CB          3.1103  -19.5448  -46.9584 C.3       3 UNK        -0.1800 
     59 N           4.4604  -17.4912  -46.8950 N.am      3 UNK        -0.5000 
     60 C           5.1900  -16.4945  -46.3731 C.2       2 UNK         0.5000 
     61 O           5.2357  -16.2373  -45.1702 O.2       2 UNK        -0.5000 
     62 CA          5.9824  -15.6210  -47.3610 C.3       2 UNK         0.1400 
     63 CB          7.3935  -16.1899  -47.5717 C.3       2 UNK        -0.1800 
     64 N           5.3304  -15.4587  -48.6632 N.am      2 UNK        -0.5000 
     65 C           4.1767  -14.8067  -48.8677 C.2       1 UNK         0.5000 
     66 O           3.4836  -14.3522  -47.9563 O.2       1 UNK        -0.5000 
     67 C          -1.8399  -21.6153  -47.4697 C.2       11 UNK         0.5000 
     68 O          -1.7398  -22.2082  -48.5451 O.2       11 UNK        -0.5000 
     69 N          -2.8602  -21.7979  -46.6192 N.am      12 UNK        -0.5000 
     70 CA         -3.9371  -22.7754  -46.7919 C.3       12 UNK         0.1400 
     71 CB         -5.0199  -22.5386  -45.7308 C.3       12 UNK        -0.1800 
     72 C          -3.4729  -24.2453  -46.7705 C.2       12 UNK         0.5000 
     73 O          -4.2057  -25.1012  -47.2644 O.2       12 UNK        -0.5000 
     74 N          -2.2824  -24.5151  -46.2201 N.am      13 UNK        -0.5000 
     75 CA         -1.6311  -25.8211  -46.2638 C.3       13 UNK         0.1400 
     76 CB         -0.9913  -26.1163  -44.8976 C.3       13 UNK        -0.1800 
     77 C          -0.5784  -25.8712  -47.3845 C.2       13 UNK         0.5000 
     78 O          -0.5341  -26.8517  -48.1279 O.2       13 UNK        -0.5000 
     79 N           0.2593  -24.8279  -47.4752 N.am      14 UNK        -0.5000 
     80 CA          1.4087  -24.7584  -48.3777 C.3       14 UNK         0.1400 
     81 CB          2.3257  -23.6023  -47.9467 C.3       14 UNK        -0.1800 
     82 C           1.0359  -24.6220  -49.8644 C.2       14 UNK         0.5000 
     83 O           1.6747  -25.2634  -50.7002 O.2       14 UNK        -0.5000 
     84 N           0.0342  -23.7876  -50.1685 N.am      15 UNK        -0.5000 
     85 CA         -0.4205  -23.5026  -51.5304 C.3       15 UNK         0.1400 
     86 CB         -0.3278  -21.9935  -51.7905 C.3       15 UNK        -0.1800 
     87 C          -1.8548  -24.0013  -51.7491 C.2       15 UNK         0.5000 
     88 O          -2.1344  -24.5983  -52.7895 O.2       15 UNK        -0.5000 
     89 N          -2.7293  -23.7738  -50.7581 N.am      16 UNK        -0.5000 
     90 CA         -4.1148  -24.2436  -50.6991 C.3       16 UNK         0.1400 
     91 CB         -4.1314  -25.7750  -50.4781 C.3       16 UNK        -0.1800 
     92 C          -4.9519  -23.7760  -51.9121 C.2       16 UNK         0.5000 
     93 O          -4.9787  -22.5797  -52.2160 O.2       16 UNK        -0.5000 
     94 N          -5.6144  -24.7229  -52.5882 N.am      17 UNK        -0.5000 
     95 CA         -6.4839  -24.5060  -53.7437 C.3       17 UNK         0.1400 
     96 CB         -7.2319  -25.8123  -54.0503 C.3       17 UNK        -0.1800 
     97 C          -5.7592  -23.9935  -55.0034 C.2       17 UNK         0.5000 
     98 O          -6.4202  -23.4230  -55.8708 O.2       17 UNK        -0.5000 
     99 N          -4.4317  -24.1757  -55.0886 N.am      18 UNK        -0.5000 
    100 CA        -3.6135  -23.6863  -56.2029 C.3       18 UNK         0.1400 
    101 CB        -2.2250  -24.3417  -56.1605 C.3       18 UNK        -0.1800 
    102 C         -3.4901  -22.1511  -56.2117 C.2       18 UNK         0.5000 
    103 O         -3.4601  -21.5513  -57.2868 O.2       18 UNK        -0.5000 
    104 N         -3.4502  -21.5473  -55.0162 N.am      19 UNK        -0.5000 
    105 CA        -3.4738  -20.0961  -54.8234 C.3       19 UNK         0.1400 
    106 CB        -2.6005  -19.7427  -53.6091 C.3       19 UNK        -0.1800 
    107 C         -4.8995  -19.5552  -54.6137 C.2       19 UNK         0.5000 
    108 O         -5.0962  -18.3443  -54.7171 O.2       19 UNK        -0.5000 
    109 N         -5.8458  -20.4489  -54.2813 N.am      20 UNK        -0.5000 
    110 CA        -7.1804  -20.1669  -53.7391 C.3       20 UNK         0.1400 
    111 CB        -8.0747  -19.4528  -54.7737 C.3       20 UNK        -0.1800 
    112 C         -7.0532  -19.4156  -52.3980 C.2       20 UNK         0.5000 
    113 O         -7.5947  -18.3206  -52.2340 O.2       20 UNK        -0.5000 
    114 N         -6.2471  -20.0078  -51.5057 N.am      21 UNK        -0.5000 
    115 CA        -5.7384  -19.4243  -50.2682 C.3       21 UNK         0.1400 
    116 CB        -4.8535  -20.4685  -49.5742 C.3       21 UNK        -0.1800 
    117 C         -6.8140  -18.9110  -49.2914 C.2       21 UNK         0.5000 
    118 O         -7.8957  -19.4918  -49.1799 O.2       21 UNK        -0.5000 
    119 N         -6.4476  -17.8468  -48.5721 N.am      22 UNK        -0.5000 
    120 CA        -7.2203  -17.1804  -47.5135 C.3       22 UNK         0.1400 
    121 C         -7.3638  -17.9833  -46.1879 C.2       22 UNK         0.5000 
    122 N         -6.5813  -19.0272  -45.9503 N.am      22 UNK        -0.7600 
    123 O         -8.2113  -17.6551  -45.3624 O.2       22 UNK        -0.5000 
    124 C124       -6.6904  -15.7381  -47.2585 C.3       23 UNK        -0.0398 
    125 S125       -4.8598  -15.6021  -47.2419 S.3       23 UNK        -0.2404 
    126 C126       -4.5715  -14.9726  -48.9300 C.3       23 UNK        -0.0205 
    127 H127        7.0261  -13.8804  -50.1843 H         1 UNK         0.0600 
    128 H128        7.3458  -13.4189  -51.8502 H         1 UNK         0.0600 
    129 H129        6.3183  -14.7999  -51.5295 H         1 UNK         0.0600 
    130 H130        3.4059  -12.6285  -50.8227 H         1 UNK         0.3000 
    131 H131        4.2664  -15.3816  -50.9259 H         1 UNK         0.0600 
    132 H132        2.0951  -15.1912  -51.5999 H         1 UNK         0.0800 
    133 H133        1.8820  -15.7159  -49.9594 H         1 UNK         0.0800 
    134 H134       -0.8303  -12.9069  -51.5491 H         1 UNK         0.0800 
    135 H135        0.0740  -14.1740  -52.3292 H         1 UNK         0.0800 
    136 H136       -2.6322  -13.4158  -50.0430 H         1 UNK         0.1150 
    137 H137       -3.5456  -17.5085  -49.1397 H         1 UNK         0.1150 
    138 H138        0.0035  -16.5434  -51.3218 H         1 UNK         0.1150 
    139 H139       -2.2056  -19.2916  -50.0936 H         1 UNK         0.0800 
    140 H140       -1.0140  -18.8849  -51.3019 H         1 UNK         0.0800 
    141 H141       -0.4368  -18.5236  -46.8535 H         1 UNK         0.0800 
    142 H142       -1.9274  -18.9467  -47.6317 H         1 UNK         0.0800 
    143 H143        0.2117  -21.0849  -47.4289 H         1 UNK         0.0600 
    144 H144       -0.7373  -19.8889  -45.0183 H         1 UNK         0.3000 
    145 H145        0.0321  -22.7493  -42.9787 H         1 UNK         0.0600 
    146 H146        1.2636  -20.9236  -41.7873 H         1 UNK         0.0600 
    147 H147        2.1423  -21.5248  -43.1841 H         1 UNK         0.0600 
    148 H148        1.3139  -19.9834  -43.2767 H         1 UNK         0.0600 
    149 H149       -1.1699  -20.0948  -42.6666 H         1 UNK         0.3000 
    150 H150       -4.5046  -21.2552  -42.8744 H         1 UNK         0.0600 
    151 H151       -4.0194  -22.1223  -40.5810 H         1 UNK         0.0600 
    152 H152       -4.8016  -20.5516  -40.5151 H         1 UNK         0.0600 
    153 H153       -3.0660  -20.6863  -40.2273 H         1 UNK         0.0600 
    154 H154       -3.4394  -18.8407  -41.8145 H         1 UNK         0.3000 
    155 H155       -2.7429  -17.1431  -44.8373 H         1 UNK         0.0600 
    156 H156       -4.3388  -15.5246  -43.8657 H         1 UNK         0.0600 
    157 H157       -4.9729  -16.7493  -42.7642 H         1 UNK         0.0600 
    158 H158       -5.2205  -16.9028  -44.4964 H         1 UNK         0.0600 
    159 H159       -2.6213  -16.2697  -42.1528 H         1 UNK         0.3000 
    160 H160       -0.6820  -16.0362  -41.0557 H         1 UNK         0.0600 
    161 H161        0.0867  -18.9885  -40.6288 H         1 UNK         0.0600 
    162 H162       -1.4398  -18.2760  -40.1218 H         1 UNK         0.0600 
    163 H163        0.0573  -17.7410  -39.3862 H         1 UNK         0.0600 
    164 H164        1.4361  -17.0570  -42.6740 H         1 UNK         0.3000 
    165 H165        3.9767  -15.2276  -40.8224 H         1 UNK         0.0600 
    166 H166        3.7474  -17.8768  -42.3432 H         1 UNK         0.0600 
    167 H167        5.2296  -16.9574  -42.1066 H         1 UNK         0.0600 
    168 H168        4.3865  -17.6443  -40.7260 H         1 UNK         0.0600 
    169 H169        3.3819  -15.7200  -43.6418 H         1 UNK         0.3000 
    170 H170        2.1152  -12.4566  -44.2417 H         1 UNK         0.0600 
    171 H171        3.9220  -12.3463  -45.9576 H         1 UNK         0.0600 
    172 H172        4.5454  -11.9791  -44.3560 H         1 UNK         0.0600 
    173 H173        4.8519  -13.5544  -45.0719 H         1 UNK         0.0600 
    174 H174        2.7469  -14.5826  -46.0223 H         1 UNK         0.3000 
    175 H175       -0.1525  -16.5688  -45.4659 H         1 UNK         0.0600 
    176 H176       -1.0031  -14.8197  -46.9946 H         1 UNK         0.0600 
    177 H177        0.5533  -14.7458  -47.8099 H         1 UNK         0.0600 
    178 H178       -0.4324  -16.2025  -47.9109 H         1 UNK         0.0600 
    179 H179        1.9763  -16.7710  -47.3524 H         1 UNK         0.3000 
    180 H180        4.1509  -18.7490  -45.2673 H         1 UNK         0.0600 
    181 H181        2.6171  -19.2199  -47.8735 H         1 UNK         0.0600 
    182 H182        2.4070  -20.1683  -46.4049 H         1 UNK         0.0600 
    183 H183        3.9505  -20.1789  -47.2415 H         1 UNK         0.0600 
    184 H184        4.4861  -17.6399  -47.8925 H         1 UNK         0.3000 
    185 H185        6.0818  -14.6297  -46.9143 H         1 UNK         0.0600 
    186 H186        7.9963  -15.5302  -48.1962 H         1 UNK         0.0600 
    187 H187        7.9159  -16.3002  -46.6204 H         1 UNK         0.0600 
    188 H188        7.3662  -17.1714  -48.0467 H         1 UNK         0.0600 
    189 H189        5.8379  -15.8217  -49.4565 H         1 UNK         0.3000 
    190 H190       -2.9107  -21.2104  -45.7930 H         1 UNK         0.3000 
    191 H191       -4.3821  -22.6024  -47.7696 H         1 UNK         0.0600 
    192 H192       -5.8904  -23.1690  -45.9158 H         1 UNK         0.0600 
    193 H193       -5.3614  -21.5052  -45.7351 H         1 UNK         0.0600 
    194 H194       -4.6579  -22.7712  -44.7305 H         1 UNK         0.0600 
    195 H195       -1.7439  -23.7554  -45.8256 H         1 UNK         0.3000 
    196 H196       -2.3653  -26.6054  -46.4601 H         1 UNK         0.0600 
    197 H197       -0.5113  -27.0957  -44.8958 H         1 UNK         0.0600 
    198 H198       -1.7416  -26.1196  -44.1066 H         1 UNK         0.0600 
    199 H199       -0.2332  -25.3790  -44.6322 H         1 UNK         0.0600 
    200 H200        0.1865  -24.0809  -46.7883 H         1 UNK         0.3000 
    201 H201        1.9717  -25.6874  -48.2651 H         1 UNK         0.0600 
    202 H202        2.6456  -23.7157  -46.9107 H         1 UNK         0.0600 
    203 H203        1.8292  -22.6368  -48.0396 H         1 UNK         0.0600 
    204 H204        3.2251  -23.5671  -48.5626 H         1 UNK         0.0600 
    205 H205       -0.4630  -23.3141  -49.4202 H         1 UNK         0.3000 
    206 H206        0.2144  -24.0047  -52.2631 H         1 UNK         0.0600 
    207 H207        0.6790  -21.6196  -51.6041 H         1 UNK         0.0600 
    208 H208       -0.5688  -21.7740  -52.8297 H         1 UNK         0.0600 
    209 H209       -1.0156  -21.4308  -51.1592 H         1 UNK         0.0600 
    210 H210       -2.4170  -23.2214  -49.9643 H         1 UNK         0.3000 
    211 H211       -4.5643  -23.7754  -49.8243 H         1 UNK         0.0600 
    212 H212       -3.7648  -26.3228  -51.3471 H         1 UNK         0.0600 
    213 H213       -5.1364  -26.1322  -50.2506 H         1 UNK         0.0600 
    214 H214       -3.4977  -26.0539  -49.6363 H         1 UNK         0.0600 
    215 H215       -5.5160  -25.6793  -52.2798 H         1 UNK         0.3000 
    216 H216       -7.2206  -23.7494  -53.4659 H         1 UNK         0.0600 
    217 H217       -6.5440  -26.6172  -54.3124 H         1 UNK         0.0600 
    218 H218       -7.8229  -26.1396  -53.1947 H         1 UNK         0.0600 
    219 H219       -7.9199  -25.6832  -54.8870 H         1 UNK         0.0600 
    220 H220       -3.9433  -24.6299  -54.3269 H         1 UNK         0.3000 
    221 H221       -4.0978  -23.9874  -57.1344 H         1 UNK         0.0600 
    222 H222       -2.2993  -25.4289  -56.1315 H         1 UNK         0.0600 
    223 H223       -1.6465  -24.0785  -57.0468 H         1 UNK         0.0600 
    224 H224       -1.6505  -24.0193  -55.2922 H         1 UNK         0.0600 
    225 H225       -3.4846  -22.1190  -54.1830 H         1 UNK         0.3000 
    226 H226       -3.0574  -19.5915  -55.6977 H         1 UNK         0.0600 
    227 H227       -2.9037  -20.2946  -52.7181 H         1 UNK         0.0600 
    228 H228       -1.5526  -19.9606  -53.8094 H         1 UNK         0.0600 
    229 H229       -2.6627  -18.6793  -53.3727 H         1 UNK         0.0600 
    230 H230       -5.5524  -21.4125  -54.2131 H         1 UNK         0.3000 
    231 H231       -7.6386  -21.1317  -53.5168 H         1 UNK         0.0600 
    232 H232       -9.0928  -19.3484  -54.3972 H         1 UNK         0.0600 
    233 H233       -8.1276  -20.0193  -55.7034 H         1 UNK         0.0600 
    234 H234       -7.7128  -18.4522  -55.0108 H         1 UNK         0.0600 
    235 H235       -5.8494  -20.9084  -51.7557 H         1 UNK         0.3000 
    236 H236       -5.1129  -18.5810  -50.5657 H         1 UNK         0.0600 
    237 H237       -4.0400  -20.7994  -50.2201 H         1 UNK         0.0600 
    238 H238       -4.4068  -20.0721  -48.6617 H         1 UNK         0.0600 
    239 H239       -5.4404  -21.3466  -49.3054 H         1 UNK         0.0600 
    240 H240       -5.5318  -17.4500  -48.7150 H         1 UNK         0.3000 
    241 H241       -8.2404  -17.0820  -47.8899 H         1 UNK         0.0600 
    242 H242       -6.6940  -19.5367  -45.0897 H         1 UNK         0.3800 
    243 H243       -5.8564  -19.2882  -46.5965 H         1 UNK         0.3800 
    244 H244       -7.0849  -15.0727  -48.0273 H         1 UNK         0.0800 
    245 H245       -7.0751  -15.3326  -46.3208 H         1 UNK         0.0800 
    246 H246       -4.6467  -13.8843  -48.9075 H         1 UNK         0.0800 
    247 H247       -5.3596  -15.3174  -49.6006 H         1 UNK         0.0800 
@<TRIPOS>BOND
     1    1    2 1    
     2    1  127 1    
     3    1  128 1    
     4    1  129 1    
     5    2    3 2    
     6    2    4 am   BACKBONE|DICT|INTERRES
     7    4    5 1    
     8    4  130 1    
     9    5    6 1    
    10    5   65 1    
    11    5  131 1    
    12    6    7 1    
    13    6  132 1    
    14    6  133 1    
    15    7    8 1    
    16    8    9 1    
    17    8  134 1    
    18    8  135 1    
    19    9   10 ar   
    20    9   14 ar   
    21   10   11 ar   
    22   10  136 1    
    23   11   12 ar   
    24   11  126 1    
    25   12   13 ar   
    26   12  137 1    
    27   13   14 ar   
    28   13   15 1    
    29   14  138 1    
    30   15   16 1    
    31   15  139 1    
    32   15  140 1    
    33   16   17 1    
    34   17   18 1    
    35   17  141 1    
    36   17  142 1    
    37   18   19 1    
    38   18   67 1    
    39   18  143 1    
    40   19   20 am   BACKBONE|DICT|INTERRES
    41   19  144 1    
    42   20   21 2    
    43   20   22 1    
    44   22   23 1    
    45   22   24 1    
    46   22  145 1    
    47   23  146 1    
    48   23  147 1    
    49   23  148 1    
    50   24   25 am   BACKBONE|DICT|INTERRES
    51   24  149 1    
    52   25   26 2    
    53   25   27 1    
    54   27   28 1    
    55   27   29 1    
    56   27  150 1    
    57   28  151 1    
    58   28  152 1    
    59   28  153 1    
    60   29   30 am   BACKBONE|DICT|INTERRES
    61   29  154 1    
    62   30   31 2    
    63   30   32 1    
    64   32   33 1    
    65   32   34 1    
    66   32  155 1    
    67   33  156 1    
    68   33  157 1    
    69   33  158 1    
    70   34   35 am   BACKBONE|DICT|INTERRES
    71   34  159 1    
    72   35   36 2    
    73   35   37 1    
    74   37   38 1    
    75   37   39 1    
    76   37  160 1    
    77   38  161 1    
    78   38  162 1    
    79   38  163 1    
    80   39   40 am   BACKBONE|DICT|INTERRES
    81   39  164 1    
    82   40   41 2    
    83   40   42 1    
    84   42   43 1    
    85   42   44 1    
    86   42  165 1    
    87   43  166 1    
    88   43  167 1    
    89   43  168 1    
    90   44   45 am   BACKBONE|DICT|INTERRES
    91   44  169 1    
    92   45   46 2    
    93   45   47 1    
    94   47   48 1    
    95   47   49 1    
    96   47  170 1    
    97   48  171 1    
    98   48  172 1    
    99   48  173 1    
   100   49   50 am   BACKBONE|DICT|INTERRES
   101   49  174 1    
   102   50   51 2    
   103   50   52 1    
   104   52   53 1    
   105   52   54 1    
   106   52  175 1    
   107   53  176 1    
   108   53  177 1    
   109   53  178 1    
   110   54   55 am   BACKBONE|DICT|INTERRES
   111   54  179 1    
   112   55   56 2    
   113   55   57 1    
   114   57   58 1    
   115   57   59 1    
   116   57  180 1    
   117   58  181 1    
   118   58  182 1    
   119   58  183 1    
   120   59   60 am   BACKBONE|DICT|INTERRES
   121   59  184 1    
   122   60   61 2    
   123   60   62 1    
   124   62   63 1    
   125   62   64 1    
   126   62  185 1    
   127   63  186 1    
   128   63  187 1    
   129   63  188 1    
   130   64   65 am   BACKBONE|DICT|INTERRES
   131   64  189 1    
   132   65   66 2    
   133   67   68 2    
   134   67   69 am   BACKBONE|DICT|INTERRES
   135   69   70 1    
   136   69  190 1    
   137   70   71 1    
   138   70   72 1    
   139   70  191 1    
   140   71  192 1    
   141   71  193 1    
   142   71  194 1    
   143   72   73 2    
   144   72   74 am   BACKBONE|DICT|INTERRES
   145   74   75 1    
   146   74  195 1    
   147   75   76 1    
   148   75   77 1    
   149   75  196 1    
   150   76  197 1    
   151   76  198 1    
   152   76  199 1    
   153   77   78 2    
   154   77   79 am   BACKBONE|DICT|INTERRES
   155   79   80 1    
   156   79  200 1    
   157   80   81 1    
   158   80   82 1    
   159   80  201 1    
   160   81  202 1    
   161   81  203 1    
   162   81  204 1    
   163   82   83 2    
   164   82   84 am   BACKBONE|DICT|INTERRES
   165   84   85 1    
   166   84  205 1    
   167   85   86 1    
   168   85   87 1    
   169   85  206 1    
   170   86  207 1    
   171   86  208 1    
   172   86  209 1    
   173   87   88 2    
   174   87   89 am   BACKBONE|DICT|INTERRES
   175   89   90 1    
   176   89  210 1    
   177   90   91 1    
   178   90   92 1    
   179   90  211 1    
   180   91  212 1    
   181   91  213 1    
   182   91  214 1    
   183   92   93 2    
   184   92   94 am   BACKBONE|DICT|INTERRES
   185   94   95 1    
   186   94  215 1    
   187   95   96 1    
   188   95   97 1    
   189   95  216 1    
   190   96  217 1    
   191   96  218 1    
   192   96  219 1    
   193   97   98 2    
   194   97   99 am   BACKBONE|DICT|INTERRES
   195   99  100 1    
   196   99  220 1    
   197  100  101 1    
   198  100  102 1    
   199  100  221 1    
   200  101  222 1    
   201  101  223 1    
   202  101  224 1    
   203  102  103 2    
   204  102  104 am   BACKBONE|DICT|INTERRES
   205  104  105 1    
   206  104  225 1    
   207  105  106 1    
   208  105  107 1    
   209  105  226 1    
   210  106  227 1    
   211  106  228 1    
   212  106  229 1    
   213  107  108 2    
   214  107  109 am   BACKBONE|DICT|INTERRES
   215  109  110 1    
   216  109  230 1    
   217  110  111 1    
   218  110  112 1    
   219  110  231 1    
   220  111  232 1    
   221  111  233 1    
   222  111  234 1    
   223  112  113 2    
   224  112  114 am   BACKBONE|DICT|INTERRES
   225  114  115 1    
   226  114  235 1    
   227  115  116 1    
   228  115  117 1    
   229  115  236 1    
   230  116  237 1    
   231  116  238 1    
   232  116  239 1    
   233  117  118 2    
   234  117  119 am   BACKBONE|DICT|INTERRES
   235  119  120 1    
   236  119  240 1    
   237  120  121 1    
   238  120  124 1    
   239  120  241 1    
   240  121  122 am   BACKBONE|DICT|INTERRES
   241  121  123 2    
   242  122  242 1    
   243  122  243 1    
   244  124  125 1    
   245  124  244 1    
   246  124  245 1    
   247  125  126 1    
   248  126  246 1    
   249  126  247 1    
@<TRIPOS>SUBSTRUCTURE
     1 UNK         1 GROUP             0       ****    0 ROOT    
