@<TRIPOS>MOLECULE
3R540
247   249    1
SMALL
USER_CHARGES


@<TRIPOS>ATOM
      1 CA          1.9693  -10.0979  -50.3132 C.3       0 UNK        -0.1800 
      2 C           2.0937  -11.2185  -49.2911 C.2       0 UNK         0.5000 
      3 O           2.1178  -10.9541  -48.0885 O.2       0 UNK        -0.5000 
      4 N           2.1633  -12.4700  -49.7597 N.am      1 UNK        -0.5000 
      5 CA          2.2758  -13.6961  -48.9596 C.3       1 UNK         0.1400 
      6 C6          2.9932  -14.8358  -49.7355 C.3       23 UNK        -0.0398 
      7 S7          2.4091  -15.1025  -51.4504 S.3       23 UNK        -0.2404 
      8 C8          3.7052  -16.2053  -52.1110 C.3       23 UNK        -0.0205 
      9 C9          3.3962  -17.6645  -51.8120 C.ar      23 UNK        -0.0193 
     10 C10         2.7853  -18.4706  -52.7783 C.ar      23 UNK        -0.1150 
     11 C11         2.4424  -19.7936  -52.4839 C.ar      23 UNK        -0.0193 
     12 C12         2.6826  -20.2944  -51.2013 C.ar      23 UNK        -0.1150 
     13 C13         3.3028  -19.5048  -50.2307 C.ar      23 UNK        -0.0193 
     14 C14         3.6942  -18.2028  -50.5579 C.ar      23 UNK        -0.1150 
     15 C15         3.5204  -20.0677  -48.8305 C.3       23 UNK        -0.0205 
     16 S16         3.0624  -18.9191  -47.4858 S.3       23 UNK        -0.2404 
     17 C17         1.4334  -18.2706  -48.0055 C.3       23 UNK        -0.0398 
     18 CA          0.3349  -19.3330  -48.2513 C.3       11 UNK         0.1400 
     19 N           0.2081  -20.2959  -47.1561 N.am      11 UNK        -0.5000 
     20 C          -0.4719  -21.4483  -47.2280 C.2       10 UNK         0.5000 
     21 O          -1.0237  -21.8520  -48.2506 O.2       10 UNK        -0.5000 
     22 CA         -0.5835  -22.2690  -45.9289 C.3       10 UNK         0.1400 
     23 CB          0.6147  -23.2192  -45.7909 C.3       10 UNK        -0.1800 
     24 N          -0.6698  -21.4260  -44.7346 N.am      10 UNK        -0.5000 
     25 C          -1.6985  -20.6136  -44.4484 C.2       9 UNK         0.5000 
     26 O          -2.7228  -20.5488  -45.1257 O.2       9 UNK        -0.5000 
     27 CA         -1.5238  -19.6649  -43.2458 C.3       9 UNK         0.1400 
     28 CB         -2.0435  -20.3167  -41.9579 C.3       9 UNK        -0.1800 
     29 N          -0.1336  -19.2399  -43.0592 N.am      9 UNK        -0.5000 
     30 C           0.5622  -18.5279  -43.9590 C.2       8 UNK         0.5000 
     31 O           0.0561  -18.0911  -44.9929 O.2       8 UNK        -0.5000 
     32 CA          2.0652  -18.3025  -43.7017 C.3       8 UNK         0.1400 
     33 CB          2.4324  -16.8117  -43.7342 C.3       8 UNK        -0.1800 
     34 N           2.5192  -18.8838  -42.4389 N.am      8 UNK        -0.5000 
     35 C           2.9648  -20.1392  -42.2889 C.2       7 UNK         0.5000 
     36 O           3.0274  -20.9531  -43.2104 O.2       7 UNK        -0.5000 
     37 CA          3.3934  -20.5659  -40.8699 C.3       7 UNK         0.1400 
     38 CB          4.9126  -20.4125  -40.7017 C.3       7 UNK        -0.1800 
     39 N           2.7201  -19.8106  -39.8110 N.am      7 UNK        -0.5000 
     40 C           1.4157  -19.9071  -39.5190 C.2       6 UNK         0.5000 
     41 O           0.6496  -20.6874  -40.0829 O.2       6 UNK        -0.5000 
     42 CA          0.8660  -18.9327  -38.4581 C.3       6 UNK         0.1400 
     43 CB          0.9263  -19.5686  -37.0613 C.3       6 UNK        -0.1800 
     44 N           1.5523  -17.6349  -38.4293 N.am      6 UNK        -0.5000 
     45 C           1.6041  -16.7775  -39.4567 C.2       5 UNK         0.5000 
     46 O           1.1088  -17.0080  -40.5645 O.2       5 UNK        -0.5000 
     47 CA          2.3698  -15.4670  -39.2270 C.3       5 UNK         0.1400 
     48 CB          3.8896  -15.7004  -39.2603 C.3       5 UNK        -0.1800 
     49 N           1.9981  -14.5521  -40.2957 N.am      5 UNK        -0.5000 
     50 C           1.8675  -13.2253  -40.2134 C.2       4 UNK         0.5000 
     51 O           2.1602  -12.5679  -39.2140 O.2       4 UNK        -0.5000 
     52 CA          1.3009  -12.5140  -41.4606 C.3       4 UNK         0.1400 
     53 CB          2.4297  -11.8431  -42.2580 C.3       4 UNK        -0.1800 
     54 N           0.5688  -13.4163  -42.3547 N.am      4 UNK        -0.5000 
     55 C          -0.6244  -13.9663  -42.1011 C.2       3 UNK         0.5000 
     56 O          -1.2887  -13.7044  -41.0970 O.2       3 UNK        -0.5000 
     57 CA         -1.1497  -14.9744  -43.1483 C.3       3 UNK         0.1400 
     58 CB         -2.4617  -15.6471  -42.7050 C.3       3 UNK        -0.1800 
     59 N          -1.3377  -14.3791  -44.4758 N.am      3 UNK        -0.5000 
     60 C          -0.3615  -14.0280  -45.3245 C.2       2 UNK         0.5000 
     61 O           0.8386  -14.1448  -45.0611 O.2       2 UNK        -0.5000 
     62 CA         -0.8051  -13.4122  -46.6675 C.3       2 UNK         0.1400 
     63 CB         -1.5081  -12.0623  -46.4466 C.3       2 UNK        -0.1800 
     64 N           0.3432  -13.1888  -47.5438 N.am      2 UNK        -0.5000 
     65 C           0.9268  -14.1095  -48.3191 C.2       1 UNK         0.5000 
     66 O           0.4455  -15.2242  -48.5224 O.2       1 UNK        -0.5000 
     67 C          -1.0166  -18.6466  -48.5237 C.2       11 UNK         0.5000 
     68 O          -1.4461  -18.5654  -49.6751 O.2       11 UNK        -0.5000 
     69 N          -1.6935  -18.2229  -47.4463 N.am      12 UNK        -0.5000 
     70 CA         -3.0315  -17.6359  -47.4924 C.3       12 UNK         0.1400 
     71 CB         -3.4145  -17.1150  -46.1036 C.3       12 UNK        -0.1800 
     72 C          -4.0912  -18.6142  -48.0276 C.2       12 UNK         0.5000 
     73 O          -4.9231  -18.2129  -48.8367 O.2       12 UNK        -0.5000 
     74 N          -4.0120  -19.8879  -47.6206 N.am      13 UNK        -0.5000 
     75 CA         -4.8609  -20.9719  -48.1184 C.3       13 UNK         0.1400 
     76 CB         -4.6724  -22.2088  -47.2311 C.3       13 UNK        -0.1800 
     77 C          -4.6144  -21.3203  -49.5998 C.2       13 UNK         0.5000 
     78 O          -5.5165  -21.8369  -50.2585 O.2       13 UNK        -0.5000 
     79 N          -3.4100  -21.0468  -50.1163 N.am      14 UNK        -0.5000 
     80 CA         -3.1039  -21.1679  -51.5396 C.3       14 UNK         0.1400 
     81 CB         -1.5911  -21.3007  -51.7451 C.3       14 UNK        -0.1800 
     82 C          -3.6801  -19.9831  -52.3334 C.2       14 UNK         0.5000 
     83 O          -4.2606  -20.1938  -53.3981 O.2       14 UNK        -0.5000 
     84 N          -3.5494  -18.7675  -51.7839 N.am      15 UNK        -0.5000 
     85 CA         -4.1180  -17.5390  -52.3431 C.3       15 UNK         0.1400 
     86 CB         -3.5828  -16.3278  -51.5641 C.3       15 UNK        -0.1800 
     87 C          -5.6601  -17.5459  -52.3629 C.2       15 UNK         0.5000 
     88 O          -6.2600  -17.0796  -53.3330 O.2       15 UNK        -0.5000 
     89 N          -6.2742  -18.1039  -51.3114 N.am      16 UNK        -0.5000 
     90 CA         -7.7154  -18.2882  -51.1434 C.3       16 UNK         0.1400 
     91 CB         -8.0208  -18.5050  -49.6509 C.3       16 UNK        -0.1800 
     92 C          -8.2665  -19.4277  -52.0257 C.2       16 UNK         0.5000 
     93 O          -8.7168  -20.4531  -51.5120 O.2       16 UNK        -0.5000 
     94 N          -8.2221  -19.2119  -53.3466 N.am      17 UNK        -0.5000 
     95 CA         -8.7917  -20.0487  -54.4075 C.3       17 UNK         0.1400 
     96 CB        -10.3334  -20.0356  -54.3320 C.3       17 UNK        -0.1800 
     97 C          -8.2063  -21.4760  -54.4734 C.2       17 UNK         0.5000 
     98 O          -8.9234  -22.4136  -54.8280 O.2       17 UNK        -0.5000 
     99 N          -6.9067  -21.6062  -54.1648 N.am      18 UNK        -0.5000 
    100 CA        -6.1034  -22.8283  -54.2596 C.3       18 UNK         0.1400 
    101 CB        -5.9073  -23.2301  -55.7379 C.3       18 UNK        -0.1800 
    102 C         -6.6226  -23.9848  -53.3807 C.2       18 UNK         0.5000 
    103 O         -6.6834  -25.1249  -53.8427 O.2       18 UNK        -0.5000 
    104 N         -6.9567  -23.6860  -52.1164 N.am      19 UNK        -0.5000 
    105 CA        -7.3456  -24.6935  -51.1249 C.3       19 UNK         0.1400 
    106 CB        -8.0310  -24.0230  -49.9237 C.3       19 UNK        -0.1800 
    107 C         -6.1401  -25.5459  -50.6839 C.2       19 UNK         0.5000 
    108 O         -6.2510  -26.7710  -50.6288 O.2       19 UNK        -0.5000 
    109 N         -4.9993  -24.8862  -50.4306 N.am      20 UNK        -0.5000 
    110 CA        -3.7073  -25.5435  -50.1875 C.3       20 UNK         0.1400 
    111 CB        -2.8674  -24.6919  -49.2253 C.3       20 UNK        -0.1800 
    112 C         -2.9241  -25.8063  -51.4891 C.2       20 UNK         0.5000 
    113 O         -1.9855  -26.6040  -51.4810 O.2       20 UNK        -0.5000 
    114 N         -3.3054  -25.1131  -52.5738 N.am      21 UNK        -0.5000 
    115 CA        -2.8043  -25.2414  -53.9512 C.3       21 UNK         0.1400 
    116 CB        -3.2847  -26.5736  -54.5610 C.3       21 UNK        -0.1800 
    117 C         -1.2811  -25.0353  -54.1156 C.2       21 UNK         0.5000 
    118 O         -0.6941  -25.5381  -55.0748 O.2       21 UNK        -0.5000 
    119 N         -0.6707  -24.2985  -53.1778 N.am      22 UNK        -0.5000 
    120 CA         0.7813  -24.0857  -53.0563 C.3       22 UNK         0.1400 
    121 C          1.5774  -25.3589  -52.6227 C.2       22 UNK         0.5000 
    122 N          0.9362  -26.3862  -52.0746 N.am      22 UNK        -0.7600 
    123 O          2.7963  -25.4166  -52.7572 O.2       22 UNK        -0.5000 
    124 C124        1.3822  -23.3517  -54.2944 C.3       23 UNK        -0.0398 
    125 S125        2.7227  -22.1933  -53.8538 S.3       23 UNK        -0.2404 
    126 C126        1.7713  -20.6734  -53.5278 C.3       23 UNK        -0.0205 
    127 H127        1.9590  -10.4800  -51.3343 H         1 UNK         0.0600 
    128 H128        2.8072   -9.4076  -50.2167 H         1 UNK         0.0600 
    129 H129        1.0466   -9.5413  -50.1488 H         1 UNK         0.0600 
    130 H130        2.1098  -12.6273  -50.7568 H         1 UNK         0.3000 
    131 H131        2.9238  -13.4687  -48.1099 H         1 UNK         0.0600 
    132 H132        2.9385  -15.7713  -49.1798 H         1 UNK         0.0800 
    133 H133        4.0557  -14.5952  -49.7891 H         1 UNK         0.0800 
    134 H134        3.7741  -16.0536  -53.1892 H         1 UNK         0.0800 
    135 H135        4.6808  -15.9334  -51.7056 H         1 UNK         0.0800 
    136 H136        2.5644  -18.0623  -53.7546 H         1 UNK         0.1150 
    137 H137        2.3855  -21.3061  -50.9625 H         1 UNK         0.1150 
    138 H138        4.1843  -17.5907  -49.8150 H         1 UNK         0.1150 
    139 H139        2.9503  -20.9885  -48.6962 H         1 UNK         0.0800 
    140 H140        4.5710  -20.3380  -48.7197 H         1 UNK         0.0800 
    141 H141        1.5664  -17.6757  -48.9091 H         1 UNK         0.0800 
    142 H142        1.1219  -17.5582  -47.2410 H         1 UNK         0.0800 
    143 H143        0.5990  -19.8909  -49.1516 H         1 UNK         0.0600 
    144 H144        0.6021  -20.0133  -46.2714 H         1 UNK         0.3000 
    145 H145       -1.4932  -22.8696  -45.9899 H         1 UNK         0.0600 
    146 H146        0.5110  -23.8599  -44.9150 H         1 UNK         0.0600 
    147 H147        1.5544  -22.6727  -45.6978 H         1 UNK         0.0600 
    148 H148        0.6978  -23.8711  -46.6617 H         1 UNK         0.0600 
    149 H149        0.1351  -21.4168  -44.1247 H         1 UNK         0.3000 
    150 H150       -2.1216  -18.7729  -43.4395 H         1 UNK         0.0600 
    151 H151       -3.0960  -20.5861  -42.0550 H         1 UNK         0.0600 
    152 H152       -1.9581  -19.6373  -41.1094 H         1 UNK         0.0600 
    153 H153       -1.4927  -21.2266  -41.7169 H         1 UNK         0.0600 
    154 H154        0.3333  -19.5590  -42.2212 H         1 UNK         0.3000 
    155 H155        2.5977  -18.7838  -44.5235 H         1 UNK         0.0600 
    156 H156        2.1918  -16.3782  -44.7053 H         1 UNK         0.0600 
    157 H157        3.5006  -16.6653  -43.5744 H         1 UNK         0.0600 
    158 H158        1.8999  -16.2413  -42.9754 H         1 UNK         0.0600 
    159 H159        2.4110  -18.2982  -41.6199 H         1 UNK         0.3000 
    160 H160        3.1399  -21.6216  -40.7518 H         1 UNK         0.0600 
    161 H161        5.2247  -19.3712  -40.7925 H         1 UNK         0.0600 
    162 H162        5.4494  -20.9836  -41.4604 H         1 UNK         0.0600 
    163 H163        5.2410  -20.7787  -39.7288 H         1 UNK         0.0600 
    164 H164        3.2798  -19.1463  -39.2971 H         1 UNK         0.3000 
    165 H165       -0.1819  -18.7461  -38.7030 H         1 UNK         0.0600 
    166 H166        0.4527  -18.9297  -36.3157 H         1 UNK         0.0600 
    167 H167        0.4039  -20.5261  -37.0449 H         1 UNK         0.0600 
    168 H168        1.9544  -19.7500  -36.7453 H         1 UNK         0.0600 
    169 H169        1.9919  -17.3803  -37.5563 H         1 UNK         0.3000 
    170 H170        2.0732  -15.0544  -38.2604 H         1 UNK         0.0600 
    171 H171        4.2087  -16.1367  -40.2080 H         1 UNK         0.0600 
    172 H172        4.4335  -14.7655  -39.1242 H         1 UNK         0.0600 
    173 H173        4.2032  -16.3756  -38.4635 H         1 UNK         0.0600 
    174 H174        1.6656  -15.0177  -41.1296 H         1 UNK         0.3000 
    175 H175        0.6139  -11.7387  -41.1155 H         1 UNK         0.0600 
    176 H176        3.1414  -12.5760  -42.6402 H         1 UNK         0.0600 
    177 H177        2.0347  -11.2851  -43.1072 H         1 UNK         0.0600 
    178 H178        2.9839  -11.1389  -41.6359 H         1 UNK         0.0600 
    179 H179        1.0078  -13.6454  -43.2433 H         1 UNK         0.3000 
    180 H180       -0.4002  -15.7620  -43.2329 H         1 UNK         0.0600 
    181 H181       -3.2796  -14.9295  -42.6323 H         1 UNK         0.0600 
    182 H182       -2.3473  -16.1187  -41.7279 H         1 UNK         0.0600 
    183 H183       -2.7617  -16.4299  -43.3985 H         1 UNK         0.0600 
    184 H184       -2.2947  -14.2018  -44.7428 H         1 UNK         0.3000 
    185 H185       -1.5011  -14.1020  -47.1496 H         1 UNK         0.0600 
    186 H186       -0.8613  -11.3527  -45.9286 H         1 UNK         0.0600 
    187 H187       -1.8026  -11.6132  -47.3955 H         1 UNK         0.0600 
    188 H188       -2.4147  -12.1764  -45.8515 H         1 UNK         0.0600 
    189 H189        0.8317  -12.3060  -47.4322 H         1 UNK         0.3000 
    190 H190       -1.2528  -18.2999  -46.5354 H         1 UNK         0.3000 
    191 H191       -2.9922  -16.7834  -48.1736 H         1 UNK         0.0600 
    192 H192       -2.6834  -16.3892  -45.7540 H         1 UNK         0.0600 
    193 H193       -3.4706  -17.9193  -45.3702 H         1 UNK         0.0600 
    194 H194       -4.3857  -16.6194  -46.1248 H         1 UNK         0.0600 
    195 H195       -3.3470  -20.1294  -46.8908 H         1 UNK         0.3000 
    196 H196       -5.9009  -20.6531  -48.0317 H         1 UNK         0.0600 
    197 H197       -4.9829  -22.0065  -46.2060 H         1 UNK         0.0600 
    198 H198       -3.6293  -22.5224  -47.2049 H         1 UNK         0.0600 
    199 H199       -5.2670  -23.0494  -47.5914 H         1 UNK         0.0600 
    200 H200       -2.6889  -20.6659  -49.5174 H         1 UNK         0.3000 
    201 H201       -3.5643  -22.0819  -51.9191 H         1 UNK         0.0600 
    202 H202       -1.1766  -22.1074  -51.1408 H         1 UNK         0.0600 
    203 H203       -1.0582  -20.3860  -51.4867 H         1 UNK         0.0600 
    204 H204       -1.3765  -21.5224  -52.7903 H         1 UNK         0.0600 
    205 H205       -3.0159  -18.6766  -50.9249 H         1 UNK         0.3000 
    206 H206       -3.7751  -17.4552  -53.3764 H         1 UNK         0.0600 
    207 H207       -2.4931  -16.2950  -51.5851 H         1 UNK         0.0600 
    208 H208       -3.8953  -16.3485  -50.5202 H         1 UNK         0.0600 
    209 H209       -3.9461  -15.3948  -51.9967 H         1 UNK         0.0600 
    210 H210       -5.6985  -18.3909  -50.5236 H         1 UNK         0.3000 
    211 H211       -8.2178  -17.3685  -51.4502 H         1 UNK         0.0600 
    212 H212       -7.5371  -19.4047  -49.2701 H         1 UNK         0.0600 
    213 H213       -9.0930  -18.6103  -49.4811 H         1 UNK         0.0600 
    214 H214       -7.6789  -17.6613  -49.0513 H         1 UNK         0.0600 
    215 H215       -7.7538  -18.3642  -53.6536 H         1 UNK         0.3000 
    216 H216       -8.5093  -19.5718  -55.3470 H         1 UNK         0.0600 
    217 H217      -10.6988  -20.5503  -53.4428 H         1 UNK         0.0600 
    218 H218      -10.7738  -20.5287  -55.1994 H         1 UNK         0.0600 
    219 H219      -10.7190  -19.0162  -54.3120 H         1 UNK         0.0600 
    220 H220       -6.3975  -20.7815  -53.8706 H         1 UNK         0.3000 
    221 H221       -5.1186  -22.5836  -53.8641 H         1 UNK         0.0600 
    222 H222       -6.8491  -23.5080  -56.2116 H         1 UNK         0.0600 
    223 H223       -5.4721  -22.4122  -56.3122 H         1 UNK         0.0600 
    224 H224       -5.2356  -24.0834  -55.8326 H         1 UNK         0.0600 
    225 H225       -6.8659  -22.7334  -51.7818 H         1 UNK         0.3000 
    226 H226       -8.0754  -25.3606  -51.5890 H         1 UNK         0.0600 
    227 H227       -8.8703  -23.4049  -50.2436 H         1 UNK         0.0600 
    228 H228       -8.4223  -24.7729  -49.2353 H         1 UNK         0.0600 
    229 H229       -7.3484  -23.3906  -49.3576 H         1 UNK         0.0600 
    230 H230       -5.0199  -23.8729  -50.4477 H         1 UNK         0.3000 
    231 H231       -3.8732  -26.5122  -49.7115 H         1 UNK         0.0600 
    232 H232       -1.8931  -25.1478  -49.0438 H         1 UNK         0.0600 
    233 H233       -3.3592  -24.6010  -48.2583 H         1 UNK         0.0600 
    234 H234       -2.6880  -23.6912  -49.6157 H         1 UNK         0.0600 
    235 H235       -4.0948  -24.4994  -52.4534 H         1 UNK         0.3000 
    236 H236       -3.2674  -24.4338  -54.5179 H         1 UNK         0.0600 
    237 H237       -2.8161  -27.4300  -54.0750 H         1 UNK         0.0600 
    238 H238       -4.3649  -26.6836  -54.4647 H         1 UNK         0.0600 
    239 H239       -3.0501  -26.6297  -55.6246 H         1 UNK         0.0600 
    240 H240       -1.2305  -23.9581  -52.4118 H         1 UNK         0.3000 
    241 H241        0.8723  -23.4141  -52.2020 H         1 UNK         0.0600 
    242 H242        1.4620  -27.1978  -51.7923 H         1 UNK         0.3800 
    243 H243       -0.0705  -26.3759  -51.9430 H         1 UNK         0.3800 
    244 H244        0.6113  -22.7822  -54.8155 H         1 UNK         0.0800 
    245 H245        1.7566  -24.0677  -55.0279 H         1 UNK         0.0800 
    246 H246        0.7798  -20.9303  -53.1635 H         1 UNK         0.0800 
    247 H247        1.6279  -20.1353  -54.4660 H         1 UNK         0.0800 
@<TRIPOS>BOND
     1    1    2 1    
     2    1  127 1    
     3    1  128 1    
     4    1  129 1    
     5    2    3 2    
     6    2    4 am   BACKBONE|DICT|INTERRES
     7    4    5 1    
     8    4  130 1    
     9    5    6 1    
    10    5   65 1    
    11    5  131 1    
    12    6    7 1    
    13    6  132 1    
    14    6  133 1    
    15    7    8 1    
    16    8    9 1    
    17    8  134 1    
    18    8  135 1    
    19    9   10 ar   
    20    9   14 ar   
    21   10   11 ar   
    22   10  136 1    
    23   11   12 ar   
    24   11  126 1    
    25   12   13 ar   
    26   12  137 1    
    27   13   14 ar   
    28   13   15 1    
    29   14  138 1    
    30   15   16 1    
    31   15  139 1    
    32   15  140 1    
    33   16   17 1    
    34   17   18 1    
    35   17  141 1    
    36   17  142 1    
    37   18   19 1    
    38   18   67 1    
    39   18  143 1    
    40   19   20 am   BACKBONE|DICT|INTERRES
    41   19  144 1    
    42   20   21 2    
    43   20   22 1    
    44   22   23 1    
    45   22   24 1    
    46   22  145 1    
    47   23  146 1    
    48   23  147 1    
    49   23  148 1    
    50   24   25 am   BACKBONE|DICT|INTERRES
    51   24  149 1    
    52   25   26 2    
    53   25   27 1    
    54   27   28 1    
    55   27   29 1    
    56   27  150 1    
    57   28  151 1    
    58   28  152 1    
    59   28  153 1    
    60   29   30 am   BACKBONE|DICT|INTERRES
    61   29  154 1    
    62   30   31 2    
    63   30   32 1    
    64   32   33 1    
    65   32   34 1    
    66   32  155 1    
    67   33  156 1    
    68   33  157 1    
    69   33  158 1    
    70   34   35 am   BACKBONE|DICT|INTERRES
    71   34  159 1    
    72   35   36 2    
    73   35   37 1    
    74   37   38 1    
    75   37   39 1    
    76   37  160 1    
    77   38  161 1    
    78   38  162 1    
    79   38  163 1    
    80   39   40 am   BACKBONE|DICT|INTERRES
    81   39  164 1    
    82   40   41 2    
    83   40   42 1    
    84   42   43 1    
    85   42   44 1    
    86   42  165 1    
    87   43  166 1    
    88   43  167 1    
    89   43  168 1    
    90   44   45 am   BACKBONE|DICT|INTERRES
    91   44  169 1    
    92   45   46 2    
    93   45   47 1    
    94   47   48 1    
    95   47   49 1    
    96   47  170 1    
    97   48  171 1    
    98   48  172 1    
    99   48  173 1    
   100   49   50 am   BACKBONE|DICT|INTERRES
   101   49  174 1    
   102   50   51 2    
   103   50   52 1    
   104   52   53 1    
   105   52   54 1    
   106   52  175 1    
   107   53  176 1    
   108   53  177 1    
   109   53  178 1    
   110   54   55 am   BACKBONE|DICT|INTERRES
   111   54  179 1    
   112   55   56 2    
   113   55   57 1    
   114   57   58 1    
   115   57   59 1    
   116   57  180 1    
   117   58  181 1    
   118   58  182 1    
   119   58  183 1    
   120   59   60 am   BACKBONE|DICT|INTERRES
   121   59  184 1    
   122   60   61 2    
   123   60   62 1    
   124   62   63 1    
   125   62   64 1    
   126   62  185 1    
   127   63  186 1    
   128   63  187 1    
   129   63  188 1    
   130   64   65 am   BACKBONE|DICT|INTERRES
   131   64  189 1    
   132   65   66 2    
   133   67   68 2    
   134   67   69 am   BACKBONE|DICT|INTERRES
   135   69   70 1    
   136   69  190 1    
   137   70   71 1    
   138   70   72 1    
   139   70  191 1    
   140   71  192 1    
   141   71  193 1    
   142   71  194 1    
   143   72   73 2    
   144   72   74 am   BACKBONE|DICT|INTERRES
   145   74   75 1    
   146   74  195 1    
   147   75   76 1    
   148   75   77 1    
   149   75  196 1    
   150   76  197 1    
   151   76  198 1    
   152   76  199 1    
   153   77   78 2    
   154   77   79 am   BACKBONE|DICT|INTERRES
   155   79   80 1    
   156   79  200 1    
   157   80   81 1    
   158   80   82 1    
   159   80  201 1    
   160   81  202 1    
   161   81  203 1    
   162   81  204 1    
   163   82   83 2    
   164   82   84 am   BACKBONE|DICT|INTERRES
   165   84   85 1    
   166   84  205 1    
   167   85   86 1    
   168   85   87 1    
   169   85  206 1    
   170   86  207 1    
   171   86  208 1    
   172   86  209 1    
   173   87   88 2    
   174   87   89 am   BACKBONE|DICT|INTERRES
   175   89   90 1    
   176   89  210 1    
   177   90   91 1    
   178   90   92 1    
   179   90  211 1    
   180   91  212 1    
   181   91  213 1    
   182   91  214 1    
   183   92   93 2    
   184   92   94 am   BACKBONE|DICT|INTERRES
   185   94   95 1    
   186   94  215 1    
   187   95   96 1    
   188   95   97 1    
   189   95  216 1    
   190   96  217 1    
   191   96  218 1    
   192   96  219 1    
   193   97   98 2    
   194   97   99 am   BACKBONE|DICT|INTERRES
   195   99  100 1    
   196   99  220 1    
   197  100  101 1    
   198  100  102 1    
   199  100  221 1    
   200  101  222 1    
   201  101  223 1    
   202  101  224 1    
   203  102  103 2    
   204  102  104 am   BACKBONE|DICT|INTERRES
   205  104  105 1    
   206  104  225 1    
   207  105  106 1    
   208  105  107 1    
   209  105  226 1    
   210  106  227 1    
   211  106  228 1    
   212  106  229 1    
   213  107  108 2    
   214  107  109 am   BACKBONE|DICT|INTERRES
   215  109  110 1    
   216  109  230 1    
   217  110  111 1    
   218  110  112 1    
   219  110  231 1    
   220  111  232 1    
   221  111  233 1    
   222  111  234 1    
   223  112  113 2    
   224  112  114 am   BACKBONE|DICT|INTERRES
   225  114  115 1    
   226  114  235 1    
   227  115  116 1    
   228  115  117 1    
   229  115  236 1    
   230  116  237 1    
   231  116  238 1    
   232  116  239 1    
   233  117  118 2    
   234  117  119 am   BACKBONE|DICT|INTERRES
   235  119  120 1    
   236  119  240 1    
   237  120  121 1    
   238  120  124 1    
   239  120  241 1    
   240  121  122 am   BACKBONE|DICT|INTERRES
   241  121  123 2    
   242  122  242 1    
   243  122  243 1    
   244  124  125 1    
   245  124  244 1    
   246  124  245 1    
   247  125  126 1    
   248  126  246 1    
   249  126  247 1    
@<TRIPOS>SUBSTRUCTURE
     1 UNK         1 GROUP             0       ****    0 ROOT    
