@<TRIPOS>MOLECULE
3R540
247   249    1
SMALL
USER_CHARGES


@<TRIPOS>ATOM
      1 CA          9.9307  -17.6480  -48.6799 C.3       0 UNK        -0.1800 
      2 C           8.5572  -17.5492  -49.3298 C.2       0 UNK         0.5000 
      3 O           8.4431  -16.9977  -50.4246 O.2       0 UNK        -0.5000 
      4 N           7.5309  -18.0933  -48.6601 N.am      1 UNK        -0.5000 
      5 CA          6.1092  -18.0783  -49.0334 C.3       1 UNK         0.1400 
      6 C6          5.8490  -18.5976  -50.4754 C.3       23 UNK        -0.0398 
      7 S7          4.1701  -19.2774  -50.6944 S.3       23 UNK        -0.2404 
      8 C8          3.4981  -18.1189  -51.9250 C.3       23 UNK        -0.0205 
      9 C9          1.9811  -18.1547  -51.9276 C.ar      23 UNK        -0.0193 
     10 C10         1.2912  -19.1027  -52.6874 C.ar      23 UNK        -0.1150 
     11 C11        -0.1065  -19.1540  -52.6704 C.ar      23 UNK        -0.0193 
     12 C12        -0.8084  -18.2405  -51.8723 C.ar      23 UNK        -0.1150 
     13 C13        -0.1278  -17.2823  -51.1156 C.ar      23 UNK        -0.0193 
     14 C14         1.2655  -17.2413  -51.1532 C.ar      23 UNK        -0.1150 
     15 C15        -0.8892  -16.3052  -50.2339 C.3       23 UNK        -0.0205 
     16 S16        -0.8091  -16.7848  -48.4793 S.3       23 UNK        -0.2404 
     17 C17        -1.6808  -18.3875  -48.5211 C.3       23 UNK        -0.0398 
     18 CA         -0.7235  -19.6020  -48.4667 C.3       11 UNK         0.1400 
     19 N           0.1895  -19.5647  -47.3223 N.am      11 UNK        -0.5000 
     20 C           1.2335  -20.3874  -47.1519 C.2       10 UNK         0.5000 
     21 O           1.5708  -21.2469  -47.9643 O.2       10 UNK        -0.5000 
     22 CA          2.0050  -20.2539  -45.8276 C.3       10 UNK         0.1400 
     23 CB          3.1178  -19.2058  -45.9600 C.3       10 UNK        -0.1800 
     24 N           1.1312  -19.9114  -44.7021 N.am      10 UNK        -0.5000 
     25 C           0.2108  -20.7422  -44.1921 C.2       9 UNK         0.5000 
     26 O           0.0207  -21.8860  -44.6052 O.2       9 UNK        -0.5000 
     27 CA         -0.6753  -20.1834  -43.0641 C.3       9 UNK         0.1400 
     28 CB          0.0684  -20.2328  -41.7213 C.3       9 UNK        -0.1800 
     29 N          -1.1497  -18.8182  -43.3099 N.am      9 UNK        -0.5000 
     30 C          -1.9006  -18.4385  -44.3546 C.2       8 UNK         0.5000 
     31 O          -2.2309  -19.2020  -45.2632 O.2       8 UNK        -0.5000 
     32 CA         -2.3227  -16.9554  -44.3997 C.3       8 UNK         0.1400 
     33 CB         -3.5339  -16.6842  -45.3171 C.3       8 UNK        -0.1800 
     34 N          -2.5369  -16.3807  -43.0675 N.am      8 UNK        -0.5000 
     35 C          -3.5133  -16.6855  -42.1981 C.2       7 UNK         0.5000 
     36 O          -4.3742  -17.5429  -42.4016 O.2       7 UNK        -0.5000 
     37 CA         -3.5299  -15.8704  -40.8881 C.3       7 UNK         0.1400 
     38 CB         -4.3735  -16.5219  -39.7715 C.3       7 UNK        -0.1800 
     39 N          -2.1856  -15.5295  -40.4118 N.am      7 UNK        -0.5000 
     40 C          -1.2340  -16.3734  -39.9831 C.2       6 UNK         0.5000 
     41 O          -1.3896  -17.5922  -39.9125 O.2       6 UNK        -0.5000 
     42 CA          0.1278  -15.7580  -39.5973 C.3       6 UNK         0.1400 
     43 CB          1.2950  -16.6850  -39.9817 C.3       6 UNK        -0.1800 
     44 N           0.3259  -14.4574  -40.2402 N.am      6 UNK        -0.5000 
     45 C           0.1081  -13.2633  -39.6713 C.2       5 UNK         0.5000 
     46 O          -0.2260  -13.1203  -38.4951 O.2       5 UNK        -0.5000 
     47 CA          0.2578  -12.0162  -40.5690 C.3       5 UNK         0.1400 
     48 CB          1.6122  -11.3359  -40.3180 C.3       5 UNK        -0.1800 
     49 N           0.1297  -12.2984  -42.0018 N.am      5 UNK        -0.5000 
     50 C          -0.9902  -12.7052  -42.6171 C.2       4 UNK         0.5000 
     51 O          -2.0683  -12.8594  -42.0434 O.2       4 UNK        -0.5000 
     52 CA         -0.8595  -13.0763  -44.1092 C.3       4 UNK         0.1400 
     53 CB         -1.1111  -11.8488  -44.9965 C.3       4 UNK        -0.1800 
     54 N           0.4410  -13.6666  -44.4531 N.am      4 UNK        -0.5000 
     55 C           0.9411  -14.7834  -43.9075 C.2       3 UNK         0.5000 
     56 O           0.3301  -15.4622  -43.0794 O.2       3 UNK        -0.5000 
     57 CA          2.3404  -15.2025  -44.3758 C.3       3 UNK         0.1400 
     58 CB          2.8665  -16.4534  -43.6430 C.3       3 UNK        -0.1800 
     59 N           2.3279  -15.4208  -45.8215 N.am      3 UNK        -0.5000 
     60 C           3.4115  -15.3466  -46.6037 C.2       2 UNK         0.5000 
     61 O           4.5258  -15.0304  -46.1838 O.2       2 UNK        -0.5000 
     62 CA          3.2049  -15.6885  -48.0931 C.3       2 UNK         0.1400 
     63 CB          3.2789  -14.4321  -48.9827 C.3       2 UNK        -0.1800 
     64 N           4.1113  -16.7513  -48.5496 N.am      2 UNK        -0.5000 
     65 C           5.4401  -16.7113  -48.7398 C.2       1 UNK         0.5000 
     66 O           6.1197  -15.6843  -48.6765 O.2       1 UNK        -0.5000 
     67 C          -1.5307  -20.9102  -48.4682 C.2       11 UNK         0.5000 
     68 O          -1.6011  -21.5800  -49.4956 O.2       11 UNK        -0.5000 
     69 N          -2.0832  -21.2716  -47.3011 N.am      12 UNK        -0.5000 
     70 CA         -2.8037  -22.5227  -47.0758 C.3       12 UNK         0.1400 
     71 CB         -3.4326  -22.5087  -45.6756 C.3       12 UNK        -0.1800 
     72 C          -1.9188  -23.7647  -47.2753 C.2       12 UNK         0.5000 
     73 O          -2.3801  -24.7364  -47.8724 O.2       12 UNK        -0.5000 
     74 N          -0.6612  -23.7044  -46.8178 N.am      13 UNK        -0.5000 
     75 CA          0.3382  -24.7520  -47.0300 C.3       13 UNK         0.1400 
     76 CB          1.5915  -24.4508  -46.1946 C.3       13 UNK        -0.1800 
     77 C           0.6983  -24.9379  -48.5166 C.2       13 UNK         0.5000 
     78 O           0.7722  -26.0755  -48.9822 O.2       13 UNK        -0.5000 
     79 N           0.8918  -23.8238  -49.2364 N.am      14 UNK        -0.5000 
     80 CA          1.2035  -23.8032  -50.6658 C.3       14 UNK         0.1400 
     81 CB          1.6578  -22.3908  -51.0683 C.3       14 UNK        -0.1800 
     82 C           0.0279  -24.2646  -51.5468 C.2       14 UNK         0.5000 
     83 O           0.2368  -25.0306  -52.4882 O.2       14 UNK        -0.5000 
     84 N          -1.1814  -23.7850  -51.2327 N.am      15 UNK        -0.5000 
     85 CA         -2.3943  -24.0169  -52.0172 C.3       15 UNK         0.1400 
     86 CB         -3.3741  -22.8727  -51.7390 C.3       15 UNK        -0.1800 
     87 C          -3.0924  -25.3555  -51.7221 C.2       15 UNK         0.5000 
     88 O          -3.9941  -25.7271  -52.4734 O.2       15 UNK        -0.5000 
     89 N          -2.7110  -26.0214  -50.6220 N.am      16 UNK        -0.5000 
     90 CA         -3.3777  -27.1805  -50.0183 C.3       16 UNK         0.1400 
     91 CB         -3.3575  -28.4066  -50.9553 C.3       16 UNK        -0.1800 
     92 C          -4.7896  -26.7973  -49.5284 C.2       16 UNK         0.5000 
     93 O          -5.7941  -27.3173  -50.0151 O.2       16 UNK        -0.5000 
     94 N          -4.8139  -25.8332  -48.5992 N.am      17 UNK        -0.5000 
     95 CA         -5.9515  -25.2018  -47.9191 C.3       17 UNK         0.1400 
     96 CB         -6.8767  -26.2420  -47.2593 C.3       17 UNK        -0.1800 
     97 C          -6.7498  -24.2009  -48.7765 C.2       17 UNK         0.5000 
     98 O          -7.3703  -23.2994  -48.2120 O.2       17 UNK        -0.5000 
     99 N          -6.7035  -24.3242  -50.1083 N.am      18 UNK        -0.5000 
    100 CA        -7.4174  -23.4837  -51.0758 C.3       18 UNK         0.1400 
    101 CB        -7.5746  -24.2801  -52.3837 C.3       18 UNK        -0.1800 
    102 C         -6.7480  -22.1083  -51.3031 C.2       18 UNK         0.5000 
    103 O         -6.5924  -21.6830  -52.4484 O.2       18 UNK        -0.5000 
    104 N         -6.3503  -21.4348  -50.2133 N.am      19 UNK        -0.5000 
    105 CA        -5.5613  -20.1954  -50.1932 C.3       19 UNK         0.1400 
    106 CB        -5.3367  -19.7668  -48.7352 C.3       19 UNK        -0.1800 
    107 C         -6.1639  -19.0308  -51.0015 C.2       19 UNK         0.5000 
    108 O         -5.4167  -18.2217  -51.5513 O.2       19 UNK        -0.5000 
    109 N         -7.4991  -18.9900  -51.1020 N.am      20 UNK        -0.5000 
    110 CA        -8.2639  -18.0134  -51.8813 C.3       20 UNK         0.1400 
    111 CB        -9.7605  -18.2335  -51.6116 C.3       20 UNK        -0.1800 
    112 C         -7.9804  -18.0403  -53.3993 C.2       20 UNK         0.5000 
    113 O         -8.2712  -17.0551  -54.0788 O.2       20 UNK        -0.5000 
    114 N         -7.4170  -19.1459  -53.9080 N.am      21 UNK        -0.5000 
    115 CA        -7.0293  -19.3089  -55.3093 C.3       21 UNK         0.1400 
    116 CB        -6.8755  -20.8087  -55.6090 C.3       21 UNK        -0.1800 
    117 C         -5.7378  -18.5555  -55.6904 C.2       21 UNK         0.5000 
    118 O         -5.4743  -18.4043  -56.8848 O.2       21 UNK        -0.5000 
    119 N         -4.9462  -18.1194  -54.7016 N.am      22 UNK        -0.5000 
    120 CA        -3.6104  -17.5333  -54.9103 C.3       22 UNK         0.1400 
    121 C         -3.2041  -16.4313  -53.8931 C.2       22 UNK         0.5000 
    122 N         -3.8609  -16.2789  -52.7509 N.am      22 UNK        -0.7600 
    123 O         -2.2904  -15.6587  -54.1685 O.2       22 UNK        -0.5000 
    124 C124       -2.5105  -18.6164  -55.1025 C.3       23 UNK        -0.0398 
    125 S125       -2.5693  -19.9525  -53.8557 S.3       23 UNK        -0.2404 
    126 C126       -0.8041  -20.2399  -53.4897 C.3       23 UNK        -0.0205 
    127 H127        9.8922  -18.1707  -47.7239 H         1 UNK         0.0600 
    128 H128       10.3352  -16.6509  -48.5056 H         1 UNK         0.0600 
    129 H129       10.6175  -18.1860  -49.3335 H         1 UNK         0.0600 
    130 H130        7.7207  -18.5088  -47.7588 H         1 UNK         0.3000 
    131 H131        5.6580  -18.7927  -48.3429 H         1 UNK         0.0600 
    132 H132        6.0508  -17.8225  -51.2163 H         1 UNK         0.0800 
    133 H133        6.5411  -19.4091  -50.7041 H         1 UNK         0.0800 
    134 H134        3.8387  -17.1050  -51.7079 H         1 UNK         0.0800 
    135 H135        3.8853  -18.3717  -52.9132 H         1 UNK         0.0800 
    136 H136        1.8480  -19.8147  -53.2804 H         1 UNK         0.1150 
    137 H137       -1.8865  -18.2756  -51.8231 H         1 UNK         0.1150 
    138 H138        1.7927  -16.5083  -50.5624 H         1 UNK         0.1150 
    139 H139       -0.4672  -15.3059  -50.3496 H         1 UNK         0.0800 
    140 H140       -1.9322  -16.2347  -50.5446 H         1 UNK         0.0800 
    141 H141       -2.3769  -18.4122  -47.6856 H         1 UNK         0.0800 
    142 H142       -2.3053  -18.4359  -49.4144 H         1 UNK         0.0800 
    143 H143       -0.1118  -19.5957  -49.3713 H         1 UNK         0.0600 
    144 H144       -0.0463  -18.9181  -46.5860 H         1 UNK         0.3000 
    145 H145        2.4715  -21.2179  -45.6147 H         1 UNK         0.0600 
    146 H146        3.7105  -19.1397  -45.0477 H         1 UNK         0.0600 
    147 H147        3.7996  -19.4640  -46.7710 H         1 UNK         0.0600 
    148 H148        2.7114  -18.2185  -46.1733 H         1 UNK         0.0600 
    149 H149        1.2241  -18.9896  -44.3040 H         1 UNK         0.3000 
    150 H150       -1.5538  -20.8277  -42.9904 H         1 UNK         0.0600 
    151 H151        0.4578  -21.2327  -41.5248 H         1 UNK         0.0600 
    152 H152       -0.5958  -19.9793  -40.8954 H         1 UNK         0.0600 
    153 H153        0.9110  -19.5406  -41.6988 H         1 UNK         0.0600 
    154 H154       -0.9413  -18.1314  -42.5987 H         1 UNK         0.3000 
    155 H155       -1.4760  -16.4202  -44.8291 H         1 UNK         0.0600 
    156 H156       -3.8580  -15.6459  -45.2463 H         1 UNK         0.0600 
    157 H157       -4.3843  -17.3194  -45.0681 H         1 UNK         0.0600 
    158 H158       -3.2862  -16.8661  -46.3609 H         1 UNK         0.0600 
    159 H159       -1.8321  -15.7172  -42.7710 H         1 UNK         0.3000 
    160 H160       -4.0049  -14.9207  -41.1385 H         1 UNK         0.0600 
    161 H161       -4.0138  -17.5193  -39.5176 H         1 UNK         0.0600 
    162 H162       -5.4153  -16.6212  -40.0780 H         1 UNK         0.0600 
    163 H163       -4.3601  -15.9184  -38.8639 H         1 UNK         0.0600 
    164 H164       -1.9491  -14.5476  -40.4732 H         1 UNK         0.3000 
    165 H165        0.1340  -15.6436  -38.5117 H         1 UNK         0.0600 
    166 H166        1.2647  -16.9517  -41.0378 H         1 UNK         0.0600 
    167 H167        2.2582  -16.2168  -39.7785 H         1 UNK         0.0600 
    168 H168        1.2604  -17.6141  -39.4116 H         1 UNK         0.0600 
    169 H169        0.5438  -14.4952  -41.2283 H         1 UNK         0.3000 
    170 H170       -0.5340  -11.3173  -40.2914 H         1 UNK         0.0600 
    171 H171        1.7323  -11.0802  -39.2643 H         1 UNK         0.0600 
    172 H172        2.4451  -11.9832  -40.5956 H         1 UNK         0.0600 
    173 H173        1.7007  -10.4101  -40.8869 H         1 UNK         0.0600 
    174 H174        0.9688  -12.2036  -42.5548 H         1 UNK         0.3000 
    175 H175       -1.6302  -13.8168  -44.3313 H         1 UNK         0.0600 
    176 H176       -0.3527  -11.0797  -44.8456 H         1 UNK         0.0600 
    177 H177       -1.1108  -12.1192  -46.0526 H         1 UNK         0.0600 
    178 H178       -2.0815  -11.4010  -44.7777 H         1 UNK         0.0600 
    179 H179        0.9955  -13.1697  -45.1358 H         1 UNK         0.3000 
    180 H180        3.0066  -14.3683  -44.1455 H         1 UNK         0.0600 
    181 H181        2.2025  -17.3072  -43.7730 H         1 UNK         0.0600 
    182 H182        2.9558  -16.2647  -42.5731 H         1 UNK         0.0600 
    183 H183        3.8565  -16.7394  -43.9979 H         1 UNK         0.0600 
    184 H184        1.4281  -15.6389  -46.2278 H         1 UNK         0.3000 
    185 H185        2.2022  -16.1032  -48.2041 H         1 UNK         0.0600 
    186 H186        3.1933  -14.6836  -50.0394 H         1 UNK         0.0600 
    187 H187        2.4674  -13.7438  -48.7442 H         1 UNK         0.0600 
    188 H188        4.2133  -13.8877  -48.8445 H         1 UNK         0.0600 
    189 H189        3.6676  -17.6519  -48.6647 H         1 UNK         0.3000 
    190 H190       -2.0027  -20.6430  -46.5058 H         1 UNK         0.3000 
    191 H191       -3.6097  -22.5794  -47.8101 H         1 UNK         0.0600 
    192 H192       -4.1300  -21.6778  -45.5670 H         1 UNK         0.0600 
    193 H193       -3.9870  -23.4280  -45.4840 H         1 UNK         0.0600 
    194 H194       -2.6767  -22.4125  -44.8958 H         1 UNK         0.0600 
    195 H195       -0.3739  -22.8977  -46.2726 H         1 UNK         0.3000 
    196 H196       -0.0862  -25.6923  -46.6718 H         1 UNK         0.0600 
    197 H197        2.3339  -25.2419  -46.3066 H         1 UNK         0.0600 
    198 H198        1.3504  -24.3783  -45.1339 H         1 UNK         0.0600 
    199 H199        2.0621  -23.5151  -46.4955 H         1 UNK         0.0600 
    200 H200        0.8593  -22.9229  -48.7687 H         1 UNK         0.3000 
    201 H201        2.0367  -24.4872  -50.8395 H         1 UNK         0.0600 
    202 H202        2.5555  -22.0960  -50.5248 H         1 UNK         0.0600 
    203 H203        0.8885  -21.6451  -50.8637 H         1 UNK         0.0600 
    204 H204        1.8910  -22.3395  -52.1324 H         1 UNK         0.0600 
    205 H205       -1.2621  -23.1134  -50.4713 H         1 UNK         0.3000 
    206 H206       -2.1369  -23.9955  -53.0783 H         1 UNK         0.0600 
    207 H207       -2.8920  -21.9020  -51.8286 H         1 UNK         0.0600 
    208 H208       -4.1965  -22.8941  -52.4533 H         1 UNK         0.0600 
    209 H209       -3.7946  -22.9380  -50.7344 H         1 UNK         0.0600 
    210 H210       -1.9882  -25.5963  -50.0557 H         1 UNK         0.3000 
    211 H211       -2.7976  -27.4404  -49.1314 H         1 UNK         0.0600 
    212 H212       -3.9626  -28.2559  -51.8494 H         1 UNK         0.0600 
    213 H213       -3.7502  -29.2869  -50.4453 H         1 UNK         0.0600 
    214 H214       -2.3418  -28.6409  -51.2737 H         1 UNK         0.0600 
    215 H215       -3.9059  -25.4578  -48.3232 H         1 UNK         0.3000 
    216 H216       -5.5071  -24.6145  -47.1146 H         1 UNK         0.0600 
    217 H217       -6.3143  -26.9217  -46.6191 H         1 UNK         0.0600 
    218 H218       -7.4133  -26.8391  -47.9969 H         1 UNK         0.0600 
    219 H219       -7.6254  -25.7531  -46.6349 H         1 UNK         0.0600 
    220 H220       -6.1735  -25.0967  -50.4898 H         1 UNK         0.3000 
    221 H221       -8.4189  -23.2853  -50.6888 H         1 UNK         0.0600 
    222 H222       -6.6067  -24.4977  -52.8377 H         1 UNK         0.0600 
    223 H223       -8.0835  -25.2284  -52.2100 H         1 UNK         0.0600 
    224 H224       -8.1649  -23.7264  -53.1150 H         1 UNK         0.0600 
    225 H225       -6.5691  -21.8514  -49.3144 H         1 UNK         0.3000 
    226 H226       -4.5890  -20.4202  -50.6356 H         1 UNK         0.0600 
    227 H227       -4.7448  -18.8526  -48.6804 H         1 UNK         0.0600 
    228 H228       -6.2809  -19.5759  -48.2238 H         1 UNK         0.0600 
    229 H229       -4.8031  -20.5320  -48.1738 H         1 UNK         0.0600 
    230 H230       -8.0300  -19.7081  -50.6320 H         1 UNK         0.3000 
    231 H231       -7.9929  -17.0189  -51.5212 H         1 UNK         0.0600 
    232 H232      -10.3672  -17.5027  -52.1482 H         1 UNK         0.0600 
    233 H233       -9.9910  -18.1279  -50.5514 H         1 UNK         0.0600 
    234 H234      -10.0837  -19.2255  -51.9299 H         1 UNK         0.0600 
    235 H235       -7.1950  -19.9202  -53.2896 H         1 UNK         0.3000 
    236 H236       -7.8335  -18.9201  -55.9373 H         1 UNK         0.0600 
    237 H237       -6.0448  -21.2449  -55.0525 H         1 UNK         0.0600 
    238 H238       -6.6826  -20.9779  -56.6690 H         1 UNK         0.0600 
    239 H239       -7.7793  -21.3606  -55.3503 H         1 UNK         0.0600 
    240 H240       -5.2187  -18.2822  -53.7412 H         1 UNK         0.3000 
    241 H241       -3.6562  -16.9780  -55.8494 H         1 UNK         0.0600 
    242 H242       -3.5958  -15.5215  -52.1441 H         1 UNK         0.3800 
    243 H243       -4.5475  -16.9546  -52.4224 H         1 UNK         0.3800 
    244 H244       -1.5164  -18.1662  -55.1213 H         1 UNK         0.0800 
    245 H245       -2.6366  -19.0839  -56.0796 H         1 UNK         0.0800 
    246 H246       -0.2763  -20.3902  -54.4327 H         1 UNK         0.0800 
    247 H247       -0.7228  -21.1779  -52.9390 H         1 UNK         0.0800 
@<TRIPOS>BOND
     1    1    2 1    
     2    1  127 1    
     3    1  128 1    
     4    1  129 1    
     5    2    3 2    
     6    2    4 am   BACKBONE|DICT|INTERRES
     7    4    5 1    
     8    4  130 1    
     9    5    6 1    
    10    5   65 1    
    11    5  131 1    
    12    6    7 1    
    13    6  132 1    
    14    6  133 1    
    15    7    8 1    
    16    8    9 1    
    17    8  134 1    
    18    8  135 1    
    19    9   10 ar   
    20    9   14 ar   
    21   10   11 ar   
    22   10  136 1    
    23   11   12 ar   
    24   11  126 1    
    25   12   13 ar   
    26   12  137 1    
    27   13   14 ar   
    28   13   15 1    
    29   14  138 1    
    30   15   16 1    
    31   15  139 1    
    32   15  140 1    
    33   16   17 1    
    34   17   18 1    
    35   17  141 1    
    36   17  142 1    
    37   18   19 1    
    38   18   67 1    
    39   18  143 1    
    40   19   20 am   BACKBONE|DICT|INTERRES
    41   19  144 1    
    42   20   21 2    
    43   20   22 1    
    44   22   23 1    
    45   22   24 1    
    46   22  145 1    
    47   23  146 1    
    48   23  147 1    
    49   23  148 1    
    50   24   25 am   BACKBONE|DICT|INTERRES
    51   24  149 1    
    52   25   26 2    
    53   25   27 1    
    54   27   28 1    
    55   27   29 1    
    56   27  150 1    
    57   28  151 1    
    58   28  152 1    
    59   28  153 1    
    60   29   30 am   BACKBONE|DICT|INTERRES
    61   29  154 1    
    62   30   31 2    
    63   30   32 1    
    64   32   33 1    
    65   32   34 1    
    66   32  155 1    
    67   33  156 1    
    68   33  157 1    
    69   33  158 1    
    70   34   35 am   BACKBONE|DICT|INTERRES
    71   34  159 1    
    72   35   36 2    
    73   35   37 1    
    74   37   38 1    
    75   37   39 1    
    76   37  160 1    
    77   38  161 1    
    78   38  162 1    
    79   38  163 1    
    80   39   40 am   BACKBONE|DICT|INTERRES
    81   39  164 1    
    82   40   41 2    
    83   40   42 1    
    84   42   43 1    
    85   42   44 1    
    86   42  165 1    
    87   43  166 1    
    88   43  167 1    
    89   43  168 1    
    90   44   45 am   BACKBONE|DICT|INTERRES
    91   44  169 1    
    92   45   46 2    
    93   45   47 1    
    94   47   48 1    
    95   47   49 1    
    96   47  170 1    
    97   48  171 1    
    98   48  172 1    
    99   48  173 1    
   100   49   50 am   BACKBONE|DICT|INTERRES
   101   49  174 1    
   102   50   51 2    
   103   50   52 1    
   104   52   53 1    
   105   52   54 1    
   106   52  175 1    
   107   53  176 1    
   108   53  177 1    
   109   53  178 1    
   110   54   55 am   BACKBONE|DICT|INTERRES
   111   54  179 1    
   112   55   56 2    
   113   55   57 1    
   114   57   58 1    
   115   57   59 1    
   116   57  180 1    
   117   58  181 1    
   118   58  182 1    
   119   58  183 1    
   120   59   60 am   BACKBONE|DICT|INTERRES
   121   59  184 1    
   122   60   61 2    
   123   60   62 1    
   124   62   63 1    
   125   62   64 1    
   126   62  185 1    
   127   63  186 1    
   128   63  187 1    
   129   63  188 1    
   130   64   65 am   BACKBONE|DICT|INTERRES
   131   64  189 1    
   132   65   66 2    
   133   67   68 2    
   134   67   69 am   BACKBONE|DICT|INTERRES
   135   69   70 1    
   136   69  190 1    
   137   70   71 1    
   138   70   72 1    
   139   70  191 1    
   140   71  192 1    
   141   71  193 1    
   142   71  194 1    
   143   72   73 2    
   144   72   74 am   BACKBONE|DICT|INTERRES
   145   74   75 1    
   146   74  195 1    
   147   75   76 1    
   148   75   77 1    
   149   75  196 1    
   150   76  197 1    
   151   76  198 1    
   152   76  199 1    
   153   77   78 2    
   154   77   79 am   BACKBONE|DICT|INTERRES
   155   79   80 1    
   156   79  200 1    
   157   80   81 1    
   158   80   82 1    
   159   80  201 1    
   160   81  202 1    
   161   81  203 1    
   162   81  204 1    
   163   82   83 2    
   164   82   84 am   BACKBONE|DICT|INTERRES
   165   84   85 1    
   166   84  205 1    
   167   85   86 1    
   168   85   87 1    
   169   85  206 1    
   170   86  207 1    
   171   86  208 1    
   172   86  209 1    
   173   87   88 2    
   174   87   89 am   BACKBONE|DICT|INTERRES
   175   89   90 1    
   176   89  210 1    
   177   90   91 1    
   178   90   92 1    
   179   90  211 1    
   180   91  212 1    
   181   91  213 1    
   182   91  214 1    
   183   92   93 2    
   184   92   94 am   BACKBONE|DICT|INTERRES
   185   94   95 1    
   186   94  215 1    
   187   95   96 1    
   188   95   97 1    
   189   95  216 1    
   190   96  217 1    
   191   96  218 1    
   192   96  219 1    
   193   97   98 2    
   194   97   99 am   BACKBONE|DICT|INTERRES
   195   99  100 1    
   196   99  220 1    
   197  100  101 1    
   198  100  102 1    
   199  100  221 1    
   200  101  222 1    
   201  101  223 1    
   202  101  224 1    
   203  102  103 2    
   204  102  104 am   BACKBONE|DICT|INTERRES
   205  104  105 1    
   206  104  225 1    
   207  105  106 1    
   208  105  107 1    
   209  105  226 1    
   210  106  227 1    
   211  106  228 1    
   212  106  229 1    
   213  107  108 2    
   214  107  109 am   BACKBONE|DICT|INTERRES
   215  109  110 1    
   216  109  230 1    
   217  110  111 1    
   218  110  112 1    
   219  110  231 1    
   220  111  232 1    
   221  111  233 1    
   222  111  234 1    
   223  112  113 2    
   224  112  114 am   BACKBONE|DICT|INTERRES
   225  114  115 1    
   226  114  235 1    
   227  115  116 1    
   228  115  117 1    
   229  115  236 1    
   230  116  237 1    
   231  116  238 1    
   232  116  239 1    
   233  117  118 2    
   234  117  119 am   BACKBONE|DICT|INTERRES
   235  119  120 1    
   236  119  240 1    
   237  120  121 1    
   238  120  124 1    
   239  120  241 1    
   240  121  122 am   BACKBONE|DICT|INTERRES
   241  121  123 2    
   242  122  242 1    
   243  122  243 1    
   244  124  125 1    
   245  124  244 1    
   246  124  245 1    
   247  125  126 1    
   248  126  246 1    
   249  126  247 1    
@<TRIPOS>SUBSTRUCTURE
     1 UNK         1 GROUP             0       ****    0 ROOT    
