@<TRIPOS>MOLECULE
3R540
247   249    1
SMALL
USER_CHARGES


@<TRIPOS>ATOM
      1 CA         -0.9120  -16.1341  -50.6662 C.3       0 UNK        -0.1800 
      2 C          -0.3971  -15.1461  -49.6311 C.2       0 UNK         0.5000 
      3 O          -1.1138  -14.2198  -49.2529 O.2       0 UNK        -0.5000 
      4 N           0.8504  -15.3369  -49.1877 N.am      1 UNK        -0.5000 
      5 CA          1.5316  -14.5189  -48.1820 C.3       1 UNK         0.1400 
      6 C6          3.0382  -14.8711  -48.0757 C.3       23 UNK        -0.0398 
      7 S7          4.1324  -14.2867  -49.4284 S.3       23 UNK        -0.2404 
      8 C8          3.2809  -14.6232  -51.0173 C.3       23 UNK        -0.0205 
      9 C9          3.0176  -16.0908  -51.3713 C.ar      23 UNK        -0.0193 
     10 C10         2.2702  -16.3726  -52.5199 C.ar      23 UNK        -0.1150 
     11 C11         1.9753  -17.6908  -52.8827 C.ar      23 UNK        -0.0193 
     12 C12         2.3943  -18.7379  -52.0580 C.ar      23 UNK        -0.1150 
     13 C13         3.1398  -18.4783  -50.9043 C.ar      23 UNK        -0.0193 
     14 C14         3.4819  -17.1585  -50.5942 C.ar      23 UNK        -0.1150 
     15 C15         3.5588  -19.6285  -49.9918 C.3       23 UNK        -0.0205 
     16 S16         3.3678  -19.2714  -48.2063 S.3       23 UNK        -0.2404 
     17 C17         1.6226  -18.7457  -48.1017 C.3       23 UNK        -0.0398 
     18 CA          0.6713  -19.9151  -47.7745 C.3       11 UNK         0.1400 
     19 N           0.8720  -20.4364  -46.4254 N.am      11 UNK        -0.5000 
     20 C           0.9446  -21.7366  -46.1192 C.2       10 UNK         0.5000 
     21 O           0.6717  -22.6449  -46.9041 O.2       10 UNK        -0.5000 
     22 CA          1.4461  -22.0837  -44.7073 C.3       10 UNK         0.1400 
     23 CB          2.9385  -21.7451  -44.5585 C.3       10 UNK        -0.1800 
     24 N           0.6863  -21.3978  -43.6672 N.am      10 UNK        -0.5000 
     25 C          -0.5099  -21.8002  -43.2202 C.2       9 UNK         0.5000 
     26 O          -1.0780  -22.8196  -43.6123 O.2       9 UNK        -0.5000 
     27 CA         -1.1893  -20.9223  -42.1512 C.3       9 UNK         0.1400 
     28 CB         -0.7864  -21.3824  -40.7422 C.3       9 UNK        -0.1800 
     29 N          -0.8920  -19.4967  -42.2970 N.am      9 UNK        -0.5000 
     30 C          -1.2804  -18.7476  -43.3375 C.2       8 UNK         0.5000 
     31 O          -1.9639  -19.1759  -44.2666 O.2       8 UNK        -0.5000 
     32 CA         -0.7833  -17.2906  -43.3686 C.3       8 UNK         0.1400 
     33 CB         -1.6414  -16.3977  -42.4606 C.3       8 UNK        -0.1800 
     34 N           0.6242  -17.1659  -42.9932 N.am      8 UNK        -0.5000 
     35 C           1.6418  -17.7154  -43.6709 C.2       7 UNK         0.5000 
     36 O           1.5043  -18.3794  -44.6954 O.2       7 UNK        -0.5000 
     37 CA          3.0444  -17.5484  -43.0681 C.3       7 UNK         0.1400 
     38 CB          3.6248  -16.1648  -43.4015 C.3       7 UNK        -0.1800 
     39 N           3.0333  -17.7607  -41.6203 N.am      7 UNK        -0.5000 
     40 C           2.8161  -18.9497  -41.0376 C.2       6 UNK         0.5000 
     41 O           2.6545  -19.9979  -41.6618 O.2       6 UNK        -0.5000 
     42 CA          2.7260  -18.9619  -39.5006 C.3       6 UNK         0.1400 
     43 CB          4.1273  -19.0375  -38.8763 C.3       6 UNK        -0.1800 
     44 N           2.0206  -17.7949  -38.9691 N.am      6 UNK        -0.5000 
     45 C           0.7157  -17.5481  -39.1535 C.2       5 UNK         0.5000 
     46 O          -0.0434  -18.3004  -39.7631 O.2       5 UNK        -0.5000 
     47 CA          0.1861  -16.2048  -38.6150 C.3       5 UNK         0.1400 
     48 CB         -0.2076  -16.3319  -37.1360 C.3       5 UNK        -0.1800 
     49 N           1.1407  -15.1019  -38.7745 N.am      5 UNK        -0.5000 
     50 C           1.6057  -14.6749  -39.9549 C.2       4 UNK         0.5000 
     51 O           1.2751  -15.1709  -41.0373 O.2       4 UNK        -0.5000 
     52 CA          2.6425  -13.5434  -39.9261 C.3       4 UNK         0.1400 
     53 CB          4.0036  -14.0495  -39.4161 C.3       4 UNK        -0.1800 
     54 N           2.7818  -13.0552  -41.2892 N.am      4 UNK        -0.5000 
     55 C           3.1757  -11.8421  -41.6828 C.2       3 UNK         0.5000 
     56 O           3.5595  -10.9617  -40.9119 O.2       3 UNK        -0.5000 
     57 CA          3.1273  -11.5656  -43.2012 C.3       3 UNK         0.1400 
     58 CB          4.5372  -11.6559  -43.8057 C.3       3 UNK        -0.1800 
     59 N           2.2419  -12.4744  -43.9413 N.am      3 UNK        -0.5000 
     60 C           0.9038  -12.4912  -43.8494 C.2       2 UNK         0.5000 
     61 O           0.2623  -11.7126  -43.1431 O.2       2 UNK        -0.5000 
     62 CA          0.1802  -13.5451  -44.7052 C.3       2 UNK         0.1400 
     63 CB         -1.3399  -13.3117  -44.8030 C.3       2 UNK        -0.1800 
     64 N           0.7684  -13.5923  -46.0436 N.am      2 UNK        -0.5000 
     65 C           0.8580  -14.6898  -46.8024 C.2       1 UNK         0.5000 
     66 O           0.4726  -15.8039  -46.4438 O.2       1 UNK        -0.5000 
     67 C          -0.7900  -19.5121  -48.0090 C.2       11 UNK         0.5000 
     68 O          -1.4213  -20.0949  -48.8871 O.2       11 UNK        -0.5000 
     69 N          -1.3118  -18.5245  -47.2649 N.am      12 UNK        -0.5000 
     70 CA         -2.6475  -17.9544  -47.4997 C.3       12 UNK         0.1400 
     71 CB         -2.8961  -16.7510  -46.5814 C.3       12 UNK        -0.1800 
     72 C          -3.7982  -18.9729  -47.3906 C.2       12 UNK         0.5000 
     73 O          -4.7255  -18.9286  -48.1982 O.2       12 UNK        -0.5000 
     74 N          -3.6933  -19.9016  -46.4325 N.am      13 UNK        -0.5000 
     75 CA         -4.6291  -21.0115  -46.2474 C.3       13 UNK         0.1400 
     76 CB         -4.3117  -21.7189  -44.9226 C.3       13 UNK        -0.1800 
     77 C          -4.6203  -22.0187  -47.4157 C.2       13 UNK         0.5000 
     78 O          -5.6689  -22.5732  -47.7413 O.2       13 UNK        -0.5000 
     79 N          -3.4490  -22.2231  -48.0338 N.am      14 UNK        -0.5000 
     80 CA         -3.2645  -23.0667  -49.2156 C.3       14 UNK         0.1400 
     81 CB         -1.7869  -23.4790  -49.3083 C.3       14 UNK        -0.1800 
     82 C          -3.7267  -22.3519  -50.4989 C.2       14 UNK         0.5000 
     83 O          -4.3590  -22.9729  -51.3574 O.2       14 UNK        -0.5000 
     84 N          -3.4211  -21.0489  -50.5825 N.am      15 UNK        -0.5000 
     85 CA         -3.7937  -20.1376  -51.6630 C.3       15 UNK         0.1400 
     86 CB         -3.1002  -18.7876  -51.4543 C.3       15 UNK        -0.1800 
     87 C          -5.3132  -19.9358  -51.7949 C.2       15 UNK         0.5000 
     88 O          -5.7970  -19.6972  -52.9015 O.2       15 UNK        -0.5000 
     89 N          -6.0482  -20.0768  -50.6845 N.am      16 UNK        -0.5000 
     90 CA         -7.5097  -20.0679  -50.6068 C.3       16 UNK         0.1400 
     91 CB         -7.9211  -19.7941  -49.1492 C.3       16 UNK        -0.1800 
     92 C          -8.1337  -21.3667  -51.1685 C.2       16 UNK         0.5000 
     93 O          -8.8790  -22.0521  -50.4677 O.2       16 UNK        -0.5000 
     94 N          -7.7883  -21.6941  -52.4214 N.am      17 UNK        -0.5000 
     95 CA         -8.2328  -22.8138  -53.2630 C.3       17 UNK         0.1400 
     96 CB         -9.7480  -22.7263  -53.5251 C.3       17 UNK        -0.1800 
     97 C          -7.8408  -24.2300  -52.7892 C.2       17 UNK         0.5000 
     98 O          -7.8606  -25.1483  -53.6095 O.2       17 UNK        -0.5000 
     99 N          -7.4829  -24.4002  -51.5104 N.am      18 UNK        -0.5000 
    100 CA        -7.2080  -25.6833  -50.8571 C.3       18 UNK         0.1400 
    101 CB        -6.9210  -25.4383  -49.3695 C.3       18 UNK        -0.1800 
    102 C         -6.0739  -26.5042  -51.4997 C.2       18 UNK         0.5000 
    103 O         -6.1832  -27.7290  -51.5670 O.2       18 UNK        -0.5000 
    104 N         -5.0305  -25.8207  -51.9868 N.am      19 UNK        -0.5000 
    105 CA        -3.9057  -26.4187  -52.7123 C.3       19 UNK         0.1400 
    106 CB        -2.5939  -25.9186  -52.0871 C.3       19 UNK        -0.1800 
    107 C         -3.9765  -26.1109  -54.2222 C.2       19 UNK         0.5000 
    108 O         -2.9371  -26.0657  -54.8804 O.2       19 UNK        -0.5000 
    109 N         -5.1939  -25.8766  -54.7386 N.am      20 UNK        -0.5000 
    110 CA        -5.5181  -25.4331  -56.1024 C.3       20 UNK         0.1400 
    111 CB        -5.0323  -26.4404  -57.1663 C.3       20 UNK        -0.1800 
    112 C         -5.0740  -23.9813  -56.3903 C.2       20 UNK         0.5000 
    113 O         -4.9283  -23.6023  -57.5537 O.2       20 UNK        -0.5000 
    114 N         -4.9124  -23.1956  -55.3151 N.am      21 UNK        -0.5000 
    115 CA        -4.5116  -21.7883  -55.2629 C.3       21 UNK         0.1400 
    116 CB        -5.5253  -20.8988  -56.0165 C.3       21 UNK        -0.1800 
    117 C         -3.0524  -21.5291  -55.6999 C.2       21 UNK         0.5000 
    118 O         -2.3058  -22.4662  -55.9895 O.2       21 UNK        -0.5000 
    119 N         -2.6646  -20.2463  -55.7190 N.am      22 UNK        -0.5000 
    120 CA        -1.3644  -19.7674  -56.2263 C.3       22 UNK         0.1400 
    121 C         -1.2077  -19.8549  -57.7765 C.2       22 UNK         0.5000 
    122 N         -2.2614  -20.0910  -58.5491 N.am      22 UNK        -0.7600 
    123 O         -0.1012  -19.7095  -58.2888 O.2       22 UNK        -0.5000 
    124 C124       -1.0512  -18.3287  -55.7302 C.3       23 UNK        -0.0398 
    125 S125       -0.5326  -18.2595  -53.9788 S.3       23 UNK        -0.2404 
    126 C126        1.2554  -17.9835  -54.1919 C.3       23 UNK        -0.0205 
    127 H127       -1.9806  -16.2958  -50.5316 H         1 UNK         0.0600 
    128 H128       -0.4080  -17.0978  -50.5873 H         1 UNK         0.0600 
    129 H129       -0.7513  -15.7450  -51.6715 H         1 UNK         0.0600 
    130 H130        1.3941  -16.0986  -49.5650 H         1 UNK         0.3000 
    131 H131        1.4387  -13.4731  -48.4822 H         1 UNK         0.0600 
    132 H132        3.1672  -15.9463  -47.9463 H         1 UNK         0.0800 
    133 H133        3.4587  -14.4300  -47.1697 H         1 UNK         0.0800 
    134 H134        2.3450  -14.0642  -51.0428 H         1 UNK         0.0800 
    135 H135        3.8980  -14.1990  -51.8104 H         1 UNK         0.0800 
    136 H136        1.9282  -15.5597  -53.1454 H         1 UNK         0.1150 
    137 H137        2.1480  -19.7563  -52.3246 H         1 UNK         0.1150 
    138 H138        4.0927  -16.9779  -49.7239 H         1 UNK         0.1150 
    139 H139        2.9826  -20.5257  -50.2232 H         1 UNK         0.0800 
    140 H140        4.6030  -19.8712  -50.1920 H         1 UNK         0.0800 
    141 H141        1.3285  -18.2638  -49.0332 H         1 UNK         0.0800 
    142 H142        1.5562  -17.9736  -47.3359 H         1 UNK         0.0800 
    143 H143        0.8880  -20.7033  -48.4995 H         1 UNK         0.0600 
    144 H144        1.1018  -19.7436  -45.7133 H         1 UNK         0.3000 
    145 H145        1.3383  -23.1619  -44.5699 H         1 UNK         0.0600 
    146 H146        3.3200  -22.0704  -43.5905 H         1 UNK         0.0600 
    147 H147        3.5309  -22.2433  -45.3268 H         1 UNK         0.0600 
    148 H148        3.1233  -20.6738  -44.6452 H         1 UNK         0.0600 
    149 H149        1.1029  -20.5662  -43.2686 H         1 UNK         0.3000 
    150 H150       -2.2684  -21.0517  -42.2568 H         1 UNK         0.0600 
    151 H151       -1.0075  -22.4405  -40.5970 H         1 UNK         0.0600 
    152 H152       -1.3301  -20.8286  -39.9765 H         1 UNK         0.0600 
    153 H153        0.2801  -21.2406  -40.5638 H         1 UNK         0.0600 
    154 H154       -0.3789  -19.0578  -41.5380 H         1 UNK         0.3000 
    155 H155       -0.8769  -16.9255  -44.3919 H         1 UNK         0.0600 
    156 H156       -1.6121  -16.7315  -41.4234 H         1 UNK         0.0600 
    157 H157       -1.3017  -15.3628  -42.4848 H         1 UNK         0.0600 
    158 H158       -2.6842  -16.4073  -42.7800 H         1 UNK         0.0600 
    159 H159        0.8308  -16.6079  -42.1692 H         1 UNK         0.3000 
    160 H160        3.6939  -18.3030  -43.5171 H         1 UNK         0.0600 
    161 H161        3.0036  -15.3587  -43.0157 H         1 UNK         0.0600 
    162 H162        3.6993  -16.0283  -44.4813 H         1 UNK         0.0600 
    163 H163        4.6264  -16.0453  -42.9883 H         1 UNK         0.0600 
    164 H164        3.1044  -16.9409  -41.0376 H         1 UNK         0.3000 
    165 H165        2.1721  -19.8563  -39.2072 H         1 UNK         0.0600 
    166 H166        4.0709  -19.1250  -37.7911 H         1 UNK         0.0600 
    167 H167        4.6710  -19.9090  -39.2435 H         1 UNK         0.0600 
    168 H168        4.7234  -18.1550  -39.1120 H         1 UNK         0.0600 
    169 H169        2.5698  -17.1227  -38.4545 H         1 UNK         0.3000 
    170 H170       -0.7104  -15.9532  -39.1852 H         1 UNK         0.0600 
    171 H171       -0.9317  -17.1352  -36.9928 H         1 UNK         0.0600 
    172 H172        0.6551  -16.5511  -36.5056 H         1 UNK         0.0600 
    173 H173       -0.6670  -15.4136  -36.7699 H         1 UNK         0.0600 
    174 H174        1.4572  -14.6521  -37.9274 H         1 UNK         0.3000 
    175 H175        2.2703  -12.7430  -39.2835 H         1 UNK         0.0600 
    176 H176        4.3900  -14.8590  -40.0368 H         1 UNK         0.0600 
    177 H177        4.7450  -13.2503  -39.4134 H         1 UNK         0.0600 
    178 H178        3.9299  -14.4227  -38.3941 H         1 UNK         0.0600 
    179 H179        2.4118  -13.6945  -41.9798 H         1 UNK         0.3000 
    180 H180        2.7599  -10.5462  -43.3362 H         1 UNK         0.0600 
    181 H181        4.9511  -12.6609  -43.7123 H         1 UNK         0.0600 
    182 H182        5.2225  -10.9712  -43.3041 H         1 UNK         0.0600 
    183 H183        4.5320  -11.3904  -44.8630 H         1 UNK         0.0600 
    184 H184        2.6923  -13.1396  -44.5521 H         1 UNK         0.3000 
    185 H185        0.3474  -14.5003  -44.2036 H         1 UNK         0.0600 
    186 H186       -1.8000  -13.2819  -43.8147 H         1 UNK         0.0600 
    187 H187       -1.5681  -12.3699  -45.3028 H         1 UNK         0.0600 
    188 H188       -1.8274  -14.1112  -45.3585 H         1 UNK         0.0600 
    189 H189        1.1117  -12.7102  -46.3997 H         1 UNK         0.3000 
    190 H190       -0.7447  -18.0834  -46.5531 H         1 UNK         0.3000 
    191 H191       -2.6495  -17.5789  -48.5232 H         1 UNK         0.0600 
    192 H192       -2.9221  -17.0358  -45.5309 H         1 UNK         0.0600 
    193 H193       -3.8529  -16.2808  -46.8116 H         1 UNK         0.0600 
    194 H194       -2.1276  -15.9921  -46.7157 H         1 UNK         0.0600 
    195 H195       -2.9324  -19.8158  -45.7620 H         1 UNK         0.3000 
    196 H196       -5.6354  -20.5931  -46.1790 H         1 UNK         0.0600 
    197 H197       -5.0206  -22.5248  -44.7290 H         1 UNK         0.0600 
    198 H198       -4.3647  -21.0271  -44.0816 H         1 UNK         0.0600 
    199 H199       -3.3128  -22.1549  -44.9350 H         1 UNK         0.0600 
    200 H200       -2.6478  -21.6818  -47.7393 H         1 UNK         0.3000 
    201 H201       -3.8589  -23.9746  -49.1020 H         1 UNK         0.0600 
    202 H202       -1.4838  -24.0503  -48.4308 H         1 UNK         0.0600 
    203 H203       -1.1241  -22.6179  -49.3858 H         1 UNK         0.0600 
    204 H204       -1.6003  -24.1026  -50.1801 H         1 UNK         0.0600 
    205 H205       -2.8317  -20.6527  -49.8527 H         1 UNK         0.3000 
    206 H206       -3.4142  -20.5642  -52.5907 H         1 UNK         0.0600 
    207 H207       -2.0227  -18.9097  -51.3443 H         1 UNK         0.0600 
    208 H208       -3.2681  -18.1269  -52.3056 H         1 UNK         0.0600 
    209 H209       -3.4767  -18.2797  -50.5679 H         1 UNK         0.0600 
    210 H210       -5.5561  -20.2142  -49.8103 H         1 UNK         0.3000 
    211 H211       -7.8830  -19.2435  -51.2175 H         1 UNK         0.0600 
    212 H212       -7.5661  -20.5773  -48.4781 H         1 UNK         0.0600 
    213 H213       -9.0058  -19.7392  -49.0496 H         1 UNK         0.0600 
    214 H214       -7.5158  -18.8452  -48.7975 H         1 UNK         0.0600 
    215 H215       -7.1296  -21.0606  -52.8667 H         1 UNK         0.3000 
    216 H216       -7.7298  -22.6738  -54.2204 H         1 UNK         0.0600 
    217 H217      -10.0656  -23.4859  -54.2406 H         1 UNK         0.0600 
    218 H218      -10.0209  -21.7564  -53.9409 H         1 UNK         0.0600 
    219 H219      -10.3273  -22.8765  -52.6136 H         1 UNK         0.0600 
    220 H220       -7.5471  -23.5913  -50.9051 H         1 UNK         0.3000 
    221 H221       -8.1192  -26.2803  -50.9300 H         1 UNK         0.0600 
    222 H222       -6.0392  -24.8139  -49.2327 H         1 UNK         0.0600 
    223 H223       -7.7596  -24.9418  -48.8807 H         1 UNK         0.0600 
    224 H224       -6.7454  -26.3769  -48.8424 H         1 UNK         0.0600 
    225 H225       -5.0048  -24.8122  -51.8643 H         1 UNK         0.3000 
    226 H226       -3.9220  -27.5058  -52.6154 H         1 UNK         0.0600 
    227 H227       -2.5716  -26.1158  -51.0154 H         1 UNK         0.0600 
    228 H228       -1.7309  -26.4217  -52.5248 H         1 UNK         0.0600 
    229 H229       -2.4632  -24.8473  -52.2427 H         1 UNK         0.0600 
    230 H230       -5.9925  -25.9293  -54.1148 H         1 UNK         0.3000 
    231 H231       -6.6077  -25.4189  -56.1518 H         1 UNK         0.0600 
    232 H232       -5.4481  -26.2017  -58.1457 H         1 UNK         0.0600 
    233 H233       -5.3447  -27.4555  -56.9214 H         1 UNK         0.0600 
    234 H234       -3.9469  -26.4361  -57.2676 H         1 UNK         0.0600 
    235 H235       -5.0059  -23.6444  -54.4166 H         1 UNK         0.3000 
    236 H236       -4.5643  -21.5367  -54.2082 H         1 UNK         0.0600 
    237 H237       -5.4522  -21.0228  -57.0972 H         1 UNK         0.0600 
    238 H238       -6.5487  -21.1307  -55.7232 H         1 UNK         0.0600 
    239 H239       -5.3691  -19.8424  -55.7970 H         1 UNK         0.0600 
    240 H240       -3.3234  -19.5302  -55.4509 H         1 UNK         0.3000 
    241 H241       -0.5938  -20.4293  -55.8261 H         1 UNK         0.0600 
    242 H242       -2.1386  -20.1487  -59.5481 H         1 UNK         0.3800 
    243 H243       -3.1759  -20.2243  -58.1499 H         1 UNK         0.3800 
    244 H244       -0.2673  -17.8666  -56.3329 H         1 UNK         0.0800 
    245 H245       -1.9232  -17.6859  -55.8588 H         1 UNK         0.0800 
    246 H246        1.6977  -18.8617  -54.6648 H         1 UNK         0.0800 
    247 H247        1.4136  -17.1544  -54.8833 H         1 UNK         0.0800 
@<TRIPOS>BOND
     1    1    2 1    
     2    1  127 1    
     3    1  128 1    
     4    1  129 1    
     5    2    3 2    
     6    2    4 am   BACKBONE|DICT|INTERRES
     7    4    5 1    
     8    4  130 1    
     9    5    6 1    
    10    5   65 1    
    11    5  131 1    
    12    6    7 1    
    13    6  132 1    
    14    6  133 1    
    15    7    8 1    
    16    8    9 1    
    17    8  134 1    
    18    8  135 1    
    19    9   10 ar   
    20    9   14 ar   
    21   10   11 ar   
    22   10  136 1    
    23   11   12 ar   
    24   11  126 1    
    25   12   13 ar   
    26   12  137 1    
    27   13   14 ar   
    28   13   15 1    
    29   14  138 1    
    30   15   16 1    
    31   15  139 1    
    32   15  140 1    
    33   16   17 1    
    34   17   18 1    
    35   17  141 1    
    36   17  142 1    
    37   18   19 1    
    38   18   67 1    
    39   18  143 1    
    40   19   20 am   BACKBONE|DICT|INTERRES
    41   19  144 1    
    42   20   21 2    
    43   20   22 1    
    44   22   23 1    
    45   22   24 1    
    46   22  145 1    
    47   23  146 1    
    48   23  147 1    
    49   23  148 1    
    50   24   25 am   BACKBONE|DICT|INTERRES
    51   24  149 1    
    52   25   26 2    
    53   25   27 1    
    54   27   28 1    
    55   27   29 1    
    56   27  150 1    
    57   28  151 1    
    58   28  152 1    
    59   28  153 1    
    60   29   30 am   BACKBONE|DICT|INTERRES
    61   29  154 1    
    62   30   31 2    
    63   30   32 1    
    64   32   33 1    
    65   32   34 1    
    66   32  155 1    
    67   33  156 1    
    68   33  157 1    
    69   33  158 1    
    70   34   35 am   BACKBONE|DICT|INTERRES
    71   34  159 1    
    72   35   36 2    
    73   35   37 1    
    74   37   38 1    
    75   37   39 1    
    76   37  160 1    
    77   38  161 1    
    78   38  162 1    
    79   38  163 1    
    80   39   40 am   BACKBONE|DICT|INTERRES
    81   39  164 1    
    82   40   41 2    
    83   40   42 1    
    84   42   43 1    
    85   42   44 1    
    86   42  165 1    
    87   43  166 1    
    88   43  167 1    
    89   43  168 1    
    90   44   45 am   BACKBONE|DICT|INTERRES
    91   44  169 1    
    92   45   46 2    
    93   45   47 1    
    94   47   48 1    
    95   47   49 1    
    96   47  170 1    
    97   48  171 1    
    98   48  172 1    
    99   48  173 1    
   100   49   50 am   BACKBONE|DICT|INTERRES
   101   49  174 1    
   102   50   51 2    
   103   50   52 1    
   104   52   53 1    
   105   52   54 1    
   106   52  175 1    
   107   53  176 1    
   108   53  177 1    
   109   53  178 1    
   110   54   55 am   BACKBONE|DICT|INTERRES
   111   54  179 1    
   112   55   56 2    
   113   55   57 1    
   114   57   58 1    
   115   57   59 1    
   116   57  180 1    
   117   58  181 1    
   118   58  182 1    
   119   58  183 1    
   120   59   60 am   BACKBONE|DICT|INTERRES
   121   59  184 1    
   122   60   61 2    
   123   60   62 1    
   124   62   63 1    
   125   62   64 1    
   126   62  185 1    
   127   63  186 1    
   128   63  187 1    
   129   63  188 1    
   130   64   65 am   BACKBONE|DICT|INTERRES
   131   64  189 1    
   132   65   66 2    
   133   67   68 2    
   134   67   69 am   BACKBONE|DICT|INTERRES
   135   69   70 1    
   136   69  190 1    
   137   70   71 1    
   138   70   72 1    
   139   70  191 1    
   140   71  192 1    
   141   71  193 1    
   142   71  194 1    
   143   72   73 2    
   144   72   74 am   BACKBONE|DICT|INTERRES
   145   74   75 1    
   146   74  195 1    
   147   75   76 1    
   148   75   77 1    
   149   75  196 1    
   150   76  197 1    
   151   76  198 1    
   152   76  199 1    
   153   77   78 2    
   154   77   79 am   BACKBONE|DICT|INTERRES
   155   79   80 1    
   156   79  200 1    
   157   80   81 1    
   158   80   82 1    
   159   80  201 1    
   160   81  202 1    
   161   81  203 1    
   162   81  204 1    
   163   82   83 2    
   164   82   84 am   BACKBONE|DICT|INTERRES
   165   84   85 1    
   166   84  205 1    
   167   85   86 1    
   168   85   87 1    
   169   85  206 1    
   170   86  207 1    
   171   86  208 1    
   172   86  209 1    
   173   87   88 2    
   174   87   89 am   BACKBONE|DICT|INTERRES
   175   89   90 1    
   176   89  210 1    
   177   90   91 1    
   178   90   92 1    
   179   90  211 1    
   180   91  212 1    
   181   91  213 1    
   182   91  214 1    
   183   92   93 2    
   184   92   94 am   BACKBONE|DICT|INTERRES
   185   94   95 1    
   186   94  215 1    
   187   95   96 1    
   188   95   97 1    
   189   95  216 1    
   190   96  217 1    
   191   96  218 1    
   192   96  219 1    
   193   97   98 2    
   194   97   99 am   BACKBONE|DICT|INTERRES
   195   99  100 1    
   196   99  220 1    
   197  100  101 1    
   198  100  102 1    
   199  100  221 1    
   200  101  222 1    
   201  101  223 1    
   202  101  224 1    
   203  102  103 2    
   204  102  104 am   BACKBONE|DICT|INTERRES
   205  104  105 1    
   206  104  225 1    
   207  105  106 1    
   208  105  107 1    
   209  105  226 1    
   210  106  227 1    
   211  106  228 1    
   212  106  229 1    
   213  107  108 2    
   214  107  109 am   BACKBONE|DICT|INTERRES
   215  109  110 1    
   216  109  230 1    
   217  110  111 1    
   218  110  112 1    
   219  110  231 1    
   220  111  232 1    
   221  111  233 1    
   222  111  234 1    
   223  112  113 2    
   224  112  114 am   BACKBONE|DICT|INTERRES
   225  114  115 1    
   226  114  235 1    
   227  115  116 1    
   228  115  117 1    
   229  115  236 1    
   230  116  237 1    
   231  116  238 1    
   232  116  239 1    
   233  117  118 2    
   234  117  119 am   BACKBONE|DICT|INTERRES
   235  119  120 1    
   236  119  240 1    
   237  120  121 1    
   238  120  124 1    
   239  120  241 1    
   240  121  122 am   BACKBONE|DICT|INTERRES
   241  121  123 2    
   242  122  242 1    
   243  122  243 1    
   244  124  125 1    
   245  124  244 1    
   246  124  245 1    
   247  125  126 1    
   248  126  246 1    
   249  126  247 1    
@<TRIPOS>SUBSTRUCTURE
     1 UNK         1 GROUP             0       ****    0 ROOT    
