@<TRIPOS>MOLECULE
3R540
247   249    1
SMALL
USER_CHARGES


@<TRIPOS>ATOM
      1 CA          0.9644  -12.2599  -49.5770 C.3       0 UNK        -0.1800 
      2 C           0.1744  -13.5331  -49.8404 C.2       0 UNK         0.5000 
      3 O          -0.7901  -13.5077  -50.6033 O.2       0 UNK        -0.5000 
      4 N           0.5768  -14.6423  -49.2036 N.am      1 UNK        -0.5000 
      5 CA         -0.0363  -15.9774  -49.3005 C.3       1 UNK         0.1400 
      6 C6         -0.0568  -16.5306  -50.7592 C.3       23 UNK        -0.0398 
      7 S7          0.4447  -18.2804  -50.8980 S.3       23 UNK        -0.2404 
      8 C8          2.2540  -18.0953  -50.8329 C.3       23 UNK        -0.0205 
      9 C9          2.9767  -19.2367  -51.5299 C.ar      23 UNK        -0.0193 
     10 C10         3.1992  -19.1783  -52.9097 C.ar      23 UNK        -0.1150 
     11 C11         3.9366  -20.1764  -53.5523 C.ar      23 UNK        -0.0193 
     12 C12         4.4349  -21.2475  -52.8063 C.ar      23 UNK        -0.1150 
     13 C13         4.2126  -21.3241  -51.4285 C.ar      23 UNK        -0.0193 
     14 C14         3.4794  -20.3151  -50.7943 C.ar      23 UNK        -0.1150 
     15 C15         4.8156  -22.4717  -50.6309 C.3       23 UNK        -0.0205 
     16 S16         3.5579  -23.6676  -50.0833 S.3       23 UNK        -0.2404 
     17 C17         3.4097  -23.2259  -48.3204 C.3       23 UNK        -0.0398 
     18 CA          2.0349  -23.5961  -47.7168 C.3       11 UNK         0.1400 
     19 N           2.1176  -23.7291  -46.2591 N.am      11 UNK        -0.5000 
     20 C           1.1502  -24.2309  -45.4791 C.2       10 UNK         0.5000 
     21 O           0.0923  -24.6783  -45.9156 O.2       10 UNK        -0.5000 
     22 CA          1.3826  -24.1934  -43.9565 C.3       10 UNK         0.1400 
     23 CB          1.9648  -25.5289  -43.4704 C.3       10 UNK        -0.1800 
     24 N           2.2588  -23.0998  -43.5293 N.am      10 UNK        -0.5000 
     25 C           1.9678  -21.7971  -43.6431 C.2       9 UNK         0.5000 
     26 O           0.9198  -21.3677  -44.1316 O.2       9 UNK        -0.5000 
     27 CA          3.0776  -20.8266  -43.2216 C.3       9 UNK         0.1400 
     28 CB          3.6883  -20.1531  -44.4623 C.3       9 UNK        -0.1800 
     29 N           2.5596  -19.7953  -42.3273 N.am      9 UNK        -0.5000 
     30 C           2.8143  -19.7312  -41.0136 C.2       8 UNK         0.5000 
     31 O           3.4144  -20.6083  -40.3888 O.2       8 UNK        -0.5000 
     32 CA          2.3706  -18.4561  -40.2746 C.3       8 UNK         0.1400 
     33 CB          3.2439  -17.2603  -40.6889 C.3       8 UNK        -0.1800 
     34 N           0.9633  -18.1232  -40.4809 N.am      8 UNK        -0.5000 
     35 C          -0.0606  -18.7373  -39.8716 C.2       7 UNK         0.5000 
     36 O           0.0728  -19.6781  -39.0877 O.2       7 UNK        -0.5000 
     37 CA         -1.4737  -18.2057  -40.1850 C.3       7 UNK         0.1400 
     38 CB         -1.7996  -16.9721  -39.3294 C.3       7 UNK        -0.1800 
     39 N          -1.6332  -17.8722  -41.5990 N.am      7 UNK        -0.5000 
     40 C          -1.6814  -18.7839  -42.5785 C.2       6 UNK         0.5000 
     41 O          -1.7385  -19.9954  -42.3745 O.2       6 UNK        -0.5000 
     42 CA         -1.6279  -18.2613  -44.0241 C.3       6 UNK         0.1400 
     43 CB         -3.0339  -18.0837  -44.6161 C.3       6 UNK        -0.1800 
     44 N          -0.8766  -17.0084  -44.1508 N.am      6 UNK        -0.5000 
     45 C           0.4562  -16.9117  -44.0363 C.2       5 UNK         0.5000 
     46 O           1.1961  -17.8699  -43.8326 O.2       5 UNK        -0.5000 
     47 CA          1.0666  -15.5034  -44.1142 C.3       5 UNK         0.1400 
     48 CB          1.2839  -15.0820  -45.5745 C.3       5 UNK        -0.1800 
     49 N           0.2470  -14.5140  -43.4147 N.am      5 UNK        -0.5000 
     50 C           0.1285  -14.4715  -42.0785 C.2       4 UNK         0.5000 
     51 O           0.7217  -15.2387  -41.3210 O.2       4 UNK        -0.5000 
     52 CA         -0.8469  -13.4392  -41.4831 C.3       4 UNK         0.1400 
     53 CB         -0.1225  -12.1147  -41.2022 C.3       4 UNK        -0.1800 
     54 N          -2.0149  -13.1801  -42.3255 N.am      4 UNK        -0.5000 
     55 C          -2.9125  -14.0988  -42.7063 C.2       3 UNK         0.5000 
     56 O          -2.8543  -15.2847  -42.3784 O.2       3 UNK        -0.5000 
     57 CA         -4.0422  -13.6376  -43.6490 C.3       3 UNK         0.1400 
     58 CB         -4.1555  -12.1032  -43.7973 C.3       3 UNK        -0.1800 
     59 N          -3.9380  -14.2647  -44.9707 N.am      3 UNK        -0.5000 
     60 C          -2.8856  -14.2283  -45.8005 C.2       2 UNK         0.5000 
     61 O          -1.8095  -13.6849  -45.5348 O.2       2 UNK        -0.5000 
     62 CA         -3.0865  -14.9020  -47.1641 C.3       2 UNK         0.1400 
     63 CB         -4.0294  -14.0649  -48.0441 C.3       2 UNK        -0.1800 
     64 N          -1.8043  -15.0394  -47.8457 N.am      2 UNK        -0.5000 
     65 C          -1.4166  -16.0737  -48.6029 C.2       1 UNK         0.5000 
     66 O          -2.0947  -17.0876  -48.7510 O.2       1 UNK        -0.5000 
     67 C           0.9365  -22.5957  -48.1376 C.2       11 UNK         0.5000 
     68 O           0.1633  -22.8811  -49.0498 O.2       11 UNK        -0.5000 
     69 N           0.8520  -21.4645  -47.4247 N.am      12 UNK        -0.5000 
     70 CA         -0.1715  -20.4400  -47.6281 C.3       12 UNK         0.1400 
     71 CB          0.3058  -19.1342  -46.9840 C.3       12 UNK        -0.1800 
     72 C          -1.5582  -20.8755  -47.1104 C.2       12 UNK         0.5000 
     73 O          -2.5760  -20.4860  -47.6863 O.2       12 UNK        -0.5000 
     74 N          -1.5796  -21.7187  -46.0668 N.am      13 UNK        -0.5000 
     75 CA         -2.7866  -22.3922  -45.5834 C.3       13 UNK         0.1400 
     76 CB         -2.5162  -23.0538  -44.2243 C.3       13 UNK        -0.1800 
     77 C          -3.3137  -23.4227  -46.6010 C.2       13 UNK         0.5000 
     78 O          -4.5116  -23.4369  -46.8821 O.2       13 UNK        -0.5000 
     79 N          -2.4093  -24.2306  -47.1757 N.am      14 UNK        -0.5000 
     80 CA         -2.6945  -25.1933  -48.2456 C.3       14 UNK         0.1400 
     81 CB         -1.4598  -26.0737  -48.4897 C.3       14 UNK        -0.1800 
     82 C          -3.1540  -24.5205  -49.5539 C.2       14 UNK         0.5000 
     83 O          -3.9908  -25.0782  -50.2636 O.2       14 UNK        -0.5000 
     84 N          -2.6506  -23.3057  -49.8107 N.am      15 UNK        -0.5000 
     85 CA         -3.0914  -22.3999  -50.8736 C.3       15 UNK         0.1400 
     86 CB         -1.9891  -21.3613  -51.1290 C.3       15 UNK        -0.1800 
     87 C          -4.4424  -21.7072  -50.5812 C.2       15 UNK         0.5000 
     88 O          -4.8593  -20.8468  -51.3597 O.2       15 UNK        -0.5000 
     89 N          -5.1000  -22.0731  -49.4698 N.am      16 UNK        -0.5000 
     90 CA         -6.4328  -21.6493  -49.0391 C.3       16 UNK         0.1400 
     91 CB         -7.5034  -22.2239  -49.9902 C.3       16 UNK        -0.1800 
     92 C          -6.5428  -20.1273  -48.8314 C.2       16 UNK         0.5000 
     93 O          -7.5620  -19.5307  -49.1801 O.2       16 UNK        -0.5000 
     94 N          -5.4731  -19.5268  -48.2869 N.am      17 UNK        -0.5000 
     95 CA         -5.2983  -18.0891  -48.0692 C.3       17 UNK         0.1400 
     96 CB         -6.2405  -17.5750  -46.9609 C.3       17 UNK        -0.1800 
     97 C          -5.4003  -17.2906  -49.3864 C.2       17 UNK         0.5000 
     98 O          -6.1822  -16.3442  -49.4896 O.2       17 UNK        -0.5000 
     99 N          -4.6129  -17.7332  -50.3757 N.am      18 UNK        -0.5000 
    100 CA        -4.4525  -17.1913  -51.7278 C.3       18 UNK         0.1400 
    101 CB        -4.0341  -15.7066  -51.7042 C.3       18 UNK        -0.1800 
    102 C         -5.6462  -17.4365  -52.6718 C.2       18 UNK         0.5000 
    103 O         -5.6037  -16.9711  -53.8117 O.2       18 UNK        -0.5000 
    104 N         -6.6633  -18.1946  -52.2357 N.am      19 UNK        -0.5000 
    105 CA        -7.7723  -18.6337  -53.0902 C.3       19 UNK         0.1400 
    106 CB        -8.9168  -19.1737  -52.2219 C.3       19 UNK        -0.1800 
    107 C         -7.3291  -19.6762  -54.1378 C.2       19 UNK         0.5000 
    108 O         -7.9281  -19.7531  -55.2112 O.2       19 UNK        -0.5000 
    109 N         -6.2656  -20.4237  -53.8218 N.am      20 UNK        -0.5000 
    110 CA        -5.5518  -21.3308  -54.7101 C.3       20 UNK         0.1400 
    111 CB        -5.9263  -22.7820  -54.3561 C.3       20 UNK        -0.1800 
    112 C         -4.0471  -21.0400  -54.5681 C.2       20 UNK         0.5000 
    113 O         -3.2748  -21.9397  -54.2331 O.2       20 UNK        -0.5000 
    114 N         -3.6708  -19.7661  -54.7728 N.am      21 UNK        -0.5000 
    115 CA        -2.3186  -19.2139  -54.6243 C.3       21 UNK         0.1400 
    116 CB        -2.2998  -17.7679  -55.1453 C.3       21 UNK        -0.1800 
    117 C         -1.2340  -20.0558  -55.3237 C.2       21 UNK         0.5000 
    118 O         -1.3027  -20.2441  -56.5404 O.2       21 UNK        -0.5000 
    119 N         -0.2740  -20.5538  -54.5333 N.am      22 UNK        -0.5000 
    120 CA         0.8048  -21.4637  -54.9567 C.3       22 UNK         0.1400 
    121 C          0.3418  -22.9168  -55.3052 C.2       22 UNK         0.5000 
    122 N         -0.8989  -23.3122  -55.0457 N.am      22 UNK        -0.7600 
    123 O          1.1269  -23.7246  -55.7934 O.2       22 UNK        -0.5000 
    124 C124        1.7104  -20.8220  -56.0493 C.3       23 UNK        -0.0398 
    125 S125        3.4433  -21.3923  -56.0056 S.3       23 UNK        -0.2404 
    126 C126        4.2477  -20.0764  -55.0392 C.3       23 UNK        -0.0205 
    127 H127        0.3119  -11.4950  -49.1568 H         1 UNK         0.0600 
    128 H128        1.3832  -11.8786  -50.5082 H         1 UNK         0.0600 
    129 H129        1.7848  -12.4277  -48.8792 H         1 UNK         0.0600 
    130 H130        1.3828  -14.5847  -48.5971 H         1 UNK         0.3000 
    131 H131        0.6216  -16.6117  -48.7067 H         1 UNK         0.0600 
    132 H132       -1.0412  -16.4195  -51.2150 H         1 UNK         0.0800 
    133 H133        0.6057  -15.9505  -51.4021 H         1 UNK         0.0800 
    134 H134        2.5675  -18.0277  -49.7902 H         1 UNK         0.0800 
    135 H135        2.5542  -17.1558  -51.2989 H         1 UNK         0.0800 
    136 H136        2.8215  -18.3388  -53.4766 H         1 UNK         0.1150 
    137 H137        5.0134  -22.0146  -53.3024 H         1 UNK         0.1150 
    138 H138        3.3176  -20.3572  -49.7268 H         1 UNK         0.1150 
    139 H139        5.5488  -23.0067  -51.2365 H         1 UNK         0.0800 
    140 H140        5.3716  -22.0759  -49.7800 H         1 UNK         0.0800 
    141 H141        3.6298  -22.1677  -48.1704 H         1 UNK         0.0800 
    142 H142        4.2009  -23.7698  -47.8021 H         1 UNK         0.0800 
    143 H143        1.7466  -24.5769  -48.1022 H         1 UNK         0.0600 
    144 H144        2.9608  -23.3960  -45.8164 H         1 UNK         0.3000 
    145 H145        0.4122  -24.0495  -43.4772 H         1 UNK         0.0600 
    146 H146        2.0595  -25.5463  -42.3845 H         1 UNK         0.0600 
    147 H147        1.3185  -26.3619  -43.7517 H         1 UNK         0.0600 
    148 H148        2.9503  -25.7193  -43.8978 H         1 UNK         0.0600 
    149 H149        3.1444  -23.3694  -43.1250 H         1 UNK         0.3000 
    150 H150        3.8739  -21.3897  -42.7299 H         1 UNK         0.0600 
    151 H151        4.1087  -20.8932  -45.1444 H         1 UNK         0.0600 
    152 H152        4.4943  -19.4742  -44.1830 H         1 UNK         0.0600 
    153 H153        2.9477  -19.5771  -45.0181 H         1 UNK         0.0600 
    154 H154        2.0062  -19.0655  -42.7757 H         1 UNK         0.3000 
    155 H155        2.5289  -18.6222  -39.2064 H         1 UNK         0.0600 
    156 H156        3.0999  -16.9986  -41.7382 H         1 UNK         0.0600 
    157 H157        4.3030  -17.4796  -40.5462 H         1 UNK         0.0600 
    158 H158        3.0119  -16.3787  -40.0910 H         1 UNK         0.0600 
    159 H159        0.7708  -17.3226  -41.0717 H         1 UNK         0.3000 
    160 H160       -2.1920  -18.9894  -39.9340 H         1 UNK         0.0600 
    161 H161       -1.1024  -16.1551  -39.5150 H         1 UNK         0.0600 
    162 H162       -1.7474  -17.2117  -38.2665 H         1 UNK         0.0600 
    163 H163       -2.8063  -16.6057  -39.5328 H         1 UNK         0.0600 
    164 H164       -1.6911  -16.8901  -41.8439 H         1 UNK         0.3000 
    165 H165       -1.1220  -19.0323  -44.6037 H         1 UNK         0.0600 
    166 H166       -2.9782  -17.8363  -45.6756 H         1 UNK         0.0600 
    167 H167       -3.6118  -19.0051  -44.5319 H         1 UNK         0.0600 
    168 H168       -3.5922  -17.2963  -44.1095 H         1 UNK         0.0600 
    169 H169       -1.4156  -16.1592  -44.2337 H         1 UNK         0.3000 
    170 H170        2.0452  -15.5375  -43.6298 H         1 UNK         0.0600 
    171 H171        1.9559  -15.7755  -46.0815 H         1 UNK         0.0600 
    172 H172        1.7291  -14.0890  -45.6382 H         1 UNK         0.0600 
    173 H173        0.3498  -15.0685  -46.1316 H         1 UNK         0.0600 
    174 H174       -0.3151  -13.8925  -43.9857 H         1 UNK         0.3000 
    175 H175       -1.2079  -13.8392  -40.5336 H         1 UNK         0.0600 
    176 H176        0.2346  -11.6485  -42.1214 H         1 UNK         0.0600 
    177 H177       -0.7783  -11.4050  -40.6977 H         1 UNK         0.0600 
    178 H178        0.7423  -12.2723  -40.5561 H         1 UNK         0.0600 
    179 H179       -2.1223  -12.2371  -42.6696 H         1 UNK         0.3000 
    180 H180       -4.9715  -13.9959  -43.2038 H         1 UNK         0.0600 
    181 H181       -3.2777  -11.6662  -44.2746 H         1 UNK         0.0600 
    182 H182       -4.2863  -11.6209  -42.8277 H         1 UNK         0.0600 
    183 H183       -5.0217  -11.8371  -44.4034 H         1 UNK         0.0600 
    184 H184       -4.7681  -14.7548  -45.2712 H         1 UNK         0.3000 
    185 H185       -3.5239  -15.8843  -46.9892 H         1 UNK         0.0600 
    186 H186       -3.6561  -13.0489  -48.1791 H         1 UNK         0.0600 
    187 H187       -4.1424  -14.5065  -49.0324 H         1 UNK         0.0600 
    188 H188       -5.0263  -13.9966  -47.6074 H         1 UNK         0.0600 
    189 H189       -1.1685  -14.2659  -47.7085 H         1 UNK         0.3000 
    190 H190        1.4774  -21.3273  -46.6444 H         1 UNK         0.3000 
    191 H191       -0.2699  -20.2585  -48.6989 H         1 UNK         0.0600 
    192 H192       -0.4898  -18.3900  -46.9526 H         1 UNK         0.0600 
    193 H193        1.1374  -18.7063  -47.5434 H         1 UNK         0.0600 
    194 H194        0.6505  -19.3007  -45.9651 H         1 UNK         0.0600 
    195 H195       -0.7078  -21.9458  -45.6055 H         1 UNK         0.3000 
    196 H196       -3.5574  -21.6319  -45.4397 H         1 UNK         0.0600 
    197 H197       -3.4444  -23.4163  -43.7816 H         1 UNK         0.0600 
    198 H198       -2.0719  -22.3513  -43.5202 H         1 UNK         0.0600 
    199 H199       -1.8458  -23.9075  -44.3109 H         1 UNK         0.0600 
    200 H200       -1.4503  -24.2087  -46.8373 H         1 UNK         0.3000 
    201 H201       -3.5077  -25.8368  -47.9038 H         1 UNK         0.0600 
    202 H202       -1.1744  -26.6116  -47.5855 H         1 UNK         0.0600 
    203 H203       -0.6018  -25.4842  -48.8129 H         1 UNK         0.0600 
    204 H204       -1.6570  -26.8177  -49.2625 H         1 UNK         0.0600 
    205 H205       -1.8973  -22.9689  -49.2214 H         1 UNK         0.3000 
    206 H206       -3.2236  -22.9871  -51.7839 H         1 UNK         0.0600 
    207 H207       -1.0315  -21.8365  -51.3423 H         1 UNK         0.0600 
    208 H208       -2.2389  -20.7396  -51.9847 H         1 UNK         0.0600 
    209 H209       -1.8590  -20.6954  -50.2781 H         1 UNK         0.0600 
    210 H210       -4.6519  -22.7376  -48.8505 H         1 UNK         0.3000 
    211 H211       -6.5973  -22.0938  -48.0569 H         1 UNK         0.0600 
    212 H212       -7.3704  -21.8696  -51.0122 H         1 UNK         0.0600 
    213 H213       -8.5093  -21.9493  -49.6706 H         1 UNK         0.0600 
    214 H214       -7.4588  -23.3128  -50.0122 H         1 UNK         0.0600 
    215 H215       -4.6578  -20.0952  -48.0800 H         1 UNK         0.3000 
    216 H216       -4.2778  -17.9711  -47.7091 H         1 UNK         0.0600 
    217 H217       -6.0478  -16.5246  -46.7418 H         1 UNK         0.0600 
    218 H218       -6.0976  -18.1318  -46.0347 H         1 UNK         0.0600 
    219 H219       -7.2894  -17.6602  -47.2461 H         1 UNK         0.0600 
    220 H220       -4.0329  -18.5359  -50.1709 H         1 UNK         0.3000 
    221 H221       -3.6209  -17.7523  -52.1551 H         1 UNK         0.0600 
    222 H222       -4.8577  -15.0583  -51.4042 H         1 UNK         0.0600 
    223 H223       -3.2064  -15.5348  -51.0181 H         1 UNK         0.0600 
    224 H224       -3.7075  -15.3772  -52.6911 H         1 UNK         0.0600 
    225 H225       -6.6390  -18.5508  -51.2893 H         1 UNK         0.3000 
    226 H226       -8.1479  -17.7632  -53.6322 H         1 UNK         0.0600 
    227 H227       -8.6192  -20.0632  -51.6699 H         1 UNK         0.0600 
    228 H228       -9.2501  -18.4284  -51.4993 H         1 UNK         0.0600 
    229 H229       -9.7778  -19.4422  -52.8352 H         1 UNK         0.0600 
    230 H230       -5.8392  -20.3124  -52.9036 H         1 UNK         0.3000 
    231 H231       -5.8197  -21.1426  -55.7517 H         1 UNK         0.0600 
    232 H232       -6.9957  -22.9528  -54.4800 H         1 UNK         0.0600 
    233 H233       -5.4058  -23.4894  -55.0026 H         1 UNK         0.0600 
    234 H234       -5.6669  -23.0232  -53.3242 H         1 UNK         0.0600 
    235 H235       -4.3861  -19.1047  -55.0393 H         1 UNK         0.3000 
    236 H236       -2.0974  -19.1739  -53.5579 H         1 UNK         0.0600 
    237 H237       -2.9864  -17.1328  -54.5871 H         1 UNK         0.0600 
    238 H238       -1.3055  -17.3304  -55.0464 H         1 UNK         0.0600 
    239 H239       -2.5778  -17.7168  -56.1988 H         1 UNK         0.0600 
    240 H240       -0.3055  -20.3587  -53.5430 H         1 UNK         0.3000 
    241 H241        1.4106  -21.5831  -54.0578 H         1 UNK         0.0600 
    242 H242       -1.1632  -24.2578  -55.2692 H         1 UNK         0.3800 
    243 H243       -1.6014  -22.6792  -54.6712 H         1 UNK         0.3800 
    244 H244        1.7150  -19.7363  -55.9445 H         1 UNK         0.0800 
    245 H245        1.3058  -21.0143  -57.0444 H         1 UNK         0.0800 
    246 H246        5.3272  -20.1571  -55.1753 H         1 UNK         0.0800 
    247 H247        3.9667  -19.1002  -55.4374 H         1 UNK         0.0800 
@<TRIPOS>BOND
     1    1    2 1    
     2    1  127 1    
     3    1  128 1    
     4    1  129 1    
     5    2    3 2    
     6    2    4 am   BACKBONE|DICT|INTERRES
     7    4    5 1    
     8    4  130 1    
     9    5    6 1    
    10    5   65 1    
    11    5  131 1    
    12    6    7 1    
    13    6  132 1    
    14    6  133 1    
    15    7    8 1    
    16    8    9 1    
    17    8  134 1    
    18    8  135 1    
    19    9   10 ar   
    20    9   14 ar   
    21   10   11 ar   
    22   10  136 1    
    23   11   12 ar   
    24   11  126 1    
    25   12   13 ar   
    26   12  137 1    
    27   13   14 ar   
    28   13   15 1    
    29   14  138 1    
    30   15   16 1    
    31   15  139 1    
    32   15  140 1    
    33   16   17 1    
    34   17   18 1    
    35   17  141 1    
    36   17  142 1    
    37   18   19 1    
    38   18   67 1    
    39   18  143 1    
    40   19   20 am   BACKBONE|DICT|INTERRES
    41   19  144 1    
    42   20   21 2    
    43   20   22 1    
    44   22   23 1    
    45   22   24 1    
    46   22  145 1    
    47   23  146 1    
    48   23  147 1    
    49   23  148 1    
    50   24   25 am   BACKBONE|DICT|INTERRES
    51   24  149 1    
    52   25   26 2    
    53   25   27 1    
    54   27   28 1    
    55   27   29 1    
    56   27  150 1    
    57   28  151 1    
    58   28  152 1    
    59   28  153 1    
    60   29   30 am   BACKBONE|DICT|INTERRES
    61   29  154 1    
    62   30   31 2    
    63   30   32 1    
    64   32   33 1    
    65   32   34 1    
    66   32  155 1    
    67   33  156 1    
    68   33  157 1    
    69   33  158 1    
    70   34   35 am   BACKBONE|DICT|INTERRES
    71   34  159 1    
    72   35   36 2    
    73   35   37 1    
    74   37   38 1    
    75   37   39 1    
    76   37  160 1    
    77   38  161 1    
    78   38  162 1    
    79   38  163 1    
    80   39   40 am   BACKBONE|DICT|INTERRES
    81   39  164 1    
    82   40   41 2    
    83   40   42 1    
    84   42   43 1    
    85   42   44 1    
    86   42  165 1    
    87   43  166 1    
    88   43  167 1    
    89   43  168 1    
    90   44   45 am   BACKBONE|DICT|INTERRES
    91   44  169 1    
    92   45   46 2    
    93   45   47 1    
    94   47   48 1    
    95   47   49 1    
    96   47  170 1    
    97   48  171 1    
    98   48  172 1    
    99   48  173 1    
   100   49   50 am   BACKBONE|DICT|INTERRES
   101   49  174 1    
   102   50   51 2    
   103   50   52 1    
   104   52   53 1    
   105   52   54 1    
   106   52  175 1    
   107   53  176 1    
   108   53  177 1    
   109   53  178 1    
   110   54   55 am   BACKBONE|DICT|INTERRES
   111   54  179 1    
   112   55   56 2    
   113   55   57 1    
   114   57   58 1    
   115   57   59 1    
   116   57  180 1    
   117   58  181 1    
   118   58  182 1    
   119   58  183 1    
   120   59   60 am   BACKBONE|DICT|INTERRES
   121   59  184 1    
   122   60   61 2    
   123   60   62 1    
   124   62   63 1    
   125   62   64 1    
   126   62  185 1    
   127   63  186 1    
   128   63  187 1    
   129   63  188 1    
   130   64   65 am   BACKBONE|DICT|INTERRES
   131   64  189 1    
   132   65   66 2    
   133   67   68 2    
   134   67   69 am   BACKBONE|DICT|INTERRES
   135   69   70 1    
   136   69  190 1    
   137   70   71 1    
   138   70   72 1    
   139   70  191 1    
   140   71  192 1    
   141   71  193 1    
   142   71  194 1    
   143   72   73 2    
   144   72   74 am   BACKBONE|DICT|INTERRES
   145   74   75 1    
   146   74  195 1    
   147   75   76 1    
   148   75   77 1    
   149   75  196 1    
   150   76  197 1    
   151   76  198 1    
   152   76  199 1    
   153   77   78 2    
   154   77   79 am   BACKBONE|DICT|INTERRES
   155   79   80 1    
   156   79  200 1    
   157   80   81 1    
   158   80   82 1    
   159   80  201 1    
   160   81  202 1    
   161   81  203 1    
   162   81  204 1    
   163   82   83 2    
   164   82   84 am   BACKBONE|DICT|INTERRES
   165   84   85 1    
   166   84  205 1    
   167   85   86 1    
   168   85   87 1    
   169   85  206 1    
   170   86  207 1    
   171   86  208 1    
   172   86  209 1    
   173   87   88 2    
   174   87   89 am   BACKBONE|DICT|INTERRES
   175   89   90 1    
   176   89  210 1    
   177   90   91 1    
   178   90   92 1    
   179   90  211 1    
   180   91  212 1    
   181   91  213 1    
   182   91  214 1    
   183   92   93 2    
   184   92   94 am   BACKBONE|DICT|INTERRES
   185   94   95 1    
   186   94  215 1    
   187   95   96 1    
   188   95   97 1    
   189   95  216 1    
   190   96  217 1    
   191   96  218 1    
   192   96  219 1    
   193   97   98 2    
   194   97   99 am   BACKBONE|DICT|INTERRES
   195   99  100 1    
   196   99  220 1    
   197  100  101 1    
   198  100  102 1    
   199  100  221 1    
   200  101  222 1    
   201  101  223 1    
   202  101  224 1    
   203  102  103 2    
   204  102  104 am   BACKBONE|DICT|INTERRES
   205  104  105 1    
   206  104  225 1    
   207  105  106 1    
   208  105  107 1    
   209  105  226 1    
   210  106  227 1    
   211  106  228 1    
   212  106  229 1    
   213  107  108 2    
   214  107  109 am   BACKBONE|DICT|INTERRES
   215  109  110 1    
   216  109  230 1    
   217  110  111 1    
   218  110  112 1    
   219  110  231 1    
   220  111  232 1    
   221  111  233 1    
   222  111  234 1    
   223  112  113 2    
   224  112  114 am   BACKBONE|DICT|INTERRES
   225  114  115 1    
   226  114  235 1    
   227  115  116 1    
   228  115  117 1    
   229  115  236 1    
   230  116  237 1    
   231  116  238 1    
   232  116  239 1    
   233  117  118 2    
   234  117  119 am   BACKBONE|DICT|INTERRES
   235  119  120 1    
   236  119  240 1    
   237  120  121 1    
   238  120  124 1    
   239  120  241 1    
   240  121  122 am   BACKBONE|DICT|INTERRES
   241  121  123 2    
   242  122  242 1    
   243  122  243 1    
   244  124  125 1    
   245  124  244 1    
   246  124  245 1    
   247  125  126 1    
   248  126  246 1    
   249  126  247 1    
@<TRIPOS>SUBSTRUCTURE
     1 UNK         1 GROUP             0       ****    0 ROOT    
