@<TRIPOS>MOLECULE
3R540
247   249    1
SMALL
USER_CHARGES


@<TRIPOS>ATOM
      1 CA         -1.4394   -8.7094  -44.9299 C.3       0 UNK        -0.1800 
      2 C          -0.4700   -9.8816  -44.9268 C.2       0 UNK         0.5000 
      3 O           0.4950   -9.8742  -44.1643 O.2       0 UNK        -0.5000 
      4 N          -0.7307  -10.8974  -45.7600 N.am      1 UNK        -0.5000 
      5 CA          0.1013  -12.0956  -45.9454 C.3       1 UNK         0.1400 
      6 C6         -0.4574  -13.0036  -47.0656 C.3       23 UNK        -0.0398 
      7 S7         -0.3547  -12.2262  -48.7139 S.3       23 UNK        -0.2404 
      8 C8          0.4109  -13.5527  -49.7096 C.3       23 UNK        -0.0205 
      9 C9         -0.6121  -14.4784  -50.3636 C.ar      23 UNK        -0.0193 
     10 C10        -0.5733  -14.6931  -51.7450 C.ar      23 UNK        -0.1150 
     11 C11        -1.4836  -15.5579  -52.3614 C.ar      23 UNK        -0.0193 
     12 C12        -2.4538  -16.1982  -51.5869 C.ar      23 UNK        -0.1150 
     13 C13        -2.4930  -16.0112  -50.2031 C.ar      23 UNK        -0.0193 
     14 C14        -1.5729  -15.1496  -49.6002 C.ar      23 UNK        -0.1150 
     15 C15        -3.5139  -16.7554  -49.3578 C.3       23 UNK        -0.0205 
     16 S16        -3.1731  -18.5410  -49.3572 S.3       23 UNK        -0.2404 
     17 C17        -3.8100  -19.0206  -47.7178 C.3       23 UNK        -0.0398 
     18 CA         -3.7627  -20.5512  -47.5178 C.3       11 UNK         0.1400 
     19 N          -2.4078  -21.1038  -47.6437 N.am      11 UNK        -0.5000 
     20 C          -2.1194  -22.4088  -47.7379 C.2       10 UNK         0.5000 
     21 O          -2.9838  -23.2864  -47.7378 O.2       10 UNK        -0.5000 
     22 CA         -0.6416  -22.8244  -47.8407 C.3       10 UNK         0.1400 
     23 CB         -0.2858  -23.0914  -49.3074 C.3       10 UNK        -0.1800 
     24 N           0.3121  -21.8563  -47.3033 N.am      10 UNK        -0.5000 
     25 C           0.3788  -21.4153  -46.0398 C.2       9 UNK         0.5000 
     26 O          -0.3889  -21.7738  -45.1456 O.2       9 UNK        -0.5000 
     27 CA          1.4720  -20.3660  -45.7377 C.3       9 UNK         0.1400 
     28 CB          2.6745  -20.4434  -46.7027 C.3       9 UNK        -0.1800 
     29 N           0.9893  -18.9813  -45.7000 N.am      9 UNK        -0.5000 
     30 C           0.1134  -18.3843  -46.5261 C.2       8 UNK         0.5000 
     31 O          -0.5476  -18.9672  -47.3807 O.2       8 UNK        -0.5000 
     32 CA         -0.0165  -16.8542  -46.4176 C.3       8 UNK         0.1400 
     33 CB         -1.0658  -16.4709  -45.3626 C.3       8 UNK        -0.1800 
     34 N           1.2483  -16.1863  -46.1117 N.am      8 UNK        -0.5000 
     35 C           2.3752  -16.2817  -46.8332 C.2       7 UNK         0.5000 
     36 O           2.4322  -16.8186  -47.9401 O.2       7 UNK        -0.5000 
     37 CA          3.6605  -15.7065  -46.2031 C.3       7 UNK         0.1400 
     38 CB          4.0299  -14.3791  -46.8829 C.3       7 UNK        -0.1800 
     39 N           3.5866  -15.4996  -44.7507 N.am      7 UNK        -0.5000 
     40 C           3.3403  -16.4418  -43.8265 C.2       6 UNK         0.5000 
     41 O           3.1895  -17.6348  -44.0981 O.2       6 UNK        -0.5000 
     42 CA          3.1725  -15.9570  -42.3696 C.3       6 UNK         0.1400 
     43 CB          3.2979  -17.0946  -41.3350 C.3       6 UNK        -0.1800 
     44 N           4.0452  -14.8324  -42.0207 N.am      6 UNK        -0.5000 
     45 C           5.3868  -14.8138  -42.0366 C.2       5 UNK         0.5000 
     46 O           6.0824  -15.7928  -42.3128 O.2       5 UNK        -0.5000 
     47 CA          6.0582  -13.4679  -41.6823 C.3       5 UNK         0.1400 
     48 CB          7.4847  -13.3474  -42.2581 C.3       5 UNK        -0.1800 
     49 N           5.2630  -12.2882  -42.0481 N.am      5 UNK        -0.5000 
     50 C           4.8277  -11.9417  -43.2675 C.2       4 UNK         0.5000 
     51 O           4.9825  -12.6396  -44.2696 O.2       4 UNK        -0.5000 
     52 CA          4.0745  -10.5986  -43.3650 C.3       4 UNK         0.1400 
     53 CB          3.7696  -10.2023  -44.8206 C.3       4 UNK        -0.1800 
     54 N           2.8203  -10.6109  -42.6129 N.am      4 UNK        -0.5000 
     55 C           2.6926  -10.5629  -41.2804 C.2       3 UNK         0.5000 
     56 O           3.6471  -10.4918  -40.5046 O.2       3 UNK        -0.5000 
     57 CA          1.2614  -10.6259  -40.7207 C.3       3 UNK         0.1400 
     58 CB          0.6497   -9.2191  -40.6367 C.3       3 UNK        -0.1800 
     59 N           0.3906  -11.4839  -41.5247 N.am      3 UNK        -0.5000 
     60 C           0.3933  -12.8232  -41.4822 C.2       2 UNK         0.5000 
     61 O           1.1306  -13.4843  -40.7506 O.2       2 UNK        -0.5000 
     62 CA         -0.5811  -13.5446  -42.4330 C.3       2 UNK         0.1400 
     63 CB         -1.9824  -13.6363  -41.8117 C.3       2 UNK        -0.1800 
     64 N          -0.6719  -12.8895  -43.7385 N.am      2 UNK        -0.5000 
     65 C           0.3068  -12.9162  -44.6529 C.2       1 UNK         0.5000 
     66 O           1.3448  -13.5602  -44.5072 O.2       1 UNK        -0.5000 
     67 C          -4.4515  -20.9699  -46.2012 C.2       11 UNK         0.5000 
     68 O          -5.6780  -21.0726  -46.1741 O.2       11 UNK        -0.5000 
     69 N          -3.6612  -21.2848  -45.1626 N.am      12 UNK        -0.5000 
     70 CA         -4.1336  -21.8769  -43.9073 C.3       12 UNK         0.1400 
     71 CB         -3.0102  -21.7993  -42.8629 C.3       12 UNK        -0.1800 
     72 C          -4.6238  -23.3329  -44.0679 C.2       12 UNK         0.5000 
     73 O          -5.3985  -23.8037  -43.2351 O.2       12 UNK        -0.5000 
     74 N          -4.1900  -24.0057  -45.1423 N.am      13 UNK        -0.5000 
     75 CA         -4.6026  -25.3484  -45.5490 C.3       13 UNK         0.1400 
     76 CB         -3.3416  -26.1852  -45.8339 C.3       13 UNK        -0.1800 
     77 C          -5.5419  -25.2844  -46.7717 C.2       13 UNK         0.5000 
     78 O          -5.5457  -26.2066  -47.5887 O.2       13 UNK        -0.5000 
     79 N          -6.3034  -24.1850  -46.8948 N.am      14 UNK        -0.5000 
     80 CA         -7.2650  -23.8871  -47.9627 C.3       14 UNK         0.1400 
     81 CB         -8.4677  -24.8522  -47.8968 C.3       14 UNK        -0.1800 
     82 C          -6.6082  -23.8408  -49.3573 C.2       14 UNK         0.5000 
     83 O          -7.1304  -24.4245  -50.3069 O.2       14 UNK        -0.5000 
     84 N          -5.4490  -23.1722  -49.4349 N.am      15 UNK        -0.5000 
     85 CA         -4.5656  -23.0552  -50.6017 C.3       15 UNK         0.1400 
     86 CB         -5.2568  -22.3039  -51.7585 C.3       15 UNK        -0.1800 
     87 C          -4.0026  -24.4276  -51.0136 C.2       15 UNK         0.5000 
     88 O          -4.0331  -24.7791  -52.1912 O.2       15 UNK        -0.5000 
     89 N          -3.5373  -25.1905  -50.0123 N.am      16 UNK        -0.5000 
     90 CA         -3.0721  -26.5797  -50.1028 C.3       16 UNK         0.1400 
     91 CB         -1.7068  -26.6525  -50.8177 C.3       16 UNK        -0.1800 
     92 C          -4.1353  -27.5112  -50.7257 C.2       16 UNK         0.5000 
     93 O          -3.8494  -28.2291  -51.6854 O.2       16 UNK        -0.5000 
     94 N          -5.3522  -27.4498  -50.1658 N.am      17 UNK        -0.5000 
     95 CA         -6.5679  -28.1431  -50.5993 C.3       17 UNK         0.1400 
     96 CB         -6.4350  -29.6664  -50.3904 C.3       17 UNK        -0.1800 
     97 C          -6.9916  -27.7556  -52.0328 C.2       17 UNK         0.5000 
     98 O          -7.1533  -28.6242  -52.8925 O.2       17 UNK        -0.5000 
     99 N          -7.1751  -26.4450  -52.2453 N.am      18 UNK        -0.5000 
    100 CA        -7.6379  -25.7914  -53.4729 C.3       18 UNK         0.1400 
    101 CB        -9.1030  -26.1726  -53.7735 C.3       18 UNK        -0.1800 
    102 C         -6.6965  -25.9909  -54.6791 C.2       18 UNK         0.5000 
    103 O         -7.1619  -26.1973  -55.8025 O.2       18 UNK        -0.5000 
    104 N         -5.3862  -25.9040  -54.4280 N.am      19 UNK        -0.5000 
    105 CA        -4.3389  -25.8583  -55.4435 C.3       19 UNK         0.1400 
    106 CB        -3.1003  -26.5945  -54.8990 C.3       19 UNK        -0.1800 
    107 C         -4.0163  -24.3938  -55.8083 C.2       19 UNK         0.5000 
    108 O         -4.6764  -23.4643  -55.3372 O.2       19 UNK        -0.5000 
    109 N         -2.9837  -24.2080  -56.6388 N.am      20 UNK        -0.5000 
    110 CA        -2.4660  -22.9021  -57.0621 C.3       20 UNK         0.1400 
    111 CB        -1.8180  -23.0672  -58.4480 C.3       20 UNK        -0.1800 
    112 C         -1.4742  -22.2761  -56.0532 C.2       20 UNK         0.5000 
    113 O         -0.8418  -21.2693  -56.3765 O.2       20 UNK        -0.5000 
    114 N         -1.3185  -22.8930  -54.8737 N.am      21 UNK        -0.5000 
    115 CA        -0.4147  -22.4703  -53.8051 C.3       21 UNK         0.1400 
    116 CB        -0.3497  -23.5880  -52.7549 C.3       21 UNK        -0.1800 
    117 C         -0.8292  -21.1289  -53.1646 C.2       21 UNK         0.5000 
    118 O         -2.0207  -20.8231  -53.0853 O.2       21 UNK        -0.5000 
    119 N          0.1741  -20.3746  -52.7075 N.am      22 UNK        -0.5000 
    120 CA         0.0649  -19.0213  -52.1426 C.3       22 UNK         0.1400 
    121 C          0.9780  -18.8591  -50.8952 C.2       22 UNK         0.5000 
    122 N          0.8375  -17.7591  -50.1682 N.am      22 UNK        -0.7600 
    123 O          1.8243  -19.6996  -50.5951 O.2       22 UNK        -0.5000 
    124 C124        0.3857  -17.9489  -53.2259 C.3       23 UNK        -0.0398 
    125 S125       -1.0659  -17.5670  -54.2666 S.3       23 UNK        -0.2404 
    126 C126       -1.3994  -15.8171  -53.8605 C.3       23 UNK        -0.0205 
    127 H127       -0.9159   -7.7929  -45.2015 H         1 UNK         0.0600 
    128 H128       -1.8689   -8.5764  -43.9370 H         1 UNK         0.0600 
    129 H129       -2.2550   -8.8591  -45.6377 H         1 UNK         0.0600 
    130 H130       -1.5343  -10.8340  -46.3689 H         1 UNK         0.3000 
    131 H131        1.0918  -11.7538  -46.2510 H         1 UNK         0.0600 
    132 H132       -1.4981  -13.2641  -46.8655 H         1 UNK         0.0800 
    133 H133        0.0910  -13.9438  -47.0959 H         1 UNK         0.0800 
    134 H134        1.0213  -13.0730  -50.4761 H         1 UNK         0.0800 
    135 H135        1.1041  -14.1418  -49.1078 H         1 UNK         0.0800 
    136 H136        0.1777  -14.1954  -52.3426 H         1 UNK         0.1150 
    137 H137       -3.1560  -16.8730  -52.0567 H         1 UNK         0.1150 
    138 H138       -1.6111  -15.0011  -48.5330 H         1 UNK         0.1150 
    139 H139       -3.5049  -16.3782  -48.3340 H         1 UNK         0.0800 
    140 H140       -4.5172  -16.5772  -49.7471 H         1 UNK         0.0800 
    141 H141       -4.8342  -18.6528  -47.6301 H         1 UNK         0.0800 
    142 H142       -3.2269  -18.5141  -46.9483 H         1 UNK         0.0800 
    143 H143       -4.3568  -20.9845  -48.3219 H         1 UNK         0.0600 
    144 H144       -1.6494  -20.4225  -47.6528 H         1 UNK         0.3000 
    145 H145       -0.5274  -23.7536  -47.2792 H         1 UNK         0.0600 
    146 H146       -0.3161  -22.1746  -49.8986 H         1 UNK         0.0600 
    147 H147        0.7116  -23.5212  -49.4015 H         1 UNK         0.0600 
    148 H148       -0.9864  -23.7933  -49.7578 H         1 UNK         0.0600 
    149 H149        0.9504  -21.4481  -47.9713 H         1 UNK         0.3000 
    150 H150        1.8403  -20.5916  -44.7359 H         1 UNK         0.0600 
    151 H151        3.0640  -21.4598  -46.7738 H         1 UNK         0.0600 
    152 H152        3.4905  -19.8109  -46.3520 H         1 UNK         0.0600 
    153 H153        2.4156  -20.1091  -47.7085 H         1 UNK         0.0600 
    154 H154        1.4950  -18.3870  -45.0527 H         1 UNK         0.3000 
    155 H155       -0.3509  -16.4953  -47.3905 H         1 UNK         0.0600 
    156 H156       -0.7458  -16.7484  -44.3576 H         1 UNK         0.0600 
    157 H157       -2.0155  -16.9710  -45.5536 H         1 UNK         0.0600 
    158 H158       -1.2634  -15.4002  -45.3674 H         1 UNK         0.0600 
    159 H159        1.2990  -15.6631  -45.2473 H         1 UNK         0.3000 
    160 H160        4.4590  -16.4260  -46.3930 H         1 UNK         0.0600 
    161 H161        3.3089  -13.5944  -46.6492 H         1 UNK         0.0600 
    162 H162        4.0617  -14.4853  -47.9681 H         1 UNK         0.0600 
    163 H163        5.0144  -14.0364  -46.5653 H         1 UNK         0.0600 
    164 H164        3.6821  -14.5394  -44.4411 H         1 UNK         0.3000 
    165 H165        2.1536  -15.5738  -42.3059 H         1 UNK         0.0600 
    166 H166        4.2745  -17.5774  -41.3786 H         1 UNK         0.0600 
    167 H167        3.1515  -16.7221  -40.3211 H         1 UNK         0.0600 
    168 H168        2.5454  -17.8650  -41.5071 H         1 UNK         0.0600 
    169 H169        3.5681  -13.9738  -41.7819 H         1 UNK         0.3000 
    170 H170        6.1401  -13.4523  -40.5947 H         1 UNK         0.0600 
    171 H171        7.4872  -13.4155  -43.3466 H         1 UNK         0.0600 
    172 H172        7.9434  -12.3985  -41.9804 H         1 UNK         0.0600 
    173 H173        8.1306  -14.1401  -41.8789 H         1 UNK         0.0600 
    174 H174        5.0069  -11.6709  -41.2824 H         1 UNK         0.3000 
    175 H175        4.7242   -9.8300  -42.9415 H         1 UNK         0.0600 
    176 H176        3.1185  -10.9301  -45.3051 H         1 UNK         0.0600 
    177 H177        3.2795   -9.2298  -44.8711 H         1 UNK         0.0600 
    178 H178        4.6853  -10.1365  -45.4093 H         1 UNK         0.0600 
    179 H179        1.9702  -10.6067  -43.1695 H         1 UNK         0.3000 
    180 H180        1.3161  -11.0323  -39.7084 H         1 UNK         0.0600 
    181 H181        1.2655   -8.5626  -40.0205 H         1 UNK         0.0600 
    182 H182       -0.3436   -9.2474  -40.1885 H         1 UNK         0.0600 
    183 H183        0.5608   -8.7568  -41.6206 H         1 UNK         0.0600 
    184 H184       -0.1938  -11.0197  -42.2054 H         1 UNK         0.3000 
    185 H185       -0.2119  -14.5618  -42.5811 H         1 UNK         0.0600 
    186 H186       -2.6579  -14.2087  -42.4477 H         1 UNK         0.0600 
    187 H187       -1.9474  -14.1367  -40.8430 H         1 UNK         0.0600 
    188 H188       -2.4215  -12.6500  -41.6563 H         1 UNK         0.0600 
    189 H189       -1.5005  -12.3442  -43.9266 H         1 UNK         0.3000 
    190 H190       -2.6571  -21.2098  -45.2733 H         1 UNK         0.3000 
    191 H191       -4.9764  -21.2833  -43.5469 H         1 UNK         0.0600 
    192 H192       -2.1475  -22.3987  -43.1556 H         1 UNK         0.0600 
    193 H193       -2.6728  -20.7726  -42.7194 H         1 UNK         0.0600 
    194 H194       -3.3513  -22.1679  -41.8947 H         1 UNK         0.0600 
    195 H195       -3.5895  -23.5284  -45.8045 H         1 UNK         0.3000 
    196 H196       -5.1584  -25.8362  -44.7462 H         1 UNK         0.0600 
    197 H197       -2.6855  -26.2147  -44.9639 H         1 UNK         0.0600 
    198 H198       -2.7692  -25.7821  -46.6699 H         1 UNK         0.0600 
    199 H199       -3.5994  -27.2164  -46.0781 H         1 UNK         0.0600 
    200 H200       -6.2039  -23.4659  -46.1909 H         1 UNK         0.3000 
    201 H201       -7.6387  -22.8806  -47.7689 H         1 UNK         0.0600 
    202 H202       -9.2401  -24.5624  -48.6101 H         1 UNK         0.0600 
    203 H203       -8.9233  -24.8466  -46.9067 H         1 UNK         0.0600 
    204 H204       -8.1799  -25.8783  -48.1275 H         1 UNK         0.0600 
    205 H205       -5.0598  -22.8287  -48.5684 H         1 UNK         0.3000 
    206 H206       -3.7095  -22.4530  -50.2959 H         1 UNK         0.0600 
    207 H207       -5.6321  -21.3348  -51.4304 H         1 UNK         0.0600 
    208 H208       -6.0920  -22.8673  -52.1746 H         1 UNK         0.0600 
    209 H209       -4.5550  -22.1205  -52.5735 H         1 UNK         0.0600 
    210 H210       -3.5584  -24.7936  -49.0798 H         1 UNK         0.3000 
    211 H211       -2.9262  -26.9256  -49.0785 H         1 UNK         0.0600 
    212 H212       -0.9547  -26.0621  -50.2965 H         1 UNK         0.0600 
    213 H213       -1.3386  -27.6783  -50.8527 H         1 UNK         0.0600 
    214 H214       -1.7657  -26.2921  -51.8442 H         1 UNK         0.0600 
    215 H215       -5.4640  -26.8507  -49.3503 H         1 UNK         0.3000 
    216 H216       -7.3647  -27.7938  -49.9408 H         1 UNK         0.0600 
    217 H217       -7.3761  -30.1720  -50.6095 H         1 UNK         0.0600 
    218 H218       -5.6728  -30.1026  -51.0365 H         1 UNK         0.0600 
    219 H219       -6.1738  -29.9003  -49.3583 H         1 UNK         0.0600 
    220 H220       -7.0189  -25.8049  -51.4676 H         1 UNK         0.3000 
    221 H221       -7.6204  -24.7215  -53.2604 H         1 UNK         0.0600 
    222 H222       -9.2013  -27.2243  -54.0438 H         1 UNK         0.0600 
    223 H223       -9.7430  -25.9860  -52.9111 H         1 UNK         0.0600 
    224 H224       -9.4983  -25.5839  -54.6020 H         1 UNK         0.0600 
    225 H225       -5.0805  -25.6506  -53.4911 H         1 UNK         0.3000 
    226 H226       -4.6732  -26.3684  -56.3489 H         1 UNK         0.0600 
    227 H227       -3.3631  -27.5868  -54.5310 H         1 UNK         0.0600 
    228 H228       -2.3439  -26.7310  -55.6720 H         1 UNK         0.0600 
    229 H229       -2.6358  -26.0505  -54.0767 H         1 UNK         0.0600 
    230 H230       -2.4817  -25.0146  -56.9816 H         1 UNK         0.3000 
    231 H231       -3.2993  -22.2038  -57.1638 H         1 UNK         0.0600 
    232 H232       -1.4808  -22.1082  -58.8433 H         1 UNK         0.0600 
    233 H233       -2.5258  -23.4788  -59.1679 H         1 UNK         0.0600 
    234 H234       -0.9525  -23.7298  -58.4105 H         1 UNK         0.0600 
    235 H235       -1.9146  -23.6806  -54.6719 H         1 UNK         0.3000 
    236 H236        0.5783  -22.3534  -54.2444 H         1 UNK         0.0600 
    237 H237       -0.0885  -24.5452  -53.2067 H         1 UNK         0.0600 
    238 H238        0.4117  -23.3697  -52.0066 H         1 UNK         0.0600 
    239 H239       -1.3028  -23.7096  -52.2399 H         1 UNK         0.0600 
    240 H240        1.1161  -20.7403  -52.7239 H         1 UNK         0.3000 
    241 H241       -0.9520  -18.8732  -51.7726 H         1 UNK         0.0600 
    242 H242        1.4443  -17.6095  -49.3668 H         1 UNK         0.3800 
    243 H243        0.1256  -17.0781  -50.3806 H         1 UNK         0.3800 
    244 H244        0.7542  -17.0215  -52.7869 H         1 UNK         0.0800 
    245 H245        1.1948  -18.2902  -53.8733 H         1 UNK         0.0800 
    246 H246       -2.3396  -15.5192  -54.3263 H         1 UNK         0.0800 
    247 H247       -0.6234  -15.2001  -54.3161 H         1 UNK         0.0800 
@<TRIPOS>BOND
     1    1    2 1    
     2    1  127 1    
     3    1  128 1    
     4    1  129 1    
     5    2    3 2    
     6    2    4 am   BACKBONE|DICT|INTERRES
     7    4    5 1    
     8    4  130 1    
     9    5    6 1    
    10    5   65 1    
    11    5  131 1    
    12    6    7 1    
    13    6  132 1    
    14    6  133 1    
    15    7    8 1    
    16    8    9 1    
    17    8  134 1    
    18    8  135 1    
    19    9   10 ar   
    20    9   14 ar   
    21   10   11 ar   
    22   10  136 1    
    23   11   12 ar   
    24   11  126 1    
    25   12   13 ar   
    26   12  137 1    
    27   13   14 ar   
    28   13   15 1    
    29   14  138 1    
    30   15   16 1    
    31   15  139 1    
    32   15  140 1    
    33   16   17 1    
    34   17   18 1    
    35   17  141 1    
    36   17  142 1    
    37   18   19 1    
    38   18   67 1    
    39   18  143 1    
    40   19   20 am   BACKBONE|DICT|INTERRES
    41   19  144 1    
    42   20   21 2    
    43   20   22 1    
    44   22   23 1    
    45   22   24 1    
    46   22  145 1    
    47   23  146 1    
    48   23  147 1    
    49   23  148 1    
    50   24   25 am   BACKBONE|DICT|INTERRES
    51   24  149 1    
    52   25   26 2    
    53   25   27 1    
    54   27   28 1    
    55   27   29 1    
    56   27  150 1    
    57   28  151 1    
    58   28  152 1    
    59   28  153 1    
    60   29   30 am   BACKBONE|DICT|INTERRES
    61   29  154 1    
    62   30   31 2    
    63   30   32 1    
    64   32   33 1    
    65   32   34 1    
    66   32  155 1    
    67   33  156 1    
    68   33  157 1    
    69   33  158 1    
    70   34   35 am   BACKBONE|DICT|INTERRES
    71   34  159 1    
    72   35   36 2    
    73   35   37 1    
    74   37   38 1    
    75   37   39 1    
    76   37  160 1    
    77   38  161 1    
    78   38  162 1    
    79   38  163 1    
    80   39   40 am   BACKBONE|DICT|INTERRES
    81   39  164 1    
    82   40   41 2    
    83   40   42 1    
    84   42   43 1    
    85   42   44 1    
    86   42  165 1    
    87   43  166 1    
    88   43  167 1    
    89   43  168 1    
    90   44   45 am   BACKBONE|DICT|INTERRES
    91   44  169 1    
    92   45   46 2    
    93   45   47 1    
    94   47   48 1    
    95   47   49 1    
    96   47  170 1    
    97   48  171 1    
    98   48  172 1    
    99   48  173 1    
   100   49   50 am   BACKBONE|DICT|INTERRES
   101   49  174 1    
   102   50   51 2    
   103   50   52 1    
   104   52   53 1    
   105   52   54 1    
   106   52  175 1    
   107   53  176 1    
   108   53  177 1    
   109   53  178 1    
   110   54   55 am   BACKBONE|DICT|INTERRES
   111   54  179 1    
   112   55   56 2    
   113   55   57 1    
   114   57   58 1    
   115   57   59 1    
   116   57  180 1    
   117   58  181 1    
   118   58  182 1    
   119   58  183 1    
   120   59   60 am   BACKBONE|DICT|INTERRES
   121   59  184 1    
   122   60   61 2    
   123   60   62 1    
   124   62   63 1    
   125   62   64 1    
   126   62  185 1    
   127   63  186 1    
   128   63  187 1    
   129   63  188 1    
   130   64   65 am   BACKBONE|DICT|INTERRES
   131   64  189 1    
   132   65   66 2    
   133   67   68 2    
   134   67   69 am   BACKBONE|DICT|INTERRES
   135   69   70 1    
   136   69  190 1    
   137   70   71 1    
   138   70   72 1    
   139   70  191 1    
   140   71  192 1    
   141   71  193 1    
   142   71  194 1    
   143   72   73 2    
   144   72   74 am   BACKBONE|DICT|INTERRES
   145   74   75 1    
   146   74  195 1    
   147   75   76 1    
   148   75   77 1    
   149   75  196 1    
   150   76  197 1    
   151   76  198 1    
   152   76  199 1    
   153   77   78 2    
   154   77   79 am   BACKBONE|DICT|INTERRES
   155   79   80 1    
   156   79  200 1    
   157   80   81 1    
   158   80   82 1    
   159   80  201 1    
   160   81  202 1    
   161   81  203 1    
   162   81  204 1    
   163   82   83 2    
   164   82   84 am   BACKBONE|DICT|INTERRES
   165   84   85 1    
   166   84  205 1    
   167   85   86 1    
   168   85   87 1    
   169   85  206 1    
   170   86  207 1    
   171   86  208 1    
   172   86  209 1    
   173   87   88 2    
   174   87   89 am   BACKBONE|DICT|INTERRES
   175   89   90 1    
   176   89  210 1    
   177   90   91 1    
   178   90   92 1    
   179   90  211 1    
   180   91  212 1    
   181   91  213 1    
   182   91  214 1    
   183   92   93 2    
   184   92   94 am   BACKBONE|DICT|INTERRES
   185   94   95 1    
   186   94  215 1    
   187   95   96 1    
   188   95   97 1    
   189   95  216 1    
   190   96  217 1    
   191   96  218 1    
   192   96  219 1    
   193   97   98 2    
   194   97   99 am   BACKBONE|DICT|INTERRES
   195   99  100 1    
   196   99  220 1    
   197  100  101 1    
   198  100  102 1    
   199  100  221 1    
   200  101  222 1    
   201  101  223 1    
   202  101  224 1    
   203  102  103 2    
   204  102  104 am   BACKBONE|DICT|INTERRES
   205  104  105 1    
   206  104  225 1    
   207  105  106 1    
   208  105  107 1    
   209  105  226 1    
   210  106  227 1    
   211  106  228 1    
   212  106  229 1    
   213  107  108 2    
   214  107  109 am   BACKBONE|DICT|INTERRES
   215  109  110 1    
   216  109  230 1    
   217  110  111 1    
   218  110  112 1    
   219  110  231 1    
   220  111  232 1    
   221  111  233 1    
   222  111  234 1    
   223  112  113 2    
   224  112  114 am   BACKBONE|DICT|INTERRES
   225  114  115 1    
   226  114  235 1    
   227  115  116 1    
   228  115  117 1    
   229  115  236 1    
   230  116  237 1    
   231  116  238 1    
   232  116  239 1    
   233  117  118 2    
   234  117  119 am   BACKBONE|DICT|INTERRES
   235  119  120 1    
   236  119  240 1    
   237  120  121 1    
   238  120  124 1    
   239  120  241 1    
   240  121  122 am   BACKBONE|DICT|INTERRES
   241  121  123 2    
   242  122  242 1    
   243  122  243 1    
   244  124  125 1    
   245  124  244 1    
   246  124  245 1    
   247  125  126 1    
   248  126  246 1    
   249  126  247 1    
@<TRIPOS>SUBSTRUCTURE
     1 UNK         1 GROUP             0       ****    0 ROOT    
