@<TRIPOS>MOLECULE
3R540
247   249    1
SMALL
USER_CHARGES


@<TRIPOS>ATOM
      1 CA         -2.5405  -13.0363  -46.5892 C.3       0 UNK        -0.1800 
      2 C          -1.2946  -12.5838  -47.3367 C.2       0 UNK         0.5000 
      3 O          -0.7939  -11.4878  -47.0862 O.2       0 UNK        -0.5000 
      4 N          -0.7835  -13.4323  -48.2401 N.am      1 UNK        -0.5000 
      5 CA          0.4193  -13.2051  -49.0572 C.3       1 UNK         0.1400 
      6 C6          0.6214  -14.3743  -50.0517 C.3       23 UNK        -0.0398 
      7 S7          1.9816  -14.1381  -51.2500 S.3       23 UNK        -0.2404 
      8 C8          1.7233  -15.5408  -52.3833 C.3       23 UNK        -0.0205 
      9 C9          1.6627  -16.8726  -51.6494 C.ar      23 UNK        -0.0193 
     10 C10         0.4226  -17.4566  -51.3743 C.ar      23 UNK        -0.1150 
     11 C11         0.3495  -18.6699  -50.6889 C.ar      23 UNK        -0.0193 
     12 C12         1.5248  -19.3039  -50.2887 C.ar      23 UNK        -0.1150 
     13 C13         2.7719  -18.7406  -50.5643 C.ar      23 UNK        -0.0193 
     14 C14         2.8360  -17.5192  -51.2436 C.ar      23 UNK        -0.1150 
     15 C15         4.0406  -19.4815  -50.1659 C.3       23 UNK        -0.0205 
     16 S16         4.6850  -18.9859  -48.5337 S.3       23 UNK        -0.2404 
     17 C17         3.3895  -19.5395  -47.3715 C.3       23 UNK        -0.0398 
     18 CA          3.6076  -20.9646  -46.8000 C.3       11 UNK         0.1400 
     19 N           2.9695  -21.1362  -45.4944 N.am      11 UNK        -0.5000 
     20 C           3.1488  -22.1739  -44.6645 C.2       10 UNK         0.5000 
     21 O           3.9494  -23.0870  -44.8688 O.2       10 UNK        -0.5000 
     22 CA          2.2682  -22.2114  -43.3981 C.3       10 UNK         0.1400 
     23 CB          2.9453  -21.4686  -42.2365 C.3       10 UNK        -0.1800 
     24 N           0.9272  -21.6622  -43.6104 N.am      10 UNK        -0.5000 
     25 C           0.0275  -22.1746  -44.4613 C.2       9 UNK         0.5000 
     26 O           0.2115  -23.1870  -45.1369 O.2       9 UNK        -0.5000 
     27 CA         -1.2713  -21.3786  -44.6514 C.3       9 UNK         0.1400 
     28 CB         -2.2273  -21.5504  -43.4628 C.3       9 UNK        -0.1800 
     29 N          -1.0167  -19.9635  -44.9184 N.am      9 UNK        -0.5000 
     30 C          -0.3393  -19.4962  -45.9780 C.2       8 UNK         0.5000 
     31 O           0.0581  -20.2114  -46.9018 O.2       8 UNK        -0.5000 
     32 CA         -0.0053  -17.9908  -45.9817 C.3       8 UNK         0.1400 
     33 CB         -1.1486  -17.1737  -46.6004 C.3       8 UNK        -0.1800 
     34 N           0.3046  -17.4767  -44.6435 N.am      8 UNK        -0.5000 
     35 C           1.3580  -17.8684  -43.9098 C.2       7 UNK         0.5000 
     36 O           2.2094  -18.6549  -44.3157 O.2       7 UNK        -0.5000 
     37 CA          1.4508  -17.3476  -42.4658 C.3       7 UNK         0.1400 
     38 CB          2.0485  -15.9358  -42.4035 C.3       7 UNK        -0.1800 
     39 N           0.1486  -17.3659  -41.8065 N.am      7 UNK        -0.5000 
     40 C          -0.4798  -18.4869  -41.4275 C.2       6 UNK         0.5000 
     41 O           0.0046  -19.6131  -41.5443 O.2       6 UNK        -0.5000 
     42 CA         -1.9029  -18.3185  -40.8638 C.3       6 UNK         0.1400 
     43 CB         -1.8569  -18.0540  -39.3518 C.3       6 UNK        -0.1800 
     44 N          -2.6413  -17.2381  -41.5227 N.am      6 UNK        -0.5000 
     45 C          -3.0378  -17.2648  -42.8034 C.2       5 UNK         0.5000 
     46 O          -2.8581  -18.2228  -43.5525 O.2       5 UNK        -0.5000 
     47 CA         -3.6912  -15.9842  -43.3526 C.3       5 UNK         0.1400 
     48 CB         -5.1944  -15.9630  -43.0398 C.3       5 UNK        -0.1800 
     49 N          -3.0645  -14.7669  -42.8312 N.am      5 UNK        -0.5000 
     50 C          -1.8120  -14.3878  -43.1113 C.2       4 UNK         0.5000 
     51 O          -1.0524  -15.0176  -43.8531 O.2       4 UNK        -0.5000 
     52 CA         -1.3128  -13.1164  -42.4187 C.3       4 UNK         0.1400 
     53 CB         -0.7313  -13.4442  -41.0312 C.3       4 UNK        -0.1800 
     54 N          -0.3006  -12.4961  -43.2646 N.am      4 UNK        -0.5000 
     55 C           0.0926  -11.2198  -43.1995 C.2       3 UNK         0.5000 
     56 O          -0.3319  -10.4275  -42.3565 O.2       3 UNK        -0.5000 
     57 CA          1.0823  -10.7159  -44.2707 C.3       3 UNK         0.1400 
     58 CB          2.2242   -9.8717  -43.6665 C.3       3 UNK        -0.1800 
     59 N           1.5949  -11.7528  -45.1760 N.am      3 UNK        -0.5000 
     60 C           2.4930  -12.7185  -44.9268 C.2       2 UNK         0.5000 
     61 O           3.0073  -12.9026  -43.8241 O.2       2 UNK        -0.5000 
     62 CA          2.8713  -13.6353  -46.1127 C.3       2 UNK         0.1400 
     63 CB          3.2467  -15.0596  -45.6753 C.3       2 UNK        -0.1800 
     64 N           1.7955  -13.7301  -47.0991 N.am      2 UNK        -0.5000 
     65 C           1.6784  -12.9662  -48.1922 C.2       1 UNK         0.5000 
     66 O           2.4763  -12.0782  -48.4947 O.2       1 UNK        -0.5000 
     67 C           3.1799  -22.0739  -47.7863 C.2       11 UNK         0.5000 
     68 O           4.0568  -22.7474  -48.3303 O.2       11 UNK        -0.5000 
     69 N           1.8634  -22.2783  -47.9701 N.am      12 UNK        -0.5000 
     70 CA          1.3209  -23.3684  -48.7930 C.3       12 UNK         0.1400 
     71 CB          1.6227  -23.1573  -50.2929 C.3       12 UNK        -0.1800 
     72 C          -0.1844  -23.6353  -48.6118 C.2       12 UNK         0.5000 
     73 O          -0.6066  -24.7617  -48.8807 O.2       12 UNK        -0.5000 
     74 N          -0.9911  -22.6436  -48.1940 N.am      13 UNK        -0.5000 
     75 CA         -2.4612  -22.7542  -48.1963 C.3       13 UNK         0.1400 
     76 CB         -3.1267  -21.3744  -48.0411 C.3       13 UNK        -0.1800 
     77 C          -3.0618  -23.8020  -47.2315 C.2       13 UNK         0.5000 
     78 O          -4.2346  -24.1449  -47.3844 O.2       13 UNK        -0.5000 
     79 N          -2.2562  -24.3591  -46.3122 N.am      14 UNK        -0.5000 
     80 CA         -2.6048  -25.5160  -45.4764 C.3       14 UNK         0.1400 
     81 CB         -1.4926  -25.7634  -44.4464 C.3       14 UNK        -0.1800 
     82 C          -2.8910  -26.8041  -46.2802 C.2       14 UNK         0.5000 
     83 O          -3.5376  -27.7105  -45.7548 O.2       14 UNK        -0.5000 
     84 N          -2.4590  -26.8464  -47.5503 N.am      15 UNK        -0.5000 
     85 CA         -2.8238  -27.8636  -48.5401 C.3       15 UNK         0.1400 
     86 CB         -1.8393  -27.7699  -49.7175 C.3       15 UNK        -0.1800 
     87 C          -4.2842  -27.7543  -49.0428 C.2       15 UNK         0.5000 
     88 O          -4.6942  -28.5805  -49.8587 O.2       15 UNK        -0.5000 
     89 N          -5.0316  -26.7436  -48.5692 N.am      16 UNK        -0.5000 
     90 CA         -6.4143  -26.3970  -48.9158 C.3       16 UNK         0.1400 
     91 CB         -7.3897  -27.5606  -48.6372 C.3       16 UNK        -0.1800 
     92 C          -6.5444  -25.8087  -50.3346 C.2       16 UNK         0.5000 
     93 O          -7.5844  -25.9603  -50.9787 O.2       16 UNK        -0.5000 
     94 N          -5.4862  -25.1248  -50.7875 N.am      17 UNK        -0.5000 
     95 CA         -5.4655  -24.3411  -52.0193 C.3       17 UNK         0.1400 
     96 CB         -4.0023  -24.0786  -52.4109 C.3       17 UNK        -0.1800 
     97 C          -6.2167  -23.0100  -51.8336 C.2       17 UNK         0.5000 
     98 O          -6.2632  -22.4798  -50.7202 O.2       17 UNK        -0.5000 
     99 N          -6.7570  -22.4717  -52.9339 N.am      18 UNK        -0.5000 
    100 CA        -7.3625  -21.1416  -52.9947 C.3       18 UNK         0.1400 
    101 CB        -8.1961  -21.0250  -54.2820 C.3       18 UNK        -0.1800 
    102 C         -6.2529  -20.0785  -52.9381 C.2       18 UNK         0.5000 
    103 O         -5.6243  -19.8072  -53.9623 O.2       18 UNK        -0.5000 
    104 N         -5.9948  -19.5491  -51.7350 N.am      19 UNK        -0.5000 
    105 CA        -4.8194  -18.7543  -51.3551 C.3       19 UNK         0.1400 
    106 CB        -4.9284  -18.3952  -49.8649 C.3       19 UNK        -0.1800 
    107 C         -4.5346  -17.4902  -52.1916 C.2       19 UNK         0.5000 
    108 O         -3.4010  -17.0104  -52.1791 O.2       19 UNK        -0.5000 
    109 N         -5.5435  -16.9854  -52.9149 N.am      20 UNK        -0.5000 
    110 CA        -5.4136  -15.8946  -53.8841 C.3       20 UNK         0.1400 
    111 CB        -6.8141  -15.4785  -54.3590 C.3       20 UNK        -0.1800 
    112 C         -4.5188  -16.2544  -55.0897 C.2       20 UNK         0.5000 
    113 O         -3.8693  -15.3663  -55.6433 O.2       20 UNK        -0.5000 
    114 N         -4.4919  -17.5420  -55.4580 N.am      21 UNK        -0.5000 
    115 CA        -3.6011  -18.1122  -56.4687 C.3       21 UNK         0.1400 
    116 CB        -4.4375  -18.8885  -57.4986 C.3       21 UNK        -0.1800 
    117 C         -2.5657  -19.0353  -55.8051 C.2       21 UNK         0.5000 
    118 O         -1.3837  -18.9709  -56.1426 O.2       21 UNK        -0.5000 
    119 N         -3.0329  -19.8585  -54.8574 N.am      22 UNK        -0.5000 
    120 CA        -2.2601  -20.8002  -54.0357 C.3       22 UNK         0.1400 
    121 C         -1.6311  -22.0001  -54.8103 C.2       22 UNK         0.5000 
    122 N         -2.0957  -22.3193  -56.0125 N.am      22 UNK        -0.7600 
    123 O         -0.7333  -22.6733  -54.3131 O.2       22 UNK        -0.5000 
    124 C124       -1.2668  -20.0748  -53.0854 C.3       23 UNK        -0.0398 
    125 S125       -1.2837  -20.7856  -51.4049 S.3       23 UNK        -0.2404 
    126 C126       -0.9943  -19.3062  -50.3843 C.3       23 UNK        -0.0205 
    127 H127       -2.4986  -12.7048  -45.5520 H         1 UNK         0.0600 
    128 H128       -2.6400  -14.1221  -46.5919 H         1 UNK         0.0600 
    129 H129       -3.4303  -12.6057  -47.0480 H         1 UNK         0.0600 
    130 H130       -1.2632  -14.3051  -48.4061 H         1 UNK         0.3000 
    131 H131        0.2450  -12.2949  -49.6349 H         1 UNK         0.0600 
    132 H132        0.8001  -15.3008  -49.5029 H         1 UNK         0.0800 
    133 H133       -0.2962  -14.5290  -50.6215 H         1 UNK         0.0800 
    134 H134        2.5341  -15.5618  -53.1128 H         1 UNK         0.0800 
    135 H135        0.8068  -15.3765  -52.9524 H         1 UNK         0.0800 
    136 H136       -0.4872  -16.9640  -51.6894 H         1 UNK         0.1150 
    137 H137        1.4628  -20.2447  -49.7655 H         1 UNK         0.1150 
    138 H138        3.7968  -17.0731  -51.4591 H         1 UNK         0.1150 
    139 H139        3.8696  -20.5584  -50.1835 H         1 UNK         0.0800 
    140 H140        4.8146  -19.2950  -50.9116 H         1 UNK         0.0800 
    141 H141        2.3983  -19.4199  -47.8007 H         1 UNK         0.0800 
    142 H142        3.4290  -18.8181  -46.5560 H         1 UNK         0.0800 
    143 H143        4.6788  -21.0857  -46.6244 H         1 UNK         0.0600 
    144 H144        2.3670  -20.3807  -45.1838 H         1 UNK         0.3000 
    145 H145        2.1529  -23.2584  -43.1101 H         1 UNK         0.0600 
    146 H146        2.3560  -21.5454  -41.3225 H         1 UNK         0.0600 
    147 H147        3.9298  -21.8882  -42.0261 H         1 UNK         0.0600 
    148 H148        3.0805  -20.4100  -42.4582 H         1 UNK         0.0600 
    149 H149        0.6832  -20.8338  -43.0777 H         1 UNK         0.3000 
    150 H150       -1.7720  -21.7903  -45.5215 H         1 UNK         0.0600 
    151 H151       -2.4732  -22.6024  -43.3135 H         1 UNK         0.0600 
    152 H152       -3.1645  -21.0202  -43.6321 H         1 UNK         0.0600 
    153 H153       -1.7971  -21.1821  -42.5334 H         1 UNK         0.0600 
    154 H154       -1.3956  -19.2981  -44.2515 H         1 UNK         0.3000 
    155 H155        0.8805  -17.8508  -46.6040 H         1 UNK         0.0600 
    156 H156       -2.0730  -17.2801  -46.0325 H         1 UNK         0.0600 
    157 H157       -0.8990  -16.1137  -46.6360 H         1 UNK         0.0600 
    158 H158       -1.3509  -17.4976  -47.6222 H         1 UNK         0.0600 
    159 H159       -0.3275  -16.7794  -44.2620 H         1 UNK         0.3000 
    160 H160        2.1196  -18.0136  -41.9161 H         1 UNK         0.0600 
    161 H161        1.4492  -15.2116  -42.9546 H         1 UNK         0.0600 
    162 H162        3.0532  -15.9218  -42.8263 H         1 UNK         0.0600 
    163 H163        2.1317  -15.5880  -41.3739 H         1 UNK         0.0600 
    164 H164       -0.3301  -16.4840  -41.7118 H         1 UNK         0.3000 
    165 H165       -2.4419  -19.2532  -41.0321 H         1 UNK         0.0600 
    166 H166       -2.8608  -18.0034  -38.9298 H         1 UNK         0.0600 
    167 H167       -1.3272  -18.8537  -38.8323 H         1 UNK         0.0600 
    168 H168       -1.3471  -17.1179  -39.1203 H         1 UNK         0.0600 
    169 H169       -2.8346  -16.4141  -40.9733 H         1 UNK         0.3000 
    170 H170       -3.5699  -15.9892  -44.4380 H         1 UNK         0.0600 
    171 H171       -5.6871  -16.8526  -43.4345 H         1 UNK         0.0600 
    172 H172       -5.3842  -15.9314  -41.9662 H         1 UNK         0.0600 
    173 H173       -5.6786  -15.0975  -43.4925 H         1 UNK         0.0600 
    174 H174       -3.6273  -14.1982  -42.2146 H         1 UNK         0.3000 
    175 H175       -2.1549  -12.4296  -42.3102 H         1 UNK         0.0600 
    176 H176        0.1414  -14.0926  -41.1029 H         1 UNK         0.0600 
    177 H177       -0.4280  -12.5392  -40.5049 H         1 UNK         0.0600 
    178 H178       -1.4670  -13.9484  -40.4035 H         1 UNK         0.0600 
    179 H179        0.0682  -13.0962  -43.9902 H         1 UNK         0.3000 
    180 H180        0.4985  -10.0500  -44.9076 H         1 UNK         0.0600 
    181 H181        2.8063  -10.4355  -42.9374 H         1 UNK         0.0600 
    182 H182        1.8307   -8.9931  -43.1543 H         1 UNK         0.0600 
    183 H183        2.9049   -9.5158  -44.4398 H         1 UNK         0.0600 
    184 H184        1.1976  -11.7175  -46.1072 H         1 UNK         0.3000 
    185 H185        3.7567  -13.1930  -46.5738 H         1 UNK         0.0600 
    186 H186        4.0567  -15.0551  -44.9452 H         1 UNK         0.0600 
    187 H187        2.3944  -15.5681  -45.2312 H         1 UNK         0.0600 
    188 H188        3.5822  -15.6562  -46.5241 H         1 UNK         0.0600 
    189 H189        1.0671  -14.4006  -46.9032 H         1 UNK         0.3000 
    190 H190        1.2009  -21.7067  -47.4550 H         1 UNK         0.3000 
    191 H191        1.8228  -24.2852  -48.4765 H         1 UNK         0.0600 
    192 H192        1.1572  -22.2522  -50.6769 H         1 UNK         0.0600 
    193 H193        1.2378  -23.9877  -50.8864 H         1 UNK         0.0600 
    194 H194        2.6905  -23.0964  -50.4980 H         1 UNK         0.0600 
    195 H195       -0.6044  -21.7380  -47.9525 H         1 UNK         0.3000 
    196 H196       -2.7397  -23.1077  -49.1915 H         1 UNK         0.0600 
    197 H197       -4.2032  -21.4684  -47.8918 H         1 UNK         0.0600 
    198 H198       -2.9955  -20.7798  -48.9425 H         1 UNK         0.0600 
    199 H199       -2.7334  -20.7983  -47.2079 H         1 UNK         0.0600 
    200 H200       -1.3000  -24.0281  -46.2359 H         1 UNK         0.3000 
    201 H201       -3.5195  -25.2685  -44.9342 H         1 UNK         0.0600 
    202 H202       -1.3871  -24.9168  -43.7688 H         1 UNK         0.0600 
    203 H203       -0.5292  -25.9327  -44.9289 H         1 UNK         0.0600 
    204 H204       -1.7113  -26.6380  -43.8323 H         1 UNK         0.0600 
    205 H205       -1.9012  -26.0723  -47.8968 H         1 UNK         0.3000 
    206 H206       -2.7127  -28.8467  -48.0786 H         1 UNK         0.0600 
    207 H207       -0.8075  -27.8667  -49.3792 H         1 UNK         0.0600 
    208 H208       -2.0172  -28.5633  -50.4444 H         1 UNK         0.0600 
    209 H209       -1.9315  -26.8178  -50.2419 H         1 UNK         0.0600 
    210 H210       -4.5877  -26.0880  -47.9356 H         1 UNK         0.3000 
    211 H211       -6.6866  -25.5853  -48.2396 H         1 UNK         0.0600 
    212 H212       -7.2600  -28.3812  -49.3429 H         1 UNK         0.0600 
    213 H213       -8.4249  -27.2270  -48.7172 H         1 UNK         0.0600 
    214 H214       -7.2546  -27.9566  -47.6307 H         1 UNK         0.0600 
    215 H215       -4.6976  -25.0140  -50.1687 H         1 UNK         0.3000 
    216 H216       -5.9458  -24.9170  -52.8133 H         1 UNK         0.0600 
    217 H217       -3.4441  -25.0102  -52.5068 H         1 UNK         0.0600 
    218 H218       -3.4899  -23.4552  -51.6764 H         1 UNK         0.0600 
    219 H219       -3.9444  -23.5688  -53.3728 H         1 UNK         0.0600 
    220 H220       -6.6552  -22.9531  -53.8157 H         1 UNK         0.3000 
    221 H221       -8.0318  -21.0086  -52.1420 H         1 UNK         0.0600 
    222 H222       -7.5922  -21.1886  -55.1757 H         1 UNK         0.0600 
    223 H223       -9.0087  -21.7517  -54.2908 H         1 UNK         0.0600 
    224 H224       -8.6451  -20.0346  -54.3666 H         1 UNK         0.0600 
    225 H225       -6.5578  -19.8740  -50.9612 H         1 UNK         0.3000 
    226 H226       -3.9559  -19.4084  -51.4811 H         1 UNK         0.0600 
    227 H227       -5.0220  -19.2888  -49.2481 H         1 UNK         0.0600 
    228 H228       -4.0433  -17.8578  -49.5218 H         1 UNK         0.0600 
    229 H229       -5.7940  -17.7611  -49.6693 H         1 UNK         0.0600 
    230 H230       -6.4410  -17.4439  -52.8625 H         1 UNK         0.3000 
    231 H231       -4.9561  -15.0439  -53.3748 H         1 UNK         0.0600 
    232 H232       -6.7563  -14.6496  -55.0658 H         1 UNK         0.0600 
    233 H233       -7.4328  -15.1494  -53.5239 H         1 UNK         0.0600 
    234 H234       -7.3303  -16.2999  -54.8577 H         1 UNK         0.0600 
    235 H235       -5.0428  -18.2045  -54.9216 H         1 UNK         0.3000 
    236 H236       -3.0569  -17.3254  -56.9951 H         1 UNK         0.0600 
    237 H237       -5.1339  -18.2272  -58.0144 H         1 UNK         0.0600 
    238 H238       -3.7997  -19.3445  -58.2568 H         1 UNK         0.0600 
    239 H239       -5.0187  -19.6850  -57.0319 H         1 UNK         0.0600 
    240 H240       -4.0304  -19.8464  -54.6529 H         1 UNK         0.3000 
    241 H241       -3.0281  -21.2643  -53.4167 H         1 UNK         0.0600 
    242 H242       -2.8350  -21.7830  -56.4366 H         1 UNK         0.3800 
    243 H243       -1.6932  -23.0995  -56.5073 H         1 UNK         0.3800 
    244 H244       -0.2483  -20.0844  -53.4774 H         1 UNK         0.0800 
    245 H245       -1.5355  -19.0212  -52.9991 H         1 UNK         0.0800 
    246 H246       -1.8042  -18.5916  -50.5313 H         1 UNK         0.0800 
    247 H247       -1.0190  -19.5869  -49.3316 H         1 UNK         0.0800 
@<TRIPOS>BOND
     1    1    2 1    
     2    1  127 1    
     3    1  128 1    
     4    1  129 1    
     5    2    3 2    
     6    2    4 am   BACKBONE|DICT|INTERRES
     7    4    5 1    
     8    4  130 1    
     9    5    6 1    
    10    5   65 1    
    11    5  131 1    
    12    6    7 1    
    13    6  132 1    
    14    6  133 1    
    15    7    8 1    
    16    8    9 1    
    17    8  134 1    
    18    8  135 1    
    19    9   10 ar   
    20    9   14 ar   
    21   10   11 ar   
    22   10  136 1    
    23   11   12 ar   
    24   11  126 1    
    25   12   13 ar   
    26   12  137 1    
    27   13   14 ar   
    28   13   15 1    
    29   14  138 1    
    30   15   16 1    
    31   15  139 1    
    32   15  140 1    
    33   16   17 1    
    34   17   18 1    
    35   17  141 1    
    36   17  142 1    
    37   18   19 1    
    38   18   67 1    
    39   18  143 1    
    40   19   20 am   BACKBONE|DICT|INTERRES
    41   19  144 1    
    42   20   21 2    
    43   20   22 1    
    44   22   23 1    
    45   22   24 1    
    46   22  145 1    
    47   23  146 1    
    48   23  147 1    
    49   23  148 1    
    50   24   25 am   BACKBONE|DICT|INTERRES
    51   24  149 1    
    52   25   26 2    
    53   25   27 1    
    54   27   28 1    
    55   27   29 1    
    56   27  150 1    
    57   28  151 1    
    58   28  152 1    
    59   28  153 1    
    60   29   30 am   BACKBONE|DICT|INTERRES
    61   29  154 1    
    62   30   31 2    
    63   30   32 1    
    64   32   33 1    
    65   32   34 1    
    66   32  155 1    
    67   33  156 1    
    68   33  157 1    
    69   33  158 1    
    70   34   35 am   BACKBONE|DICT|INTERRES
    71   34  159 1    
    72   35   36 2    
    73   35   37 1    
    74   37   38 1    
    75   37   39 1    
    76   37  160 1    
    77   38  161 1    
    78   38  162 1    
    79   38  163 1    
    80   39   40 am   BACKBONE|DICT|INTERRES
    81   39  164 1    
    82   40   41 2    
    83   40   42 1    
    84   42   43 1    
    85   42   44 1    
    86   42  165 1    
    87   43  166 1    
    88   43  167 1    
    89   43  168 1    
    90   44   45 am   BACKBONE|DICT|INTERRES
    91   44  169 1    
    92   45   46 2    
    93   45   47 1    
    94   47   48 1    
    95   47   49 1    
    96   47  170 1    
    97   48  171 1    
    98   48  172 1    
    99   48  173 1    
   100   49   50 am   BACKBONE|DICT|INTERRES
   101   49  174 1    
   102   50   51 2    
   103   50   52 1    
   104   52   53 1    
   105   52   54 1    
   106   52  175 1    
   107   53  176 1    
   108   53  177 1    
   109   53  178 1    
   110   54   55 am   BACKBONE|DICT|INTERRES
   111   54  179 1    
   112   55   56 2    
   113   55   57 1    
   114   57   58 1    
   115   57   59 1    
   116   57  180 1    
   117   58  181 1    
   118   58  182 1    
   119   58  183 1    
   120   59   60 am   BACKBONE|DICT|INTERRES
   121   59  184 1    
   122   60   61 2    
   123   60   62 1    
   124   62   63 1    
   125   62   64 1    
   126   62  185 1    
   127   63  186 1    
   128   63  187 1    
   129   63  188 1    
   130   64   65 am   BACKBONE|DICT|INTERRES
   131   64  189 1    
   132   65   66 2    
   133   67   68 2    
   134   67   69 am   BACKBONE|DICT|INTERRES
   135   69   70 1    
   136   69  190 1    
   137   70   71 1    
   138   70   72 1    
   139   70  191 1    
   140   71  192 1    
   141   71  193 1    
   142   71  194 1    
   143   72   73 2    
   144   72   74 am   BACKBONE|DICT|INTERRES
   145   74   75 1    
   146   74  195 1    
   147   75   76 1    
   148   75   77 1    
   149   75  196 1    
   150   76  197 1    
   151   76  198 1    
   152   76  199 1    
   153   77   78 2    
   154   77   79 am   BACKBONE|DICT|INTERRES
   155   79   80 1    
   156   79  200 1    
   157   80   81 1    
   158   80   82 1    
   159   80  201 1    
   160   81  202 1    
   161   81  203 1    
   162   81  204 1    
   163   82   83 2    
   164   82   84 am   BACKBONE|DICT|INTERRES
   165   84   85 1    
   166   84  205 1    
   167   85   86 1    
   168   85   87 1    
   169   85  206 1    
   170   86  207 1    
   171   86  208 1    
   172   86  209 1    
   173   87   88 2    
   174   87   89 am   BACKBONE|DICT|INTERRES
   175   89   90 1    
   176   89  210 1    
   177   90   91 1    
   178   90   92 1    
   179   90  211 1    
   180   91  212 1    
   181   91  213 1    
   182   91  214 1    
   183   92   93 2    
   184   92   94 am   BACKBONE|DICT|INTERRES
   185   94   95 1    
   186   94  215 1    
   187   95   96 1    
   188   95   97 1    
   189   95  216 1    
   190   96  217 1    
   191   96  218 1    
   192   96  219 1    
   193   97   98 2    
   194   97   99 am   BACKBONE|DICT|INTERRES
   195   99  100 1    
   196   99  220 1    
   197  100  101 1    
   198  100  102 1    
   199  100  221 1    
   200  101  222 1    
   201  101  223 1    
   202  101  224 1    
   203  102  103 2    
   204  102  104 am   BACKBONE|DICT|INTERRES
   205  104  105 1    
   206  104  225 1    
   207  105  106 1    
   208  105  107 1    
   209  105  226 1    
   210  106  227 1    
   211  106  228 1    
   212  106  229 1    
   213  107  108 2    
   214  107  109 am   BACKBONE|DICT|INTERRES
   215  109  110 1    
   216  109  230 1    
   217  110  111 1    
   218  110  112 1    
   219  110  231 1    
   220  111  232 1    
   221  111  233 1    
   222  111  234 1    
   223  112  113 2    
   224  112  114 am   BACKBONE|DICT|INTERRES
   225  114  115 1    
   226  114  235 1    
   227  115  116 1    
   228  115  117 1    
   229  115  236 1    
   230  116  237 1    
   231  116  238 1    
   232  116  239 1    
   233  117  118 2    
   234  117  119 am   BACKBONE|DICT|INTERRES
   235  119  120 1    
   236  119  240 1    
   237  120  121 1    
   238  120  124 1    
   239  120  241 1    
   240  121  122 am   BACKBONE|DICT|INTERRES
   241  121  123 2    
   242  122  242 1    
   243  122  243 1    
   244  124  125 1    
   245  124  244 1    
   246  124  245 1    
   247  125  126 1    
   248  126  246 1    
   249  126  247 1    
@<TRIPOS>SUBSTRUCTURE
     1 UNK         1 GROUP             0       ****    0 ROOT    
