@<TRIPOS>MOLECULE
3R540
247   249    1
SMALL
USER_CHARGES


@<TRIPOS>ATOM
      1 CA          5.3661  -17.0126  -44.4160 C.3       0 UNK        -0.1800 
      2 C           5.5699  -17.3780  -45.8868 C.2       0 UNK         0.5000 
      3 O           6.1977  -18.3958  -46.1707 O.2       0 UNK        -0.5000 
      4 N           5.0476  -16.6083  -46.8527 N.am      1 UNK        -0.5000 
      5 CA          4.3869  -15.3081  -46.6935 C.3       1 UNK         0.1400 
      6 C6          3.6589  -14.8657  -47.9849 C.3       23 UNK        -0.0398 
      7 S7          2.2727  -15.9695  -48.4245 S.3       23 UNK        -0.2404 
      8 C8          1.7035  -15.1527  -49.9469 C.3       23 UNK        -0.0205 
      9 C9          0.3660  -15.6914  -50.4360 C.ar      23 UNK        -0.0193 
     10 C10         0.2777  -16.4000  -51.6391 C.ar      23 UNK        -0.1150 
     11 C11        -0.9637  -16.8089  -52.1412 C.ar      23 UNK        -0.0193 
     12 C12        -2.1219  -16.5117  -51.4127 C.ar      23 UNK        -0.1150 
     13 C13        -2.0452  -15.8233  -50.1988 C.ar      23 UNK        -0.0193 
     14 C14        -0.7993  -15.4142  -49.7173 C.ar      23 UNK        -0.1150 
     15 C15        -3.3119  -15.4942  -49.4237 C.3       23 UNK        -0.0205 
     16 S16        -4.0201  -16.9616  -48.6143 S.3       23 UNK        -0.2404 
     17 C17        -2.6937  -17.4229  -47.4450 C.3       23 UNK        -0.0398 
     18 CA         -1.8370  -18.6275  -47.9103 C.3       11 UNK         0.1400 
     19 N          -0.6867  -18.8512  -47.0316 N.am      11 UNK        -0.5000 
     20 C           0.2880  -19.7470  -47.2471 C.2       10 UNK         0.5000 
     21 O           0.3652  -20.4459  -48.2555 O.2       10 UNK        -0.5000 
     22 CA          1.3153  -19.9514  -46.1203 C.3       10 UNK         0.1400 
     23 CB          2.4012  -18.8727  -46.1612 C.3       10 UNK        -0.1800 
     24 N           0.7010  -19.9786  -44.7941 N.am      10 UNK        -0.5000 
     25 C          -0.1731  -20.9072  -44.3823 C.2       9 UNK         0.5000 
     26 O          -0.5291  -21.8646  -45.0681 O.2       9 UNK        -0.5000 
     27 CA         -0.7891  -20.7036  -42.9882 C.3       9 UNK         0.1400 
     28 CB          0.1707  -21.1757  -41.8856 C.3       9 UNK        -0.1800 
     29 N          -1.1590  -19.3086  -42.7542 N.am      9 UNK        -0.5000 
     30 C          -2.1392  -18.6651  -43.4037 C.2       8 UNK         0.5000 
     31 O          -2.8659  -19.1911  -44.2480 O.2       8 UNK        -0.5000 
     32 CA         -2.2902  -17.1659  -43.0907 C.3       8 UNK         0.1400 
     33 CB         -3.0454  -16.9536  -41.7705 C.3       8 UNK        -0.1800 
     34 N          -0.9935  -16.4872  -43.0341 N.am      8 UNK        -0.5000 
     35 C          -0.2095  -16.2998  -44.1066 C.2       7 UNK         0.5000 
     36 O          -0.5229  -16.6475  -45.2420 O.2       7 UNK        -0.5000 
     37 CA          1.1708  -15.6582  -43.8879 C.3       7 UNK         0.1400 
     38 CB          1.0857  -14.1393  -44.0709 C.3       7 UNK        -0.1800 
     39 N           1.7659  -15.9664  -42.5889 N.am      7 UNK        -0.5000 
     40 C           2.0641  -17.2041  -42.1635 C.2       6 UNK         0.5000 
     41 O           1.9304  -18.2090  -42.8614 O.2       6 UNK        -0.5000 
     42 CA          2.5541  -17.3611  -40.7102 C.3       6 UNK         0.1400 
     43 CB          4.0840  -17.4953  -40.6829 C.3       6 UNK        -0.1800 
     44 N           2.1588  -16.2641  -39.8233 N.am      6 UNK        -0.5000 
     45 C           0.9041  -15.8580  -39.5767 C.2       5 UNK         0.5000 
     46 O          -0.0956  -16.4222  -40.0235 O.2       5 UNK        -0.5000 
     47 CA          0.7410  -14.5696  -38.7434 C.3       5 UNK         0.1400 
     48 CB          0.3798  -14.9147  -37.2910 C.3       5 UNK        -0.1800 
     49 N           1.9182  -13.6895  -38.7479 N.am      5 UNK        -0.5000 
     50 C           2.4602  -13.1179  -39.8327 C.2       4 UNK         0.5000 
     51 O           2.0444  -13.2955  -40.9810 O.2       4 UNK        -0.5000 
     52 CA          3.7066  -12.2548  -39.5925 C.3       4 UNK         0.1400 
     53 CB          4.9396  -13.1423  -39.3358 C.3       4 UNK        -0.1800 
     54 N           3.9433  -11.4163  -40.7619 N.am      4 UNK        -0.5000 
     55 C           4.6545  -10.2850  -40.7928 C.2       3 UNK         0.5000 
     56 O           5.1901   -9.7940  -39.7970 O.2       3 UNK        -0.5000 
     57 CA          4.8222   -9.6193  -42.1780 C.3       3 UNK         0.1400 
     58 CB          5.5860   -8.2841  -42.1092 C.3       3 UNK        -0.1800 
     59 N           5.5146  -10.5090  -43.1150 N.am      3 UNK        -0.5000 
     60 C           4.9447  -11.5356  -43.7557 C.2       2 UNK         0.5000 
     61 O           3.7404  -11.7927  -43.6797 O.2       2 UNK        -0.5000 
     62 CA          5.8691  -12.4466  -44.5785 C.3       2 UNK         0.1400 
     63 CB          6.9181  -13.1313  -43.6775 C.3       2 UNK        -0.1800 
     64 N           5.0444  -13.4581  -45.2323 N.am      2 UNK        -0.5000 
     65 C           5.4111  -14.2437  -46.2481 C.2       1 UNK         0.5000 
     66 O           6.5028  -14.1679  -46.8163 O.2       1 UNK        -0.5000 
     67 C          -2.6781  -19.9103  -48.0615 C.2       11 UNK         0.5000 
     68 O          -2.9494  -20.3197  -49.1886 O.2       11 UNK        -0.5000 
     69 N          -3.0307  -20.5490  -46.9350 N.am      12 UNK        -0.5000 
     70 CA         -3.7851  -21.8040  -46.9043 C.3       12 UNK         0.1400 
     71 CB         -4.1204  -22.1709  -45.4517 C.3       12 UNK        -0.1800 
     72 C          -3.0625  -22.9661  -47.6113 C.2       12 UNK         0.5000 
     73 O          -3.7128  -23.7389  -48.3170 O.2       12 UNK        -0.5000 
     74 N          -1.7361  -23.0464  -47.4369 N.am      13 UNK        -0.5000 
     75 CA         -0.8622  -24.0103  -48.1023 C.3       13 UNK         0.1400 
     76 CB          0.5217  -24.0019  -47.4355 C.3       13 UNK        -0.1800 
     77 C          -0.7462  -23.7586  -49.6163 C.2       13 UNK         0.5000 
     78 O          -0.8848  -24.7041  -50.3916 O.2       13 UNK        -0.5000 
     79 N          -0.5270  -22.4966  -50.0151 N.am      14 UNK        -0.5000 
     80 CA         -0.4359  -22.0643  -51.4137 C.3       14 UNK         0.1400 
     81 CB          0.0429  -20.6058  -51.4758 C.3       14 UNK        -0.1800 
     82 C          -1.7628  -22.2318  -52.1746 C.2       14 UNK         0.5000 
     83 O          -1.7592  -22.6553  -53.3313 O.2       14 UNK        -0.5000 
     84 N          -2.8781  -21.9381  -51.4948 N.am      15 UNK        -0.5000 
     85 CA         -4.2323  -22.1603  -51.9893 C.3       15 UNK         0.1400 
     86 CB         -5.2209  -21.3412  -51.1475 C.3       15 UNK        -0.1800 
     87 C          -4.6388  -23.6440  -51.9986 C.2       15 UNK         0.5000 
     88 O          -5.6157  -23.9828  -52.6679 O.2       15 UNK        -0.5000 
     89 N          -3.9180  -24.4853  -51.2440 N.am      16 UNK        -0.5000 
     90 CA         -4.1682  -25.9067  -50.9894 C.3       16 UNK         0.1400 
     91 CB         -3.9177  -26.7395  -52.2623 C.3       16 UNK        -0.1800 
     92 C          -5.5676  -26.1326  -50.3858 C.2       16 UNK         0.5000 
     93 O          -6.3408  -26.9424  -50.8964 O.2       16 UNK        -0.5000 
     94 N          -5.8957  -25.3396  -49.3543 N.am      17 UNK        -0.5000 
     95 CA         -7.2162  -25.2386  -48.7161 C.3       17 UNK         0.1400 
     96 CB         -7.5447  -26.5266  -47.9332 C.3       17 UNK        -0.1800 
     97 C          -8.3302  -24.8323  -49.7112 C.2       17 UNK         0.5000 
     98 O          -9.4569  -25.3220  -49.6224 O.2       17 UNK        -0.5000 
     99 N          -7.9641  -23.9500  -50.6525 N.am      18 UNK        -0.5000 
    100 CA        -8.7514  -23.4161  -51.7696 C.3       18 UNK         0.1400 
    101 CB       -10.0404  -22.7240  -51.2797 C.3       18 UNK        -0.1800 
    102 C         -9.0100  -24.4183  -52.9154 C.2       18 UNK         0.5000 
    103 O         -9.7947  -24.1042  -53.8118 O.2       18 UNK        -0.5000 
    104 N         -8.3381  -25.5800  -52.9107 N.am      19 UNK        -0.5000 
    105 CA        -8.4151  -26.5638  -53.9938 C.3       19 UNK         0.1400 
    106 CB        -7.9673  -27.9405  -53.4812 C.3       19 UNK        -0.1800 
    107 C         -7.5834  -26.1557  -55.2248 C.2       19 UNK         0.5000 
    108 O         -7.9849  -26.4627  -56.3481 O.2       19 UNK        -0.5000 
    109 N         -6.4488  -25.4800  -54.9970 N.am      20 UNK        -0.5000 
    110 CA        -5.5466  -24.9910  -56.0423 C.3       20 UNK         0.1400 
    111 CB        -4.0930  -25.2926  -55.6440 C.3       20 UNK        -0.1800 
    112 C         -5.7228  -23.4838  -56.2819 C.2       20 UNK         0.5000 
    113 O         -5.5237  -23.0255  -57.4076 O.2       20 UNK        -0.5000 
    114 N         -6.0674  -22.7390  -55.2189 N.am      21 UNK        -0.5000 
    115 CA        -6.3203  -21.2917  -55.1887 C.3       21 UNK         0.1400 
    116 CB        -7.6574  -20.9776  -55.8894 C.3       21 UNK        -0.1800 
    117 C         -5.1443  -20.4404  -55.7248 C.2       21 UNK         0.5000 
    118 O         -5.3696  -19.3961  -56.3382 O.2       21 UNK        -0.5000 
    119 N         -3.9138  -20.9231  -55.4974 N.am      22 UNK        -0.5000 
    120 CA        -2.6412  -20.3735  -55.9973 C.3       22 UNK         0.1400 
    121 C         -2.4297  -20.5424  -57.5352 C.2       22 UNK         0.5000 
    122 N         -3.2309  -21.3300  -58.2447 N.am      22 UNK        -0.7600 
    123 O         -1.4973  -19.9756  -58.0991 O.2       22 UNK        -0.5000 
    124 C124       -2.3512  -18.9219  -55.5162 C.3       23 UNK        -0.0398 
    125 S125       -2.3485  -18.7309  -53.6982 S.3       23 UNK        -0.2404 
    126 C126       -1.0314  -17.4781  -53.5132 C.3       23 UNK        -0.0205 
    127 H127        6.0372  -16.2062  -44.1215 H         1 UNK         0.0600 
    128 H128        5.5799  -17.8721  -43.7803 H         1 UNK         0.0600 
    129 H129        4.3397  -16.7112  -44.2130 H         1 UNK         0.0600 
    130 H130        5.1952  -16.8875  -47.8113 H         1 UNK         0.3000 
    131 H131        3.6319  -15.4026  -45.9139 H         1 UNK         0.0600 
    132 H132        3.2530  -13.8592  -47.8646 H         1 UNK         0.0800 
    133 H133        4.3558  -14.8192  -48.8239 H         1 UNK         0.0800 
    134 H134        2.4690  -15.2635  -50.7165 H         1 UNK         0.0800 
    135 H135        1.6016  -14.0815  -49.7668 H         1 UNK         0.0800 
    136 H136        1.1756  -16.5986  -52.2074 H         1 UNK         0.1150 
    137 H137       -3.0911  -16.8019  -51.7924 H         1 UNK         0.1150 
    138 H138       -0.7332  -14.8636  -48.7892 H         1 UNK         0.1150 
    139 H139       -3.1216  -14.7243  -48.6742 H         1 UNK         0.0800 
    140 H140       -4.0527  -15.0767  -50.1070 H         1 UNK         0.0800 
    141 H141       -3.1476  -17.6257  -46.4741 H         1 UNK         0.0800 
    142 H142       -2.0543  -16.5535  -47.2950 H         1 UNK         0.0800 
    143 H143       -1.4317  -18.3883  -48.8958 H         1 UNK         0.0600 
    144 H144       -0.6388  -18.2631  -46.2042 H         1 UNK         0.3000 
    145 H145        1.7966  -20.9184  -46.2799 H         1 UNK         0.0600 
    146 H146        3.1411  -19.0331  -45.3774 H         1 UNK         0.0600 
    147 H147        2.9262  -18.8838  -47.1171 H         1 UNK         0.0600 
    148 H148        1.9811  -17.8769  -46.0302 H         1 UNK         0.0600 
    149 H149        0.9848  -19.2512  -44.1431 H         1 UNK         0.3000 
    150 H150       -1.6961  -21.3092  -42.9321 H         1 UNK         0.0600 
    151 H151        0.4376  -22.2239  -42.0260 H         1 UNK         0.0600 
    152 H152       -0.2868  -21.0863  -40.9002 H         1 UNK         0.0600 
    153 H153        1.0969  -20.6004  -41.8787 H         1 UNK         0.0600 
    154 H154       -0.5845  -18.7866  -42.1088 H         1 UNK         0.3000 
    155 H155       -2.8775  -16.7140  -43.8930 H         1 UNK         0.0600 
    156 H156       -3.1914  -15.8929  -41.5660 H         1 UNK         0.0600 
    157 H157       -4.0321  -17.4169  -41.8080 H         1 UNK         0.0600 
    158 H158       -2.5117  -17.3871  -40.9240 H         1 UNK         0.0600 
    159 H159       -0.6554  -16.2182  -42.1175 H         1 UNK         0.3000 
    160 H160        1.8360  -16.0545  -44.6538 H         1 UNK         0.0600 
    161 H161        0.4443  -13.6777  -43.3191 H         1 UNK         0.0600 
    162 H162        0.6848  -13.8828  -45.0525 H         1 UNK         0.0600 
    163 H163        2.0704  -13.6849  -43.9929 H         1 UNK         0.0600 
    164 H164        1.8957  -15.1839  -41.9567 H         1 UNK         0.3000 
    165 H165        2.1166  -18.2807  -40.3166 H         1 UNK         0.0600 
    166 H166        4.4461  -17.6915  -39.6736 H         1 UNK         0.0600 
    167 H167        4.4152  -18.3232  -41.3116 H         1 UNK         0.0600 
    168 H168        4.5737  -16.5910  -41.0470 H         1 UNK         0.0600 
    169 H169        2.9097  -15.7322  -39.4099 H         1 UNK         0.3000 
    170 H170       -0.0894  -14.0102  -39.1790 H         1 UNK         0.0600 
    171 H171       -0.5090  -15.5460  -37.2481 H         1 UNK         0.0600 
    172 H172        1.1879  -15.4513  -36.7922 H         1 UNK         0.0600 
    173 H173        0.1649  -14.0159  -36.7128 H         1 UNK         0.0600 
    174 H174        2.3320  -13.5025  -37.8456 H         1 UNK         0.3000 
    175 H175        3.5204  -11.6187  -38.7247 H         1 UNK         0.0600 
    176 H176        5.1541  -13.7858  -40.1903 H         1 UNK         0.0600 
    177 H177        5.8279  -12.5410  -39.1414 H         1 UNK         0.0600 
    178 H178        4.7923  -13.7851  -38.4674 H         1 UNK         0.0600 
    179 H179        3.5129  -11.7529  -41.6198 H         1 UNK         0.3000 
    180 H180        3.8209   -9.4065  -42.5588 H         1 UNK         0.0600 
    181 H181        5.0863   -7.5816  -41.4410 H         1 UNK         0.0600 
    182 H182        5.6419   -7.8120  -43.0902 H         1 UNK         0.0600 
    183 H183        6.6047   -8.4193  -41.7437 H         1 UNK         0.0600 
    184 H184        6.5120  -10.3746  -43.1984 H         1 UNK         0.3000 
    185 H185        6.3657  -11.8377  -45.3366 H         1 UNK         0.0600 
    186 H186        7.5622  -12.4001  -43.1883 H         1 UNK         0.0600 
    187 H187        6.4451  -13.7274  -42.8958 H         1 UNK         0.0600 
    188 H188        7.5688  -13.7913  -44.2511 H         1 UNK         0.0600 
    189 H189        4.1083  -13.5073  -44.8483 H         1 UNK         0.3000 
    190 H190       -2.7823  -20.1450  -46.0374 H         1 UNK         0.3000 
    191 H191       -4.7241  -21.6333  -47.4347 H         1 UNK         0.0600 
    192 H192       -3.2202  -22.3284  -44.8573 H         1 UNK         0.0600 
    193 H193       -4.7093  -23.0879  -45.4062 H         1 UNK         0.0600 
    194 H194       -4.7036  -21.3850  -44.9715 H         1 UNK         0.0600 
    195 H195       -1.2928  -22.4054  -46.7851 H         1 UNK         0.3000 
    196 H196       -1.2949  -25.0033  -47.9634 H         1 UNK         0.0600 
    197 H197        1.1849  -24.7311  -47.9024 H         1 UNK         0.0600 
    198 H198        0.4501  -24.2568  -46.3780 H         1 UNK         0.0600 
    199 H199        1.0010  -23.0258  -47.5110 H         1 UNK         0.0600 
    200 H200       -0.3877  -21.7731  -49.3124 H         1 UNK         0.3000 
    201 H201        0.3110  -22.6886  -51.9081 H         1 UNK         0.0600 
    202 H202        1.0140  -20.4870  -50.9954 H         1 UNK         0.0600 
    203 H203       -0.6583  -19.9297  -50.9839 H         1 UNK         0.0600 
    204 H204        0.1490  -20.2740  -52.5090 H         1 UNK         0.0600 
    205 H205       -2.7969  -21.5115  -50.5730 H         1 UNK         0.3000 
    206 H206       -4.2819  -21.7976  -53.0133 H         1 UNK         0.0600 
    207 H207       -4.9575  -20.2830  -51.1544 H         1 UNK         0.0600 
    208 H208       -6.2349  -21.4204  -51.5375 H         1 UNK         0.0600 
    209 H209       -5.2371  -21.6742  -50.1089 H         1 UNK         0.0600 
    210 H210       -3.1431  -24.0927  -50.7259 H         1 UNK         0.3000 
    211 H211       -3.4453  -26.2201  -50.2350 H         1 UNK         0.0600 
    212 H212       -4.6587  -26.5343  -53.0334 H         1 UNK         0.0600 
    213 H213       -3.9651  -27.8067  -52.0435 H         1 UNK         0.0600 
    214 H214       -2.9317  -26.5351  -52.6795 H         1 UNK         0.0600 
    215 H215       -5.1775  -24.7106  -48.9987 H         1 UNK         0.3000 
    216 H216       -7.1438  -24.4244  -47.9937 H         1 UNK         0.0600 
    217 H217       -8.4576  -26.4067  -47.3488 H         1 UNK         0.0600 
    218 H218       -6.7453  -26.7781  -47.2363 H         1 UNK         0.0600 
    219 H219       -7.6918  -27.3791  -48.5970 H         1 UNK         0.0600 
    220 H220       -6.9940  -23.6717  -50.6540 H         1 UNK         0.3000 
    221 H221       -8.1296  -22.6399  -52.2157 H         1 UNK         0.0600 
    222 H222      -10.7733  -23.4416  -50.9109 H         1 UNK         0.0600 
    223 H223       -9.8287  -22.0155  -50.4789 H         1 UNK         0.0600 
    224 H224      -10.5145  -22.1649  -52.0872 H         1 UNK         0.0600 
    225 H225       -7.7034  -25.7876  -52.1486 H         1 UNK         0.3000 
    226 H226       -9.4575  -26.6514  -54.3077 H         1 UNK         0.0600 
    227 H227       -8.5156  -28.2284  -52.5840 H         1 UNK         0.0600 
    228 H228       -8.1446  -28.7099  -54.2335 H         1 UNK         0.0600 
    229 H229       -6.9029  -27.9575  -53.2460 H         1 UNK         0.0600 
    230 H230       -6.2143  -25.2280  -54.0421 H         1 UNK         0.3000 
    231 H231       -5.7467  -25.5016  -56.9866 H         1 UNK         0.0600 
    232 H232       -3.9379  -26.3622  -55.5031 H         1 UNK         0.0600 
    233 H233       -3.8090  -24.7878  -54.7201 H         1 UNK         0.0600 
    234 H234       -3.4004  -24.9644  -56.4201 H         1 UNK         0.0600 
    235 H235       -6.1492  -23.2170  -54.3273 H         1 UNK         0.3000 
    236 H236       -6.4321  -21.0213  -54.1381 H         1 UNK         0.0600 
    237 H237       -7.6080  -21.1792  -56.9600 H         1 UNK         0.0600 
    238 H238       -8.4690  -21.5748  -55.4731 H         1 UNK         0.0600 
    239 H239       -7.9309  -19.9293  -55.7646 H         1 UNK         0.0600 
    240 H240       -3.8284  -21.8012  -55.0084 H         1 UNK         0.3000 
    241 H241       -1.8716  -21.0070  -55.5559 H         1 UNK         0.0600 
    242 H242       -3.0663  -21.4317  -59.2335 H         1 UNK         0.3800 
    243 H243       -4.0132  -21.8176  -57.8201 H         1 UNK         0.3800 
    244 H244       -3.0719  -18.2206  -55.9376 H         1 UNK         0.0800 
    245 H245       -1.3763  -18.6020  -55.8875 H         1 UNK         0.0800 
    246 H246       -1.1830  -16.6935  -54.2557 H         1 UNK         0.0800 
    247 H247       -0.0764  -17.9503  -53.7486 H         1 UNK         0.0800 
@<TRIPOS>BOND
     1    1    2 1    
     2    1  127 1    
     3    1  128 1    
     4    1  129 1    
     5    2    3 2    
     6    2    4 am   BACKBONE|DICT|INTERRES
     7    4    5 1    
     8    4  130 1    
     9    5    6 1    
    10    5   65 1    
    11    5  131 1    
    12    6    7 1    
    13    6  132 1    
    14    6  133 1    
    15    7    8 1    
    16    8    9 1    
    17    8  134 1    
    18    8  135 1    
    19    9   10 ar   
    20    9   14 ar   
    21   10   11 ar   
    22   10  136 1    
    23   11   12 ar   
    24   11  126 1    
    25   12   13 ar   
    26   12  137 1    
    27   13   14 ar   
    28   13   15 1    
    29   14  138 1    
    30   15   16 1    
    31   15  139 1    
    32   15  140 1    
    33   16   17 1    
    34   17   18 1    
    35   17  141 1    
    36   17  142 1    
    37   18   19 1    
    38   18   67 1    
    39   18  143 1    
    40   19   20 am   BACKBONE|DICT|INTERRES
    41   19  144 1    
    42   20   21 2    
    43   20   22 1    
    44   22   23 1    
    45   22   24 1    
    46   22  145 1    
    47   23  146 1    
    48   23  147 1    
    49   23  148 1    
    50   24   25 am   BACKBONE|DICT|INTERRES
    51   24  149 1    
    52   25   26 2    
    53   25   27 1    
    54   27   28 1    
    55   27   29 1    
    56   27  150 1    
    57   28  151 1    
    58   28  152 1    
    59   28  153 1    
    60   29   30 am   BACKBONE|DICT|INTERRES
    61   29  154 1    
    62   30   31 2    
    63   30   32 1    
    64   32   33 1    
    65   32   34 1    
    66   32  155 1    
    67   33  156 1    
    68   33  157 1    
    69   33  158 1    
    70   34   35 am   BACKBONE|DICT|INTERRES
    71   34  159 1    
    72   35   36 2    
    73   35   37 1    
    74   37   38 1    
    75   37   39 1    
    76   37  160 1    
    77   38  161 1    
    78   38  162 1    
    79   38  163 1    
    80   39   40 am   BACKBONE|DICT|INTERRES
    81   39  164 1    
    82   40   41 2    
    83   40   42 1    
    84   42   43 1    
    85   42   44 1    
    86   42  165 1    
    87   43  166 1    
    88   43  167 1    
    89   43  168 1    
    90   44   45 am   BACKBONE|DICT|INTERRES
    91   44  169 1    
    92   45   46 2    
    93   45   47 1    
    94   47   48 1    
    95   47   49 1    
    96   47  170 1    
    97   48  171 1    
    98   48  172 1    
    99   48  173 1    
   100   49   50 am   BACKBONE|DICT|INTERRES
   101   49  174 1    
   102   50   51 2    
   103   50   52 1    
   104   52   53 1    
   105   52   54 1    
   106   52  175 1    
   107   53  176 1    
   108   53  177 1    
   109   53  178 1    
   110   54   55 am   BACKBONE|DICT|INTERRES
   111   54  179 1    
   112   55   56 2    
   113   55   57 1    
   114   57   58 1    
   115   57   59 1    
   116   57  180 1    
   117   58  181 1    
   118   58  182 1    
   119   58  183 1    
   120   59   60 am   BACKBONE|DICT|INTERRES
   121   59  184 1    
   122   60   61 2    
   123   60   62 1    
   124   62   63 1    
   125   62   64 1    
   126   62  185 1    
   127   63  186 1    
   128   63  187 1    
   129   63  188 1    
   130   64   65 am   BACKBONE|DICT|INTERRES
   131   64  189 1    
   132   65   66 2    
   133   67   68 2    
   134   67   69 am   BACKBONE|DICT|INTERRES
   135   69   70 1    
   136   69  190 1    
   137   70   71 1    
   138   70   72 1    
   139   70  191 1    
   140   71  192 1    
   141   71  193 1    
   142   71  194 1    
   143   72   73 2    
   144   72   74 am   BACKBONE|DICT|INTERRES
   145   74   75 1    
   146   74  195 1    
   147   75   76 1    
   148   75   77 1    
   149   75  196 1    
   150   76  197 1    
   151   76  198 1    
   152   76  199 1    
   153   77   78 2    
   154   77   79 am   BACKBONE|DICT|INTERRES
   155   79   80 1    
   156   79  200 1    
   157   80   81 1    
   158   80   82 1    
   159   80  201 1    
   160   81  202 1    
   161   81  203 1    
   162   81  204 1    
   163   82   83 2    
   164   82   84 am   BACKBONE|DICT|INTERRES
   165   84   85 1    
   166   84  205 1    
   167   85   86 1    
   168   85   87 1    
   169   85  206 1    
   170   86  207 1    
   171   86  208 1    
   172   86  209 1    
   173   87   88 2    
   174   87   89 am   BACKBONE|DICT|INTERRES
   175   89   90 1    
   176   89  210 1    
   177   90   91 1    
   178   90   92 1    
   179   90  211 1    
   180   91  212 1    
   181   91  213 1    
   182   91  214 1    
   183   92   93 2    
   184   92   94 am   BACKBONE|DICT|INTERRES
   185   94   95 1    
   186   94  215 1    
   187   95   96 1    
   188   95   97 1    
   189   95  216 1    
   190   96  217 1    
   191   96  218 1    
   192   96  219 1    
   193   97   98 2    
   194   97   99 am   BACKBONE|DICT|INTERRES
   195   99  100 1    
   196   99  220 1    
   197  100  101 1    
   198  100  102 1    
   199  100  221 1    
   200  101  222 1    
   201  101  223 1    
   202  101  224 1    
   203  102  103 2    
   204  102  104 am   BACKBONE|DICT|INTERRES
   205  104  105 1    
   206  104  225 1    
   207  105  106 1    
   208  105  107 1    
   209  105  226 1    
   210  106  227 1    
   211  106  228 1    
   212  106  229 1    
   213  107  108 2    
   214  107  109 am   BACKBONE|DICT|INTERRES
   215  109  110 1    
   216  109  230 1    
   217  110  111 1    
   218  110  112 1    
   219  110  231 1    
   220  111  232 1    
   221  111  233 1    
   222  111  234 1    
   223  112  113 2    
   224  112  114 am   BACKBONE|DICT|INTERRES
   225  114  115 1    
   226  114  235 1    
   227  115  116 1    
   228  115  117 1    
   229  115  236 1    
   230  116  237 1    
   231  116  238 1    
   232  116  239 1    
   233  117  118 2    
   234  117  119 am   BACKBONE|DICT|INTERRES
   235  119  120 1    
   236  119  240 1    
   237  120  121 1    
   238  120  124 1    
   239  120  241 1    
   240  121  122 am   BACKBONE|DICT|INTERRES
   241  121  123 2    
   242  122  242 1    
   243  122  243 1    
   244  124  125 1    
   245  124  244 1    
   246  124  245 1    
   247  125  126 1    
   248  126  246 1    
   249  126  247 1    
@<TRIPOS>SUBSTRUCTURE
     1 UNK         1 GROUP             0       ****    0 ROOT    
