@<TRIPOS>MOLECULE
3R540
247   249    1
SMALL
USER_CHARGES


@<TRIPOS>ATOM
      1 CA          0.9842  -10.4265  -43.4122 C.3       0 UNK        -0.1800 
      2 C           0.4557  -10.9953  -44.7211 C.2       0 UNK         0.5000 
      3 O           0.9206  -12.0500  -45.1501 O.2       0 UNK        -0.5000 
      4 N          -0.4837  -10.2778  -45.3582 N.am      1 UNK        -0.5000 
      5 CA         -1.2634  -10.6057  -46.5701 C.3       1 UNK         0.1400 
      6 C6         -2.4921  -11.5248  -46.2957 C.3       23 UNK        -0.0398 
      7 S7         -2.1277  -13.2039  -45.6673 S.3       23 UNK        -0.2404 
      8 C8         -3.2759  -14.2580  -46.6107 C.3       23 UNK        -0.0205 
      9 C9         -2.6382  -14.8076  -47.8781 C.ar      23 UNK        -0.0193 
     10 C10        -2.7138  -14.0905  -49.0729 C.ar      23 UNK        -0.1150 
     11 C11        -2.1220  -14.5858  -50.2362 C.ar      23 UNK        -0.0193 
     12 C12        -1.4622  -15.8171  -50.2015 C.ar      23 UNK        -0.1150 
     13 C13        -1.3885  -16.5603  -49.0201 C.ar      23 UNK        -0.0193 
     14 C14        -1.9830  -16.0432  -47.8592 C.ar      23 UNK        -0.1150 
     15 C15        -0.6540  -17.9026  -49.0602 C.3       23 UNK        -0.0205 
     16 S16        -0.0992  -18.5482  -47.4454 S.3       23 UNK        -0.2404 
     17 C17        -1.6118  -19.3828  -46.8587 C.3       23 UNK        -0.0398 
     18 CA         -1.3939  -20.8974  -46.6361 C.3       11 UNK         0.1400 
     19 N          -0.3265  -21.1808  -45.6725 N.am      11 UNK        -0.5000 
     20 C           0.1789  -22.3950  -45.4139 C.2       10 UNK         0.5000 
     21 O          -0.1764  -23.4228  -45.9879 O.2       10 UNK        -0.5000 
     22 CA          1.2208  -22.4751  -44.2848 C.3       10 UNK         0.1400 
     23 CB          2.6136  -22.1017  -44.8100 C.3       10 UNK        -0.1800 
     24 N           0.8700  -21.6052  -43.1614 N.am      10 UNK        -0.5000 
     25 C          -0.1799  -21.8110  -42.3508 C.2       9 UNK         0.5000 
     26 O          -0.9175  -22.7938  -42.4262 O.2       9 UNK        -0.5000 
     27 CA         -0.4986  -20.6990  -41.3327 C.3       9 UNK         0.1400 
     28 CB          0.2512  -20.9351  -40.0150 C.3       9 UNK        -0.1800 
     29 N          -0.2002  -19.3627  -41.8625 N.am      9 UNK        -0.5000 
     30 C          -0.8845  -18.8186  -42.8813 C.2       8 UNK         0.5000 
     31 O          -1.8553  -19.3736  -43.3965 O.2       8 UNK        -0.5000 
     32 CA         -0.3882  -17.4992  -43.4983 C.3       8 UNK         0.1400 
     33 CB         -1.5382  -16.4964  -43.7265 C.3       8 UNK        -0.1800 
     34 N           0.7607  -16.8990  -42.8148 N.am      8 UNK        -0.5000 
     35 C           0.7717  -16.1778  -41.6844 C.2       7 UNK         0.5000 
     36 O          -0.2335  -15.8958  -41.0306 O.2       7 UNK        -0.5000 
     37 CA          2.1685  -15.7227  -41.2013 C.3       7 UNK         0.1400 
     38 CB          2.1674  -15.2264  -39.7403 C.3       7 UNK        -0.1800 
     39 N           3.2060  -16.7466  -41.3932 N.am      7 UNK        -0.5000 
     40 C           3.1785  -18.0046  -40.9272 C.2       6 UNK         0.5000 
     41 O           2.2500  -18.4604  -40.2600 O.2       6 UNK        -0.5000 
     42 CA          4.3708  -18.9089  -41.3015 C.3       6 UNK         0.1400 
     43 CB          4.0572  -20.4088  -41.1241 C.3       6 UNK        -0.1800 
     44 N           4.9161  -18.6787  -42.6448 N.am      6 UNK        -0.5000 
     45 C           4.2630  -18.7209  -43.8151 C.2       5 UNK         0.5000 
     46 O           3.0337  -18.7822  -43.9332 O.2       5 UNK        -0.5000 
     47 CA          5.1636  -18.7351  -45.0587 C.3       5 UNK         0.1400 
     48 CB          5.8545  -20.1089  -45.2014 C.3       5 UNK        -0.1800 
     49 N           4.3752  -18.4308  -46.2483 N.am      5 UNK        -0.5000 
     50 C           4.8730  -18.1855  -47.4675 C.2       4 UNK         0.5000 
     51 O           6.0763  -18.1729  -47.7308 O.2       4 UNK        -0.5000 
     52 CA          3.8567  -17.8880  -48.5835 C.3       4 UNK         0.1400 
     53 CB          3.2494  -19.1918  -49.1260 C.3       4 UNK        -0.1800 
     54 N           2.7810  -16.9991  -48.1488 N.am      4 UNK        -0.5000 
     55 C           2.9367  -15.7076  -47.8322 C.2       3 UNK         0.5000 
     56 O           4.0204  -15.1178  -47.8460 O.2       3 UNK        -0.5000 
     57 CA          1.6566  -14.9764  -47.3911 C.3       3 UNK         0.1400 
     58 CB          1.3915  -15.2423  -45.9033 C.3       3 UNK        -0.1800 
     59 N           1.6917  -13.5322  -47.6135 N.am      3 UNK        -0.5000 
     60 C           1.8311  -12.9230  -48.8011 C.2       2 UNK         0.5000 
     61 O           1.9358  -13.5225  -49.8733 O.2       2 UNK        -0.5000 
     62 CA          1.8408  -11.3774  -48.7691 C.3       2 UNK         0.1400 
     63 CB          1.6757  -10.7307  -50.1613 C.3       2 UNK        -0.1800 
     64 N           0.8687  -10.8450  -47.8077 N.am      2 UNK        -0.5000 
     65 C          -0.4623  -11.0105  -47.8332 C.2       1 UNK         0.5000 
     66 O          -1.0691  -11.4341  -48.8159 O.2       1 UNK        -0.5000 
     67 C          -2.7127  -21.5743  -46.2210 C.2       11 UNK         0.5000 
     68 O          -3.3677  -22.1839  -47.0646 O.2       11 UNK        -0.5000 
     69 N          -3.0539  -21.4898  -44.9272 N.am      12 UNK        -0.5000 
     70 CA         -4.2134  -22.1457  -44.3248 C.3       12 UNK         0.1400 
     71 CB         -4.3817  -21.6658  -42.8756 C.3       12 UNK        -0.1800 
     72 C          -4.1256  -23.6809  -44.3912 C.2       12 UNK         0.5000 
     73 O          -5.1134  -24.3238  -44.7461 O.2       12 UNK        -0.5000 
     74 N          -2.9402  -24.2366  -44.0988 N.am      13 UNK        -0.5000 
     75 CA         -2.6470  -25.6696  -44.1966 C.3       13 UNK         0.1400 
     76 CB         -1.2699  -25.9556  -43.5793 C.3       13 UNK        -0.1800 
     77 C          -2.7200  -26.2023  -45.6413 C.2       13 UNK         0.5000 
     78 O          -3.2277  -27.3027  -45.8597 O.2       13 UNK        -0.5000 
     79 N          -2.2433  -25.3991  -46.6015 N.am      14 UNK        -0.5000 
     80 CA         -2.3162  -25.6682  -48.0397 C.3       14 UNK         0.1400 
     81 CB         -1.2841  -24.7796  -48.7518 C.3       14 UNK        -0.1800 
     82 C          -3.7202  -25.4437  -48.6411 C.2       14 UNK         0.5000 
     83 O          -3.9562  -25.8514  -49.7783 O.2       14 UNK        -0.5000 
     84 N          -4.6093  -24.7849  -47.8830 N.am      15 UNK        -0.5000 
     85 CA         -5.9536  -24.3360  -48.2556 C.3       15 UNK         0.1400 
     86 CB         -6.9045  -25.5323  -48.4646 C.3       15 UNK        -0.1800 
     87 C          -5.9465  -23.3175  -49.4174 C.2       15 UNK         0.5000 
     88 O          -6.8358  -23.3404  -50.2709 O.2       15 UNK        -0.5000 
     89 N          -4.9390  -22.4306  -49.3953 N.am      16 UNK        -0.5000 
     90 CA         -4.6940  -21.2774  -50.2644 C.3       16 UNK         0.1400 
     91 CB         -5.5228  -20.0737  -49.7709 C.3       16 UNK        -0.1800 
     92 C          -4.8780  -21.5778  -51.7655 C.2       16 UNK         0.5000 
     93 O          -3.9812  -22.1522  -52.3867 O.2       16 UNK        -0.5000 
     94 N          -6.0439  -21.2067  -52.3117 N.am      17 UNK        -0.5000 
     95 CA         -6.4368  -21.3818  -53.7095 C.3       17 UNK         0.1400 
     96 CB         -7.8076  -20.7255  -53.9287 C.3       17 UNK        -0.1800 
     97 C          -6.4567  -22.8471  -54.1854 C.2       17 UNK         0.5000 
     98 O          -6.2848  -23.0845  -55.3808 O.2       17 UNK        -0.5000 
     99 N          -6.6006  -23.8070  -53.2590 N.am      18 UNK        -0.5000 
    100 CA        -6.4794  -25.2432  -53.5315 C.3       18 UNK         0.1400 
    101 CB        -6.9055  -26.0308  -52.2868 C.3       18 UNK        -0.1800 
    102 C         -5.0578  -25.6613  -53.9641 C.2       18 UNK         0.5000 
    103 O         -4.9125  -26.6353  -54.7032 O.2       18 UNK        -0.5000 
    104 N         -4.0465  -24.9004  -53.5254 N.am      19 UNK        -0.5000 
    105 CA        -2.6440  -25.0290  -53.9218 C.3       19 UNK         0.1400 
    106 CB        -1.7772  -24.9601  -52.6542 C.3       19 UNK        -0.1800 
    107 C         -2.2392  -23.9385  -54.9369 C.2       19 UNK         0.5000 
    108 O         -1.0498  -23.7858  -55.2169 O.2       19 UNK        -0.5000 
    109 N         -3.2276  -23.1918  -55.4551 N.am      20 UNK        -0.5000 
    110 CA        -3.1240  -22.0609  -56.3834 C.3       20 UNK         0.1400 
    111 CB        -2.5241  -22.5058  -57.7335 C.3       20 UNK        -0.1800 
    112 C         -2.4156  -20.8186  -55.8003 C.2       20 UNK         0.5000 
    113 O         -2.0344  -19.9280  -56.5636 O.2       20 UNK        -0.5000 
    114 N         -2.2684  -20.7466  -54.4694 N.am      21 UNK        -0.5000 
    115 CA        -1.7023  -19.5903  -53.7786 C.3       21 UNK         0.1400 
    116 CB        -1.2673  -19.9909  -52.3614 C.3       21 UNK        -0.1800 
    117 C         -2.7246  -18.4422  -53.7440 C.2       21 UNK         0.5000 
    118 O         -3.9080  -18.6852  -53.4978 O.2       21 UNK        -0.5000 
    119 N         -2.2462  -17.2184  -53.9954 N.am      22 UNK        -0.5000 
    120 CA        -3.0552  -15.9923  -54.1183 C.3       22 UNK         0.1400 
    121 C         -3.9243  -15.9101  -55.4138 C.2       22 UNK         0.5000 
    122 N         -3.7299  -16.7772  -56.4015 N.am      22 UNK        -0.7600 
    123 O         -4.7689  -15.0288  -55.5463 O.2       22 UNK        -0.5000 
    124 C124       -3.8541  -15.6686  -52.8190 C.3       23 UNK        -0.0398 
    125 S125       -3.7960  -13.9028  -52.3587 S.3       23 UNK        -0.2404 
    126 C126       -2.1787  -13.7799  -51.5251 C.3       23 UNK        -0.0205 
    127 H127        0.8090  -11.1334  -42.6012 H         1 UNK         0.0600 
    128 H128        0.5009   -9.4844  -43.1526 H         1 UNK         0.0600 
    129 H129        2.0573  -10.2503  -43.4859 H         1 UNK         0.0600 
    130 H130       -0.7548   -9.4019  -44.9332 H         1 UNK         0.3000 
    131 H131       -1.6884   -9.6427  -46.8573 H         1 UNK         0.0600 
    132 H132       -3.1309  -11.0432  -45.5547 H         1 UNK         0.0800 
    133 H133       -3.1108  -11.5994  -47.1907 H         1 UNK         0.0800 
    134 H134       -4.1879  -13.7082  -46.8475 H         1 UNK         0.0800 
    135 H135       -3.5856  -15.0858  -45.9712 H         1 UNK         0.0800 
    136 H136       -3.2197  -13.1360  -49.0978 H         1 UNK         0.1150 
    137 H137       -1.0038  -16.1994  -51.1029 H         1 UNK         0.1150 
    138 H138       -1.9367  -16.5871  -46.9287 H         1 UNK         0.1150 
    139 H139        0.2298  -17.7999  -49.6915 H         1 UNK         0.0800 
    140 H140       -1.2891  -18.6412  -49.5502 H         1 UNK         0.0800 
    141 H141       -2.4183  -19.2195  -47.5759 H         1 UNK         0.0800 
    142 H142       -1.9342  -18.8949  -45.9397 H         1 UNK         0.0800 
    143 H143       -1.0940  -21.3361  -47.5904 H         1 UNK         0.0600 
    144 H144        0.0233  -20.3937  -45.1500 H         1 UNK         0.3000 
    145 H145        1.2539  -23.5052  -43.9239 H         1 UNK         0.0600 
    146 H146        2.9314  -22.7924  -45.5919 H         1 UNK         0.0600 
    147 H147        3.3606  -22.1414  -44.0170 H         1 UNK         0.0600 
    148 H148        2.6273  -21.0988  -45.2373 H         1 UNK         0.0600 
    149 H149        1.4152  -20.7622  -43.0481 H         1 UNK         0.3000 
    150 H150       -1.5683  -20.7428  -41.1174 H         1 UNK         0.0600 
    151 H151        1.3291  -20.9771  -40.1649 H         1 UNK         0.0600 
    152 H152       -0.0505  -21.8801  -39.5619 H         1 UNK         0.0600 
    153 H153        0.0421  -20.1455  -39.2931 H         1 UNK         0.0600 
    154 H154        0.5865  -18.8685  -41.4553 H         1 UNK         0.3000 
    155 H155       -0.0110  -17.7756  -44.4823 H         1 UNK         0.0600 
    156 H156       -2.0935  -16.2980  -42.8098 H         1 UNK         0.0600 
    157 H157       -2.2525  -16.8799  -44.4551 H         1 UNK         0.0600 
    158 H158       -1.1681  -15.5454  -44.1038 H         1 UNK         0.0600 
    159 H159        1.6590  -17.1380  -43.2178 H         1 UNK         0.3000 
    160 H160        2.4457  -14.8791  -41.8353 H         1 UNK         0.0600 
    161 H161        1.8518  -16.0077  -39.0481 H         1 UNK         0.0600 
    162 H162        1.4882  -14.3825  -39.6135 H         1 UNK         0.0600 
    163 H163        3.1591  -14.8907  -39.4374 H         1 UNK         0.0600 
    164 H164        4.0018  -16.4709  -41.9513 H         1 UNK         0.3000 
    165 H165        5.1663  -18.6554  -40.5995 H         1 UNK         0.0600 
    166 H166        3.7753  -20.6341  -40.0950 H         1 UNK         0.0600 
    167 H167        3.2398  -20.7281  -41.7698 H         1 UNK         0.0600 
    168 H168        4.9260  -21.0233  -41.3596 H         1 UNK         0.0600 
    169 H169        5.9223  -18.5885  -42.6769 H         1 UNK         0.3000 
    170 H170        5.9197  -17.9571  -44.9359 H         1 UNK         0.0600 
    171 H171        6.6089  -20.0999  -45.9875 H         1 UNK         0.0600 
    172 H172        6.3648  -20.3999  -44.2825 H         1 UNK         0.0600 
    173 H173        5.1390  -20.8950  -45.4406 H         1 UNK         0.0600 
    174 H174        3.3762  -18.4013  -46.0911 H         1 UNK         0.3000 
    175 H175        4.3904  -17.3964  -49.3997 H         1 UNK         0.0600 
    176 H176        2.5786  -18.9975  -49.9631 H         1 UNK         0.0600 
    177 H177        4.0293  -19.8644  -49.4854 H         1 UNK         0.0600 
    178 H178        2.6848  -19.7255  -48.3604 H         1 UNK         0.0600 
    179 H179        1.8625  -17.4144  -48.0692 H         1 UNK         0.3000 
    180 H180        0.8236  -15.3686  -47.9728 H         1 UNK         0.0600 
    181 H181        1.3548  -16.3111  -45.6964 H         1 UNK         0.0600 
    182 H182        0.4376  -14.8161  -45.5973 H         1 UNK         0.0600 
    183 H183        2.1687  -14.8107  -45.2716 H         1 UNK         0.0600 
    184 H184        1.5597  -12.9578  -46.7861 H         1 UNK         0.3000 
    185 H185        2.8242  -11.0916  -48.3934 H         1 UNK         0.0600 
    186 H186        2.5002  -11.0099  -50.8181 H         1 UNK         0.0600 
    187 H187        0.7530  -11.0428  -50.6510 H         1 UNK         0.0600 
    188 H188        1.6693   -9.6430  -50.0933 H         1 UNK         0.0600 
    189 H189        1.2606  -10.4917  -46.9462 H         1 UNK         0.3000 
    190 H190       -2.4907  -20.9107  -44.3100 H         1 UNK         0.3000 
    191 H191       -5.0970  -21.8385  -44.8883 H         1 UNK         0.0600 
    192 H192       -4.5002  -20.5829  -42.8305 H         1 UNK         0.0600 
    193 H193       -5.2660  -22.1102  -42.4176 H         1 UNK         0.0600 
    194 H194       -3.5233  -21.9330  -42.2592 H         1 UNK         0.0600 
    195 H195       -2.1887  -23.6413  -43.7655 H         1 UNK         0.3000 
    196 H196       -3.3978  -26.2029  -43.6099 H         1 UNK         0.0600 
    197 H197       -1.0388  -27.0209  -43.6156 H         1 UNK         0.0600 
    198 H198       -1.2362  -25.6508  -42.5331 H         1 UNK         0.0600 
    199 H199       -0.4744  -25.4286  -44.1064 H         1 UNK         0.0600 
    200 H200       -1.7696  -24.5428  -46.3289 H         1 UNK         0.3000 
    201 H201       -2.0472  -26.7121  -48.2125 H         1 UNK         0.0600 
    202 H202       -1.2553  -24.9893  -49.8201 H         1 UNK         0.0600 
    203 H203       -0.2802  -24.9512  -48.3633 H         1 UNK         0.0600 
    204 H204       -1.5141  -23.7205  -48.6304 H         1 UNK         0.0600 
    205 H205       -4.2954  -24.4785  -46.9714 H         1 UNK         0.3000 
    206 H206       -6.3279  -23.7812  -47.3942 H         1 UNK         0.0600 
    207 H207       -6.9800  -26.1285  -47.5552 H         1 UNK         0.0600 
    208 H208       -7.9121  -25.1989  -48.7151 H         1 UNK         0.0600 
    209 H209       -6.5682  -26.1928  -49.2615 H         1 UNK         0.0600 
    210 H210       -4.2856  -22.5136  -48.6188 H         1 UNK         0.3000 
    211 H211       -3.6423  -21.0223  -50.1317 H         1 UNK         0.0600 
    212 H212       -5.2296  -19.7925  -48.7591 H         1 UNK         0.0600 
    213 H213       -5.3649  -19.1996  -50.4047 H         1 UNK         0.0600 
    214 H214       -6.5916  -20.2893  -49.7537 H         1 UNK         0.0600 
    215 H215       -6.7297  -20.7783  -51.7081 H         1 UNK         0.3000 
    216 H216       -5.7023  -20.8532  -54.3207 H         1 UNK         0.0600 
    217 H217       -8.5784  -21.1905  -53.3128 H         1 UNK         0.0600 
    218 H218       -8.1213  -20.8125  -54.9699 H         1 UNK         0.0600 
    219 H219       -7.7786  -19.6626  -53.6879 H         1 UNK         0.0600 
    220 H220       -6.7247  -23.5368  -52.2871 H         1 UNK         0.3000 
    221 H221       -7.1637  -25.4900  -54.3458 H         1 UNK         0.0600 
    222 H222       -6.2094  -25.8624  -51.4660 H         1 UNK         0.0600 
    223 H223       -7.9019  -25.7429  -51.9511 H         1 UNK         0.0600 
    224 H224       -6.9223  -27.1026  -52.4878 H         1 UNK         0.0600 
    225 H225       -4.2561  -24.1000  -52.9374 H         1 UNK         0.3000 
    226 H226       -2.4703  -25.9944  -54.4005 H         1 UNK         0.0600 
    227 H227       -2.0533  -25.7488  -51.9544 H         1 UNK         0.0600 
    228 H228       -0.7200  -25.0910  -52.8877 H         1 UNK         0.0600 
    229 H229       -1.8873  -24.0030  -52.1427 H         1 UNK         0.0600 
    230 H230       -4.1735  -23.4165  -55.1729 H         1 UNK         0.3000 
    231 H231       -4.1499  -21.7450  -56.5763 H         1 UNK         0.0600 
    232 H232       -1.4673  -22.7586  -57.6454 H         1 UNK         0.0600 
    233 H233       -2.6072  -21.7142  -58.4790 H         1 UNK         0.0600 
    234 H234       -3.0467  -23.3765  -58.1296 H         1 UNK         0.0600 
    235 H235       -2.6857  -21.4630  -53.8862 H         1 UNK         0.3000 
    236 H236       -0.8128  -19.2657  -54.3232 H         1 UNK         0.0600 
    237 H237       -2.1195  -20.2364  -51.7303 H         1 UNK         0.0600 
    238 H238       -0.6025  -20.8547  -52.3794 H         1 UNK         0.0600 
    239 H239       -0.7273  -19.1747  -51.8813 H         1 UNK         0.0600 
    240 H240       -1.2632  -17.1110  -54.2022 H         1 UNK         0.3000 
    241 H241       -2.3088  -15.2098  -54.2561 H         1 UNK         0.0600 
    242 H242       -4.2884  -16.7051  -57.2373 H         1 UNK         0.3800 
    243 H243       -3.0424  -17.5114  -56.3222 H         1 UNK         0.3800 
    244 H244       -3.4840  -16.2503  -51.9762 H         1 UNK         0.0800 
    245 H245       -4.8987  -15.9689  -52.9174 H         1 UNK         0.0800 
    246 H246       -1.9786  -12.7315  -51.2975 H         1 UNK         0.0800 
    247 H247       -1.3894  -14.0942  -52.2092 H         1 UNK         0.0800 
@<TRIPOS>BOND
     1    1    2 1    
     2    1  127 1    
     3    1  128 1    
     4    1  129 1    
     5    2    3 2    
     6    2    4 am   BACKBONE|DICT|INTERRES
     7    4    5 1    
     8    4  130 1    
     9    5    6 1    
    10    5   65 1    
    11    5  131 1    
    12    6    7 1    
    13    6  132 1    
    14    6  133 1    
    15    7    8 1    
    16    8    9 1    
    17    8  134 1    
    18    8  135 1    
    19    9   10 ar   
    20    9   14 ar   
    21   10   11 ar   
    22   10  136 1    
    23   11   12 ar   
    24   11  126 1    
    25   12   13 ar   
    26   12  137 1    
    27   13   14 ar   
    28   13   15 1    
    29   14  138 1    
    30   15   16 1    
    31   15  139 1    
    32   15  140 1    
    33   16   17 1    
    34   17   18 1    
    35   17  141 1    
    36   17  142 1    
    37   18   19 1    
    38   18   67 1    
    39   18  143 1    
    40   19   20 am   BACKBONE|DICT|INTERRES
    41   19  144 1    
    42   20   21 2    
    43   20   22 1    
    44   22   23 1    
    45   22   24 1    
    46   22  145 1    
    47   23  146 1    
    48   23  147 1    
    49   23  148 1    
    50   24   25 am   BACKBONE|DICT|INTERRES
    51   24  149 1    
    52   25   26 2    
    53   25   27 1    
    54   27   28 1    
    55   27   29 1    
    56   27  150 1    
    57   28  151 1    
    58   28  152 1    
    59   28  153 1    
    60   29   30 am   BACKBONE|DICT|INTERRES
    61   29  154 1    
    62   30   31 2    
    63   30   32 1    
    64   32   33 1    
    65   32   34 1    
    66   32  155 1    
    67   33  156 1    
    68   33  157 1    
    69   33  158 1    
    70   34   35 am   BACKBONE|DICT|INTERRES
    71   34  159 1    
    72   35   36 2    
    73   35   37 1    
    74   37   38 1    
    75   37   39 1    
    76   37  160 1    
    77   38  161 1    
    78   38  162 1    
    79   38  163 1    
    80   39   40 am   BACKBONE|DICT|INTERRES
    81   39  164 1    
    82   40   41 2    
    83   40   42 1    
    84   42   43 1    
    85   42   44 1    
    86   42  165 1    
    87   43  166 1    
    88   43  167 1    
    89   43  168 1    
    90   44   45 am   BACKBONE|DICT|INTERRES
    91   44  169 1    
    92   45   46 2    
    93   45   47 1    
    94   47   48 1    
    95   47   49 1    
    96   47  170 1    
    97   48  171 1    
    98   48  172 1    
    99   48  173 1    
   100   49   50 am   BACKBONE|DICT|INTERRES
   101   49  174 1    
   102   50   51 2    
   103   50   52 1    
   104   52   53 1    
   105   52   54 1    
   106   52  175 1    
   107   53  176 1    
   108   53  177 1    
   109   53  178 1    
   110   54   55 am   BACKBONE|DICT|INTERRES
   111   54  179 1    
   112   55   56 2    
   113   55   57 1    
   114   57   58 1    
   115   57   59 1    
   116   57  180 1    
   117   58  181 1    
   118   58  182 1    
   119   58  183 1    
   120   59   60 am   BACKBONE|DICT|INTERRES
   121   59  184 1    
   122   60   61 2    
   123   60   62 1    
   124   62   63 1    
   125   62   64 1    
   126   62  185 1    
   127   63  186 1    
   128   63  187 1    
   129   63  188 1    
   130   64   65 am   BACKBONE|DICT|INTERRES
   131   64  189 1    
   132   65   66 2    
   133   67   68 2    
   134   67   69 am   BACKBONE|DICT|INTERRES
   135   69   70 1    
   136   69  190 1    
   137   70   71 1    
   138   70   72 1    
   139   70  191 1    
   140   71  192 1    
   141   71  193 1    
   142   71  194 1    
   143   72   73 2    
   144   72   74 am   BACKBONE|DICT|INTERRES
   145   74   75 1    
   146   74  195 1    
   147   75   76 1    
   148   75   77 1    
   149   75  196 1    
   150   76  197 1    
   151   76  198 1    
   152   76  199 1    
   153   77   78 2    
   154   77   79 am   BACKBONE|DICT|INTERRES
   155   79   80 1    
   156   79  200 1    
   157   80   81 1    
   158   80   82 1    
   159   80  201 1    
   160   81  202 1    
   161   81  203 1    
   162   81  204 1    
   163   82   83 2    
   164   82   84 am   BACKBONE|DICT|INTERRES
   165   84   85 1    
   166   84  205 1    
   167   85   86 1    
   168   85   87 1    
   169   85  206 1    
   170   86  207 1    
   171   86  208 1    
   172   86  209 1    
   173   87   88 2    
   174   87   89 am   BACKBONE|DICT|INTERRES
   175   89   90 1    
   176   89  210 1    
   177   90   91 1    
   178   90   92 1    
   179   90  211 1    
   180   91  212 1    
   181   91  213 1    
   182   91  214 1    
   183   92   93 2    
   184   92   94 am   BACKBONE|DICT|INTERRES
   185   94   95 1    
   186   94  215 1    
   187   95   96 1    
   188   95   97 1    
   189   95  216 1    
   190   96  217 1    
   191   96  218 1    
   192   96  219 1    
   193   97   98 2    
   194   97   99 am   BACKBONE|DICT|INTERRES
   195   99  100 1    
   196   99  220 1    
   197  100  101 1    
   198  100  102 1    
   199  100  221 1    
   200  101  222 1    
   201  101  223 1    
   202  101  224 1    
   203  102  103 2    
   204  102  104 am   BACKBONE|DICT|INTERRES
   205  104  105 1    
   206  104  225 1    
   207  105  106 1    
   208  105  107 1    
   209  105  226 1    
   210  106  227 1    
   211  106  228 1    
   212  106  229 1    
   213  107  108 2    
   214  107  109 am   BACKBONE|DICT|INTERRES
   215  109  110 1    
   216  109  230 1    
   217  110  111 1    
   218  110  112 1    
   219  110  231 1    
   220  111  232 1    
   221  111  233 1    
   222  111  234 1    
   223  112  113 2    
   224  112  114 am   BACKBONE|DICT|INTERRES
   225  114  115 1    
   226  114  235 1    
   227  115  116 1    
   228  115  117 1    
   229  115  236 1    
   230  116  237 1    
   231  116  238 1    
   232  116  239 1    
   233  117  118 2    
   234  117  119 am   BACKBONE|DICT|INTERRES
   235  119  120 1    
   236  119  240 1    
   237  120  121 1    
   238  120  124 1    
   239  120  241 1    
   240  121  122 am   BACKBONE|DICT|INTERRES
   241  121  123 2    
   242  122  242 1    
   243  122  243 1    
   244  124  125 1    
   245  124  244 1    
   246  124  245 1    
   247  125  126 1    
   248  126  246 1    
   249  126  247 1    
@<TRIPOS>SUBSTRUCTURE
     1 UNK         1 GROUP             0       ****    0 ROOT    
