@<TRIPOS>MOLECULE
3R540
247   249    1
SMALL
USER_CHARGES


@<TRIPOS>ATOM
      1 CA         -5.3455  -13.6245  -49.7995 C.3       0 UNK        -0.1800 
      2 C          -4.5599  -13.8096  -48.5095 C.2       0 UNK         0.5000 
      3 O          -4.7184  -13.0202  -47.5786 O.2       0 UNK        -0.5000 
      4 N          -3.7119  -14.8455  -48.4627 N.am      1 UNK        -0.5000 
      5 CA         -2.7603  -15.1487  -47.3877 C.3       1 UNK         0.1400 
      6 C6         -3.4389  -15.2936  -45.9926 C.3       23 UNK        -0.0398 
      7 S7         -2.6560  -16.5549  -44.9343 S.3       23 UNK        -0.2404 
      8 C8         -3.7118  -18.0197  -45.2183 C.3       23 UNK        -0.0205 
      9 C9         -3.6940  -18.4817  -46.6701 C.ar      23 UNK        -0.0193 
     10 C10        -4.8644  -18.4825  -47.4334 C.ar      23 UNK        -0.1150 
     11 C11        -4.8399  -18.8572  -48.7811 C.ar      23 UNK        -0.0193 
     12 C12        -3.6186  -19.2238  -49.3623 C.ar      23 UNK        -0.1150 
     13 C13        -2.4377  -19.2028  -48.6181 C.ar      23 UNK        -0.0193 
     14 C14        -2.4938  -18.8768  -47.2619 C.ar      23 UNK        -0.1150 
     15 C15        -1.1005  -19.4370  -49.3064 C.3       23 UNK        -0.0205 
     16 S16        -0.5270  -21.1561  -49.1842 S.3       23 UNK        -0.2404 
     17 C17         0.3982  -21.0853  -47.6186 C.3       23 UNK        -0.0398 
     18 CA          0.3951  -22.4062  -46.8221 C.3       11 UNK         0.1400 
     19 N           1.3971  -22.3731  -45.7525 N.am      11 UNK        -0.5000 
     20 C           1.8881  -23.4650  -45.1575 C.2       10 UNK         0.5000 
     21 O           1.5068  -24.6074  -45.4093 O.2       10 UNK        -0.5000 
     22 CA          2.9891  -23.2448  -44.1098 C.3       10 UNK         0.1400 
     23 CB          4.3376  -22.9694  -44.7924 C.3       10 UNK        -0.1800 
     24 N           2.7023  -22.1669  -43.1634 N.am      10 UNK        -0.5000 
     25 C           1.7770  -22.2348  -42.1970 C.2       9 UNK         0.5000 
     26 O           0.9219  -23.1181  -42.1341 O.2       9 UNK        -0.5000 
     27 CA          1.8393  -21.1565  -41.1010 C.3       9 UNK         0.1400 
     28 CB          3.2817  -20.8170  -40.6802 C.3       9 UNK        -0.1800 
     29 N           1.1776  -19.9463  -41.5620 N.am      9 UNK        -0.5000 
     30 C          -0.1076  -19.6408  -41.3498 C.2       8 UNK         0.5000 
     31 O          -0.8509  -20.2848  -40.6091 O.2       8 UNK        -0.5000 
     32 CA         -0.6672  -18.4073  -42.0882 C.3       8 UNK         0.1400 
     33 CB         -0.8623  -17.2370  -41.1130 C.3       8 UNK        -0.1800 
     34 N           0.1613  -17.9555  -43.2077 N.am      8 UNK        -0.5000 
     35 C           0.4014  -18.6494  -44.3268 C.2       7 UNK         0.5000 
     36 O          -0.0443  -19.7754  -44.5433 O.2       7 UNK        -0.5000 
     37 CA          1.3680  -18.0068  -45.3358 C.3       7 UNK         0.1400 
     38 CB          0.6823  -16.9096  -46.1660 C.3       7 UNK        -0.1800 
     39 N           2.5482  -17.4560  -44.6734 N.am      7 UNK        -0.5000 
     40 C           3.5115  -18.1890  -44.0981 C.2       6 UNK         0.5000 
     41 O           3.5262  -19.4212  -44.0904 O.2       6 UNK        -0.5000 
     42 CA          4.6215  -17.4061  -43.3759 C.3       6 UNK         0.1400 
     43 CB          5.6987  -16.9474  -44.3692 C.3       6 UNK        -0.1800 
     44 N           4.0917  -16.2465  -42.6557 N.am      6 UNK        -0.5000 
     45 C           3.3898  -16.3374  -41.5164 C.2       5 UNK         0.5000 
     46 O           3.1633  -17.4007  -40.9401 O.2       5 UNK        -0.5000 
     47 CA          2.8219  -15.0306  -40.9288 C.3       5 UNK         0.1400 
     48 CB          3.8224  -14.4050  -39.9457 C.3       5 UNK        -0.1800 
     49 N           2.4483  -14.0317  -41.9328 N.am      5 UNK        -0.5000 
     50 C           1.5353  -14.2081  -42.8972 C.2       4 UNK         0.5000 
     51 O           0.9264  -15.2628  -43.0684 O.2       4 UNK        -0.5000 
     52 CA          1.2624  -13.0310  -43.8522 C.3       4 UNK         0.1400 
     53 CB          1.9148  -11.6983  -43.4205 C.3       4 UNK        -0.1800 
     54 N           1.6315  -13.3537  -45.2321 N.am      4 UNK        -0.5000 
     55 C           2.8393  -13.7217  -45.6884 C.2       3 UNK         0.5000 
     56 O           3.8078  -13.9276  -44.9546 O.2       3 UNK        -0.5000 
     57 CA          3.0051  -13.8916  -47.2149 C.3       3 UNK         0.1400 
     58 CB          3.7931  -15.1645  -47.5744 C.3       3 UNK        -0.1800 
     59 N           1.7312  -13.8602  -47.9475 N.am      3 UNK        -0.5000 
     60 C           1.1418  -12.7334  -48.3722 C.2       2 UNK         0.5000 
     61 O           1.6149  -11.6107  -48.1921 O.2       2 UNK        -0.5000 
     62 CA         -0.2027  -12.8626  -49.1126 C.3       2 UNK         0.1400 
     63 CB          0.0285  -12.9735  -50.6272 C.3       2 UNK        -0.1800 
     64 N          -1.0747  -13.9618  -48.6903 N.am      2 UNK        -0.5000 
     65 C          -1.5738  -14.1574  -47.4584 C.2       1 UNK         0.5000 
     66 O          -1.1739  -13.5633  -46.4557 O.2       1 UNK        -0.5000 
     67 C          -0.9990  -22.7923  -46.2817 C.2       11 UNK         0.5000 
     68 O          -1.7192  -23.5426  -46.9402 O.2       11 UNK        -0.5000 
     69 N          -1.3231  -22.3280  -45.0672 N.am      12 UNK        -0.5000 
     70 CA         -2.5338  -22.6905  -44.3309 C.3       12 UNK         0.1400 
     71 CB         -2.6721  -21.7709  -43.1122 C.3       12 UNK        -0.1800 
     72 C          -2.5559  -24.1663  -43.8864 C.2       12 UNK         0.5000 
     73 O          -3.6325  -24.7617  -43.8359 O.2       12 UNK        -0.5000 
     74 N          -1.3796  -24.7296  -43.5704 N.am      13 UNK        -0.5000 
     75 CA         -1.2051  -26.1505  -43.2571 C.3       13 UNK         0.1400 
     76 CB          0.1389  -26.3575  -42.5424 C.3       13 UNK        -0.1800 
     77 C          -1.3018  -27.0445  -44.5090 C.2       13 UNK         0.5000 
     78 O          -1.7535  -28.1865  -44.4080 O.2       13 UNK        -0.5000 
     79 N          -0.8860  -26.5056  -45.6618 N.am      14 UNK        -0.5000 
     80 CA         -1.0388  -27.1013  -46.9870 C.3       14 UNK         0.1400 
     81 CB          0.0307  -26.4970  -47.9169 C.3       14 UNK        -0.1800 
     82 C          -2.4673  -26.9032  -47.5432 C.2       14 UNK         0.5000 
     83 O          -3.3709  -26.4597  -46.8317 O.2       14 UNK        -0.5000 
     84 N          -2.6526  -27.2273  -48.8280 N.am      15 UNK        -0.5000 
     85 CA         -3.9204  -27.1220  -49.5570 C.3       15 UNK         0.1400 
     86 CB         -3.9416  -28.2083  -50.6484 C.3       15 UNK        -0.1800 
     87 C          -4.1853  -25.7108  -50.1347 C.2       15 UNK         0.5000 
     88 O          -4.8666  -25.5974  -51.1558 O.2       15 UNK        -0.5000 
     89 N          -3.6472  -24.6646  -49.4883 N.am      16 UNK        -0.5000 
     90 CA         -3.6865  -23.2550  -49.8935 C.3       16 UNK         0.1400 
     91 CB         -5.1343  -22.7144  -49.8601 C.3       16 UNK        -0.1800 
     92 C          -2.9604  -23.0055  -51.2363 C.2       16 UNK         0.5000 
     93 O          -2.0670  -23.7733  -51.6039 O.2       16 UNK        -0.5000 
     94 N          -3.3312  -21.9256  -51.9343 N.am      17 UNK        -0.5000 
     95 CA         -2.7504  -21.5136  -53.2106 C.3       17 UNK         0.1400 
     96 CB         -1.4473  -20.7237  -52.9828 C.3       17 UNK        -0.1800 
     97 C          -3.7911  -20.7232  -54.0159 C.2       17 UNK         0.5000 
     98 O          -3.4905  -19.6449  -54.5310 O.2       17 UNK        -0.5000 
     99 N          -5.0132  -21.2657  -54.1094 N.am      18 UNK        -0.5000 
    100 CA        -6.1520  -20.6523  -54.8038 C.3       18 UNK         0.1400 
    101 CB        -7.3982  -21.5252  -54.5987 C.3       18 UNK        -0.1800 
    102 C         -5.9054  -20.3966  -56.3051 C.2       18 UNK         0.5000 
    103 O         -6.4214  -19.4193  -56.8471 O.2       18 UNK        -0.5000 
    104 N         -5.0687  -21.2356  -56.9331 N.am      19 UNK        -0.5000 
    105 CA        -4.5969  -21.0834  -58.3132 C.3       19 UNK         0.1400 
    106 CB        -3.8629  -22.3668  -58.7306 C.3       19 UNK        -0.1800 
    107 C         -3.6903  -19.8515  -58.5268 C.2       19 UNK         0.5000 
    108 O         -3.5995  -19.3573  -59.6508 O.2       19 UNK        -0.5000 
    109 N         -3.0589  -19.3681  -57.4486 N.am      20 UNK        -0.5000 
    110 CA        -2.2526  -18.1472  -57.4000 C.3       20 UNK         0.1400 
    111 CB        -0.9342  -18.4630  -56.6717 C.3       20 UNK        -0.1800 
    112 C         -3.0175  -17.0007  -56.7046 C.2       20 UNK         0.5000 
    113 O         -2.3963  -16.0246  -56.2791 O.2       20 UNK        -0.5000 
    114 N         -4.3453  -17.1509  -56.5650 N.am      21 UNK        -0.5000 
    115 CA        -5.2863  -16.2414  -55.9027 C.3       21 UNK         0.1400 
    116 CB        -5.4222  -14.9286  -56.7017 C.3       21 UNK        -0.1800 
    117 C         -4.9714  -16.0028  -54.4097 C.2       21 UNK         0.5000 
    118 O         -5.3234  -14.9505  -53.8739 O.2       21 UNK        -0.5000 
    119 N         -4.3117  -16.9788  -53.7681 N.am      22 UNK        -0.5000 
    120 CA        -3.8563  -16.9488  -52.3688 C.3       22 UNK         0.1400 
    121 C         -2.7407  -15.9003  -52.0661 C.2       22 UNK         0.5000 
    122 N         -2.0639  -15.3477  -53.0660 N.am      22 UNK        -0.7600 
    123 O         -2.4526  -15.6113  -50.9064 O.2       22 UNK        -0.5000 
    124 C124       -5.0428  -16.9108  -51.3638 C.3       23 UNK        -0.0398 
    125 S125       -5.9657  -18.4879  -51.3686 S.3       23 UNK        -0.2404 
    126 C126       -6.1449  -18.8225  -49.5795 C.3       23 UNK        -0.0205 
    127 H127       -6.2755  -14.1914  -49.7595 H         1 UNK         0.0600 
    128 H128       -4.7720  -13.9564  -50.6648 H         1 UNK         0.0600 
    129 H129       -5.5918  -12.5731  -49.9486 H         1 UNK         0.0600 
    130 H130       -3.5633  -15.3830  -49.3102 H         1 UNK         0.3000 
    131 H131       -2.3425  -16.1168  -47.6625 H         1 UNK         0.0600 
    132 H132       -3.4600  -14.3428  -45.4581 H         1 UNK         0.0800 
    133 H133       -4.4854  -15.5766  -46.1123 H         1 UNK         0.0800 
    134 H134       -3.3547  -18.8332  -44.5876 H         1 UNK         0.0800 
    135 H135       -4.7282  -17.7982  -44.8898 H         1 UNK         0.0800 
    136 H136       -5.7970  -18.1773  -46.9800 H         1 UNK         0.1150 
    137 H137       -3.5716  -19.4898  -50.4068 H         1 UNK         0.1150 
    138 H138       -1.6004  -18.8793  -46.6628 H         1 UNK         0.1150 
    139 H139       -1.1812  -19.1709  -50.3595 H         1 UNK         0.0800 
    140 H140       -0.3466  -18.7622  -48.8980 H         1 UNK         0.0800 
    141 H141        0.0173  -20.2757  -47.0054 H         1 UNK         0.0800 
    142 H142        1.4235  -20.8111  -47.8709 H         1 UNK         0.0800 
    143 H143        0.6946  -23.1963  -47.5144 H         1 UNK         0.0600 
    144 H144        1.7180  -21.4662  -45.4442 H         1 UNK         0.3000 
    145 H145        3.0861  -24.1721  -43.5407 H         1 UNK         0.0600 
    146 H146        5.1458  -22.9228  -44.0622 H         1 UNK         0.0600 
    147 H147        4.3276  -22.0260  -45.3400 H         1 UNK         0.0600 
    148 H148        4.5866  -23.7599  -45.5017 H         1 UNK         0.0600 
    149 H149        3.2987  -21.3492  -43.2155 H         1 UNK         0.3000 
    150 H150        1.3274  -21.5538  -40.2220 H         1 UNK         0.0600 
    151 H151        3.8314  -21.7168  -40.4011 H         1 UNK         0.0600 
    152 H152        3.2852  -20.1539  -39.8149 H         1 UNK         0.0600 
    153 H153        3.8399  -20.3181  -41.4728 H         1 UNK         0.0600 
    154 H154        1.7104  -19.3474  -42.1763 H         1 UNK         0.3000 
    155 H155       -1.6439  -18.6825  -42.4899 H         1 UNK         0.0600 
    156 H156       -1.5159  -17.5186  -40.2865 H         1 UNK         0.0600 
    157 H157       -1.3184  -16.3814  -41.6117 H         1 UNK         0.0600 
    158 H158        0.0870  -16.9113  -40.6871 H         1 UNK         0.0600 
    159 H159        0.5376  -17.0114  -43.1330 H         1 UNK         0.3000 
    160 H160        1.6986  -18.7896  -46.0208 H         1 UNK         0.0600 
    161 H161        0.4606  -16.0238  -45.5713 H         1 UNK         0.0600 
    162 H162       -0.2566  -17.2506  -46.5893 H         1 UNK         0.0600 
    163 H163        1.2956  -16.6100  -47.0108 H         1 UNK         0.0600 
    164 H164        2.5794  -16.4535  -44.5582 H         1 UNK         0.3000 
    165 H165        5.0909  -18.0801  -42.6559 H         1 UNK         0.0600 
    166 H166        6.5203  -16.4480  -43.8557 H         1 UNK         0.0600 
    167 H167        6.1202  -17.7972  -44.9078 H         1 UNK         0.0600 
    168 H168        5.2977  -16.2555  -45.1097 H         1 UNK         0.0600 
    169 H169        4.2101  -15.3393  -43.0893 H         1 UNK         0.3000 
    170 H170        1.9183  -15.2896  -40.3738 H         1 UNK         0.0600 
    171 H171        4.7375  -14.0903  -40.4490 H         1 UNK         0.0600 
    172 H172        3.3954  -13.5344  -39.4476 H         1 UNK         0.0600 
    173 H173        4.1033  -15.1168  -39.1682 H         1 UNK         0.0600 
    174 H174        2.9241  -13.1428  -41.8829 H         1 UNK         0.3000 
    175 H175        0.1811  -12.8858  -43.8505 H         1 UNK         0.0600 
    176 H176        3.0042  -11.7488  -43.4246 H         1 UNK         0.0600 
    177 H177        1.6231  -10.8910  -44.0924 H         1 UNK         0.0600 
    178 H178        1.5956  -11.4087  -42.4185 H         1 UNK         0.0600 
    179 H179        0.8699  -13.2883  -45.8981 H         1 UNK         0.3000 
    180 H180        3.6145  -13.0489  -47.5479 H         1 UNK         0.0600 
    181 H181        3.7972  -15.3414  -48.6500 H         1 UNK         0.0600 
    182 H182        3.4021  -16.0540  -47.0855 H         1 UNK         0.0600 
    183 H183        4.8340  -15.0674  -47.2639 H         1 UNK         0.0600 
    184 H184        1.2740  -14.7420  -48.1252 H         1 UNK         0.3000 
    185 H185       -0.7532  -11.9383  -48.9263 H         1 UNK         0.0600 
    186 H186       -0.9137  -12.9216  -51.1732 H         1 UNK         0.0600 
    187 H187        0.6581  -12.1600  -50.9905 H         1 UNK         0.0600 
    188 H188        0.5179  -13.9122  -50.8900 H         1 UNK         0.0600 
    189 H189       -1.4739  -14.5099  -49.4459 H         1 UNK         0.3000 
    190 H190       -0.7052  -21.6517  -44.6300 H         1 UNK         0.3000 
    191 H191       -3.3891  -22.5227  -44.9888 H         1 UNK         0.0600 
    192 H192       -2.6536  -20.7216  -43.4015 H         1 UNK         0.0600 
    193 H193       -1.8630  -21.9392  -42.4015 H         1 UNK         0.0600 
    194 H194       -3.6119  -21.9513  -42.5892 H         1 UNK         0.0600 
    195 H195       -0.5450  -24.1568  -43.5690 H         1 UNK         0.3000 
    196 H196       -2.0000  -26.4532  -42.5722 H         1 UNK         0.0600 
    197 H197        0.1825  -25.7878  -41.6140 H         1 UNK         0.0600 
    198 H198        0.9794  -26.0485  -43.1641 H         1 UNK         0.0600 
    199 H199        0.2878  -27.4072  -42.2867 H         1 UNK         0.0600 
    200 H200       -0.5125  -25.5659  -45.6379 H         1 UNK         0.3000 
    201 H201       -0.8594  -28.1755  -46.9101 H         1 UNK         0.0600 
    202 H202        1.0235  -26.5641  -47.4711 H         1 UNK         0.0600 
    203 H203       -0.1670  -25.4462  -48.1294 H         1 UNK         0.0600 
    204 H204        0.0766  -27.0226  -48.8708 H         1 UNK         0.0600 
    205 H205       -1.8615  -27.5521  -49.3649 H         1 UNK         0.3000 
    206 H206       -4.7415  -27.3351  -48.8694 H         1 UNK         0.0600 
    207 H207       -3.1749  -28.0325  -51.4040 H         1 UNK         0.0600 
    208 H208       -3.7745  -29.1983  -50.2236 H         1 UNK         0.0600 
    209 H209       -4.9056  -28.2386  -51.1579 H         1 UNK         0.0600 
    210 H210       -3.1044  -24.8526  -48.6553 H         1 UNK         0.3000 
    211 H211       -3.1195  -22.7113  -49.1376 H         1 UNK         0.0600 
    212 H212       -5.7457  -23.1278  -50.6627 H         1 UNK         0.0600 
    213 H213       -5.1556  -21.6303  -49.9568 H         1 UNK         0.0600 
    214 H214       -5.6193  -22.9549  -48.9140 H         1 UNK         0.0600 
    215 H215       -4.0894  -21.3539  -51.5896 H         1 UNK         0.3000 
    216 H216       -2.5145  -22.4025  -53.7992 H         1 UNK         0.0600 
    217 H217       -0.7442  -21.2782  -52.3614 H         1 UNK         0.0600 
    218 H218       -1.6401  -19.7650  -52.5035 H         1 UNK         0.0600 
    219 H219       -0.9476  -20.5195  -53.9300 H         1 UNK         0.0600 
    220 H220       -5.1821  -22.1584  -53.6683 H         1 UNK         0.3000 
    221 H221       -6.3358  -19.6818  -54.3375 H         1 UNK         0.0600 
    222 H222       -7.2624  -22.5249  -55.0132 H         1 UNK         0.0600 
    223 H223       -7.6363  -21.6287  -53.5398 H         1 UNK         0.0600 
    224 H224       -8.2693  -21.0831  -55.0842 H         1 UNK         0.0600 
    225 H225       -4.6925  -22.0128  -56.4104 H         1 UNK         0.3000 
    226 H226       -5.4706  -20.9626  -58.9571 H         1 UNK         0.0600 
    227 H227       -4.5160  -23.2367  -58.6582 H         1 UNK         0.0600 
    228 H228       -3.5222  -22.3036  -59.7650 H         1 UNK         0.0600 
    229 H229       -2.9868  -22.5501  -58.1072 H         1 UNK         0.0600 
    230 H230       -3.2254  -19.8038  -56.5485 H         1 UNK         0.3000 
    231 H231       -2.0118  -17.8087  -58.4094 H         1 UNK         0.0600 
    232 H232       -0.2594  -17.6064  -56.6907 H         1 UNK         0.0600 
    233 H233       -0.4122  -19.2957  -57.1430 H         1 UNK         0.0600 
    234 H234       -1.1056  -18.7219  -55.6265 H         1 UNK         0.0600 
    235 H235       -4.7626  -18.0009  -56.9237 H         1 UNK         0.3000 
    236 H236       -6.2555  -16.7413  -55.9254 H         1 UNK         0.0600 
    237 H237       -4.5071  -14.3367  -56.6664 H         1 UNK         0.0600 
    238 H238       -5.6540  -15.1264  -57.7482 H         1 UNK         0.0600 
    239 H239       -6.2273  -14.3090  -56.3052 H         1 UNK         0.0600 
    240 H240       -4.0530  -17.8160  -54.2818 H         1 UNK         0.3000 
    241 H241       -3.3415  -17.8981  -52.2223 H         1 UNK         0.0600 
    242 H242       -2.2765  -15.5814  -54.0270 H         1 UNK         0.3800 
    243 H243       -1.3341  -14.6855  -52.8631 H         1 UNK         0.3800 
    244 H244       -5.7340  -16.0996  -51.5903 H         1 UNK         0.0800 
    245 H245       -4.6912  -16.7168  -50.3525 H         1 UNK         0.0800 
    246 H246       -6.8082  -18.0612  -49.1659 H         1 UNK         0.0800 
    247 H247       -6.6581  -19.7759  -49.4516 H         1 UNK         0.0800 
@<TRIPOS>BOND
     1    1    2 1    
     2    1  127 1    
     3    1  128 1    
     4    1  129 1    
     5    2    3 2    
     6    2    4 am   BACKBONE|DICT|INTERRES
     7    4    5 1    
     8    4  130 1    
     9    5    6 1    
    10    5   65 1    
    11    5  131 1    
    12    6    7 1    
    13    6  132 1    
    14    6  133 1    
    15    7    8 1    
    16    8    9 1    
    17    8  134 1    
    18    8  135 1    
    19    9   10 ar   
    20    9   14 ar   
    21   10   11 ar   
    22   10  136 1    
    23   11   12 ar   
    24   11  126 1    
    25   12   13 ar   
    26   12  137 1    
    27   13   14 ar   
    28   13   15 1    
    29   14  138 1    
    30   15   16 1    
    31   15  139 1    
    32   15  140 1    
    33   16   17 1    
    34   17   18 1    
    35   17  141 1    
    36   17  142 1    
    37   18   19 1    
    38   18   67 1    
    39   18  143 1    
    40   19   20 am   BACKBONE|DICT|INTERRES
    41   19  144 1    
    42   20   21 2    
    43   20   22 1    
    44   22   23 1    
    45   22   24 1    
    46   22  145 1    
    47   23  146 1    
    48   23  147 1    
    49   23  148 1    
    50   24   25 am   BACKBONE|DICT|INTERRES
    51   24  149 1    
    52   25   26 2    
    53   25   27 1    
    54   27   28 1    
    55   27   29 1    
    56   27  150 1    
    57   28  151 1    
    58   28  152 1    
    59   28  153 1    
    60   29   30 am   BACKBONE|DICT|INTERRES
    61   29  154 1    
    62   30   31 2    
    63   30   32 1    
    64   32   33 1    
    65   32   34 1    
    66   32  155 1    
    67   33  156 1    
    68   33  157 1    
    69   33  158 1    
    70   34   35 am   BACKBONE|DICT|INTERRES
    71   34  159 1    
    72   35   36 2    
    73   35   37 1    
    74   37   38 1    
    75   37   39 1    
    76   37  160 1    
    77   38  161 1    
    78   38  162 1    
    79   38  163 1    
    80   39   40 am   BACKBONE|DICT|INTERRES
    81   39  164 1    
    82   40   41 2    
    83   40   42 1    
    84   42   43 1    
    85   42   44 1    
    86   42  165 1    
    87   43  166 1    
    88   43  167 1    
    89   43  168 1    
    90   44   45 am   BACKBONE|DICT|INTERRES
    91   44  169 1    
    92   45   46 2    
    93   45   47 1    
    94   47   48 1    
    95   47   49 1    
    96   47  170 1    
    97   48  171 1    
    98   48  172 1    
    99   48  173 1    
   100   49   50 am   BACKBONE|DICT|INTERRES
   101   49  174 1    
   102   50   51 2    
   103   50   52 1    
   104   52   53 1    
   105   52   54 1    
   106   52  175 1    
   107   53  176 1    
   108   53  177 1    
   109   53  178 1    
   110   54   55 am   BACKBONE|DICT|INTERRES
   111   54  179 1    
   112   55   56 2    
   113   55   57 1    
   114   57   58 1    
   115   57   59 1    
   116   57  180 1    
   117   58  181 1    
   118   58  182 1    
   119   58  183 1    
   120   59   60 am   BACKBONE|DICT|INTERRES
   121   59  184 1    
   122   60   61 2    
   123   60   62 1    
   124   62   63 1    
   125   62   64 1    
   126   62  185 1    
   127   63  186 1    
   128   63  187 1    
   129   63  188 1    
   130   64   65 am   BACKBONE|DICT|INTERRES
   131   64  189 1    
   132   65   66 2    
   133   67   68 2    
   134   67   69 am   BACKBONE|DICT|INTERRES
   135   69   70 1    
   136   69  190 1    
   137   70   71 1    
   138   70   72 1    
   139   70  191 1    
   140   71  192 1    
   141   71  193 1    
   142   71  194 1    
   143   72   73 2    
   144   72   74 am   BACKBONE|DICT|INTERRES
   145   74   75 1    
   146   74  195 1    
   147   75   76 1    
   148   75   77 1    
   149   75  196 1    
   150   76  197 1    
   151   76  198 1    
   152   76  199 1    
   153   77   78 2    
   154   77   79 am   BACKBONE|DICT|INTERRES
   155   79   80 1    
   156   79  200 1    
   157   80   81 1    
   158   80   82 1    
   159   80  201 1    
   160   81  202 1    
   161   81  203 1    
   162   81  204 1    
   163   82   83 2    
   164   82   84 am   BACKBONE|DICT|INTERRES
   165   84   85 1    
   166   84  205 1    
   167   85   86 1    
   168   85   87 1    
   169   85  206 1    
   170   86  207 1    
   171   86  208 1    
   172   86  209 1    
   173   87   88 2    
   174   87   89 am   BACKBONE|DICT|INTERRES
   175   89   90 1    
   176   89  210 1    
   177   90   91 1    
   178   90   92 1    
   179   90  211 1    
   180   91  212 1    
   181   91  213 1    
   182   91  214 1    
   183   92   93 2    
   184   92   94 am   BACKBONE|DICT|INTERRES
   185   94   95 1    
   186   94  215 1    
   187   95   96 1    
   188   95   97 1    
   189   95  216 1    
   190   96  217 1    
   191   96  218 1    
   192   96  219 1    
   193   97   98 2    
   194   97   99 am   BACKBONE|DICT|INTERRES
   195   99  100 1    
   196   99  220 1    
   197  100  101 1    
   198  100  102 1    
   199  100  221 1    
   200  101  222 1    
   201  101  223 1    
   202  101  224 1    
   203  102  103 2    
   204  102  104 am   BACKBONE|DICT|INTERRES
   205  104  105 1    
   206  104  225 1    
   207  105  106 1    
   208  105  107 1    
   209  105  226 1    
   210  106  227 1    
   211  106  228 1    
   212  106  229 1    
   213  107  108 2    
   214  107  109 am   BACKBONE|DICT|INTERRES
   215  109  110 1    
   216  109  230 1    
   217  110  111 1    
   218  110  112 1    
   219  110  231 1    
   220  111  232 1    
   221  111  233 1    
   222  111  234 1    
   223  112  113 2    
   224  112  114 am   BACKBONE|DICT|INTERRES
   225  114  115 1    
   226  114  235 1    
   227  115  116 1    
   228  115  117 1    
   229  115  236 1    
   230  116  237 1    
   231  116  238 1    
   232  116  239 1    
   233  117  118 2    
   234  117  119 am   BACKBONE|DICT|INTERRES
   235  119  120 1    
   236  119  240 1    
   237  120  121 1    
   238  120  124 1    
   239  120  241 1    
   240  121  122 am   BACKBONE|DICT|INTERRES
   241  121  123 2    
   242  122  242 1    
   243  122  243 1    
   244  124  125 1    
   245  124  244 1    
   246  124  245 1    
   247  125  126 1    
   248  126  246 1    
   249  126  247 1    
@<TRIPOS>SUBSTRUCTURE
     1 UNK         1 GROUP             0       ****    0 ROOT    
