@<TRIPOS>MOLECULE
3R540
247   249    1
SMALL
USER_CHARGES


@<TRIPOS>ATOM
      1 CA          7.1128  -10.8591  -48.0305 C.3       0 UNK        -0.1800 
      2 C           6.0655  -11.8415  -48.5355 C.2       0 UNK         0.5000 
      3 O           5.6677  -11.7650  -49.6978 O.2       0 UNK        -0.5000 
      4 N           5.6227  -12.7601  -47.6655 N.am      1 UNK        -0.5000 
      5 CA          4.6060  -13.7870  -47.9323 C.3       1 UNK         0.1400 
      6 C6          5.0598  -14.8241  -48.9983 C.3       23 UNK        -0.0398 
      7 S7          4.2506  -16.4490  -48.7873 S.3       23 UNK        -0.2404 
      8 C8          3.3469  -16.6026  -50.3605 C.3       23 UNK        -0.0205 
      9 C9          2.1045  -17.4598  -50.1943 C.ar      23 UNK        -0.0193 
     10 C10         0.8970  -16.8656  -49.8174 C.ar      23 UNK        -0.1150 
     11 C11        -0.2535  -17.6396  -49.6483 C.ar      23 UNK        -0.0193 
     12 C12        -0.1841  -19.0213  -49.8507 C.ar      23 UNK        -0.1150 
     13 C13         1.0129  -19.6259  -50.2477 C.ar      23 UNK        -0.0193 
     14 C14         2.1551  -18.8384  -50.4198 C.ar      23 UNK        -0.1150 
     15 C15         1.0657  -21.1294  -50.4879 C.3       23 UNK        -0.0205 
     16 S16         2.1473  -22.0067  -49.3124 S.3       23 UNK        -0.2404 
     17 C17         1.5041  -21.4514  -47.6982 C.3       23 UNK        -0.0398 
     18 CA          0.4968  -22.4230  -47.0442 C.3       11 UNK         0.1400 
     19 N           0.3766  -22.1597  -45.6098 N.am      11 UNK        -0.5000 
     20 C          -0.2781  -22.9326  -44.7347 C.2       10 UNK         0.5000 
     21 O          -0.8100  -24.0018  -45.0331 O.2       10 UNK        -0.5000 
     22 CA         -0.3988  -22.3921  -43.2975 C.3       10 UNK         0.1400 
     23 CB          0.8748  -22.6897  -42.4928 C.3       10 UNK        -0.1800 
     24 N          -0.6792  -20.9543  -43.2633 N.am      10 UNK        -0.5000 
     25 C          -1.8067  -20.3946  -43.7261 C.2       9 UNK         0.5000 
     26 O          -2.7533  -21.0438  -44.1693 O.2       9 UNK        -0.5000 
     27 CA         -1.8702  -18.8556  -43.7482 C.3       9 UNK         0.1400 
     28 CB         -2.2164  -18.2968  -42.3607 C.3       9 UNK        -0.1800 
     29 N          -0.6292  -18.2488  -44.2294 N.am      9 UNK        -0.5000 
     30 C          -0.1317  -18.4099  -45.4634 C.2       8 UNK         0.5000 
     31 O          -0.6982  -19.0493  -46.3464 O.2       8 UNK        -0.5000 
     32 CA          1.2545  -17.8061  -45.7437 C.3       8 UNK         0.1400 
     33 CB          1.1422  -16.3218  -46.1065 C.3       8 UNK        -0.1800 
     34 N           2.1600  -17.9663  -44.6068 N.am      8 UNK        -0.5000 
     35 C           2.6533  -19.1429  -44.1971 C.2       7 UNK         0.5000 
     36 O           2.4125  -20.2154  -44.7495 O.2       7 UNK        -0.5000 
     37 CA          3.5235  -19.1201  -42.9285 C.3       7 UNK         0.1400 
     38 CB          4.9514  -18.6580  -43.2558 C.3       7 UNK        -0.1800 
     39 N           2.9604  -18.2636  -41.8844 N.am      7 UNK        -0.5000 
     40 C           1.8086  -18.5106  -41.2444 C.2       6 UNK         0.5000 
     41 O           1.1170  -19.5093  -41.4410 O.2       6 UNK        -0.5000 
     42 CA          1.3274  -17.4367  -40.2508 C.3       6 UNK         0.1400 
     43 CB          1.9517  -17.6639  -38.8660 C.3       6 UNK        -0.1800 
     44 N           1.6047  -16.0655  -40.6914 N.am      6 UNK        -0.5000 
     45 C           1.1087  -15.5117  -41.8057 C.2       5 UNK         0.5000 
     46 O           0.4075  -16.1202  -42.6160 O.2       5 UNK        -0.5000 
     47 CA          1.5090  -14.0540  -42.0873 C.3       5 UNK         0.1400 
     48 CB          2.7576  -14.0120  -42.9826 C.3       5 UNK        -0.1800 
     49 N           0.4222  -13.3188  -42.7348 N.am      5 UNK        -0.5000 
     50 C          -0.7014  -12.9308  -42.1115 C.2       4 UNK         0.5000 
     51 O          -0.9010  -13.1075  -40.9084 O.2       4 UNK        -0.5000 
     52 CA         -1.7799  -12.2029  -42.9425 C.3       4 UNK         0.1400 
     53 CB         -1.7282  -10.6899  -42.6777 C.3       4 UNK        -0.1800 
     54 N          -1.6648  -12.4273  -44.3824 N.am      4 UNK        -0.5000 
     55 C          -1.9819  -13.5656  -45.0126 C.2       3 UNK         0.5000 
     56 O          -2.5045  -14.5304  -44.4550 O.2       3 UNK        -0.5000 
     57 CA         -1.6568  -13.6480  -46.5205 C.3       3 UNK         0.1400 
     58 CB         -2.9385  -13.5122  -47.3568 C.3       3 UNK        -0.1800 
     59 N          -0.6668  -12.6784  -47.0138 N.am      3 UNK        -0.5000 
     60 C           0.5945  -12.5642  -46.5776 C.2       2 UNK         0.5000 
     61 O           1.0367  -13.1688  -45.6002 O.2       2 UNK        -0.5000 
     62 CA          1.5138  -11.5858  -47.3277 C.3       2 UNK         0.1400 
     63 CB          1.5650  -10.2331  -46.6016 C.3       2 UNK        -0.1800 
     64 N           2.8649  -12.1395  -47.4044 N.am      2 UNK        -0.5000 
     65 C           3.2089  -13.1696  -48.1903 C.2       1 UNK         0.5000 
     66 O           2.4697  -13.6182  -49.0677 O.2       1 UNK        -0.5000 
     67 C          -0.8818  -22.4104  -47.7429 C.2       11 UNK         0.5000 
     68 O          -1.1754  -23.3198  -48.5150 O.2       11 UNK        -0.5000 
     69 N          -1.7300  -21.4241  -47.4212 N.am      12 UNK        -0.5000 
     70 CA         -3.1139  -21.3272  -47.8894 C.3       12 UNK         0.1400 
     71 CB         -3.7052  -19.9747  -47.4746 C.3       12 UNK        -0.1800 
     72 C          -4.0119  -22.4765  -47.3975 C.2       12 UNK         0.5000 
     73 O          -4.8636  -22.9359  -48.1569 O.2       12 UNK        -0.5000 
     74 N          -3.7980  -22.9335  -46.1552 N.am      13 UNK        -0.5000 
     75 CA         -4.4841  -24.0869  -45.5691 C.3       13 UNK         0.1400 
     76 CB         -4.2198  -24.1382  -44.0568 C.3       13 UNK        -0.1800 
     77 C          -4.0926  -25.4146  -46.2462 C.2       13 UNK         0.5000 
     78 O          -4.9586  -26.2656  -46.4532 O.2       13 UNK        -0.5000 
     79 N          -2.8092  -25.5555  -46.6104 N.am      14 UNK        -0.5000 
     80 CA         -2.2978  -26.6526  -47.4382 C.3       14 UNK         0.1400 
     81 CB         -0.7631  -26.6699  -47.3669 C.3       14 UNK        -0.1800 
     82 C          -2.7780  -26.5632  -48.9027 C.2       14 UNK         0.5000 
     83 O          -2.9396  -27.5963  -49.5531 O.2       14 UNK        -0.5000 
     84 N          -3.0185  -25.3308  -49.3689 N.am      15 UNK        -0.5000 
     85 CA         -3.5097  -24.9198  -50.6800 C.3       15 UNK         0.1400 
     86 CB         -4.9256  -25.4718  -50.9541 C.3       15 UNK        -0.1800 
     87 C          -2.4814  -25.2224  -51.7817 C.2       15 UNK         0.5000 
     88 O          -1.5260  -24.4578  -51.9287 O.2       15 UNK        -0.5000 
     89 N          -2.6947  -26.3083  -52.5397 N.am      16 UNK        -0.5000 
     90 CA         -1.8905  -26.7669  -53.6764 C.3       16 UNK         0.1400 
     91 CB         -0.5079  -27.2679  -53.2015 C.3       16 UNK        -0.1800 
     92 C          -1.8233  -25.6915  -54.7794 C.2       16 UNK         0.5000 
     93 O          -2.7919  -25.5357  -55.5238 O.2       16 UNK        -0.5000 
     94 N          -0.7093  -24.9495  -54.8427 N.am      17 UNK        -0.5000 
     95 CA         -0.5190  -23.7964  -55.7240 C.3       17 UNK         0.1400 
     96 CB          0.9560  -23.3695  -55.6814 C.3       17 UNK        -0.1800 
     97 C          -1.4353  -22.6088  -55.3673 C.2       17 UNK         0.5000 
     98 O          -1.8558  -21.8787  -56.2653 O.2       17 UNK        -0.5000 
     99 N          -1.7618  -22.4560  -54.0767 N.am      18 UNK        -0.5000 
    100 CA        -2.7033  -21.4660  -53.5583 C.3       18 UNK         0.1400 
    101 CB        -2.1903  -20.9408  -52.2061 C.3       18 UNK        -0.1800 
    102 C         -4.1044  -22.0923  -53.4524 C.2       18 UNK         0.5000 
    103 O         -4.6831  -22.1359  -52.3670 O.2       18 UNK        -0.5000 
    104 N         -4.6259  -22.5842  -54.5845 N.am      19 UNK        -0.5000 
    105 CA        -5.8997  -23.3053  -54.6969 C.3       19 UNK         0.1400 
    106 CB        -6.0792  -23.7733  -56.1487 C.3       19 UNK        -0.1800 
    107 C         -7.1341  -22.5042  -54.2329 C.2       19 UNK         0.5000 
    108 O         -8.1106  -23.1010  -53.7790 O.2       19 UNK        -0.5000 
    109 N         -7.0584  -21.1706  -54.3353 N.am      20 UNK        -0.5000 
    110 CA        -8.0743  -20.2317  -53.8561 C.3       20 UNK         0.1400 
    111 CB        -7.9013  -18.9037  -54.6115 C.3       20 UNK        -0.1800 
    112 C         -8.0236  -19.9910  -52.3314 C.2       20 UNK         0.5000 
    113 O         -8.9521  -19.3843  -51.7972 O.2       20 UNK        -0.5000 
    114 N         -6.9445  -20.4382  -51.6679 N.am      21 UNK        -0.5000 
    115 CA        -6.6270  -20.2530  -50.2465 C.3       21 UNK         0.1400 
    116 CB        -7.6456  -20.9820  -49.3462 C.3       21 UNK        -0.1800 
    117 C         -6.4067  -18.7754  -49.8488 C.2       21 UNK         0.5000 
    118 O         -6.6403  -18.4080  -48.6960 O.2       21 UNK        -0.5000 
    119 N         -5.9246  -17.9685  -50.8049 N.am      22 UNK        -0.5000 
    120 CA        -5.5567  -16.5486  -50.6546 C.3       22 UNK         0.1400 
    121 C         -6.7455  -15.6259  -50.2312 C.2       22 UNK         0.5000 
    122 N         -6.4923  -14.4405  -49.6900 N.am      22 UNK        -0.7600 
    123 O         -7.9128  -15.9425  -50.4490 O.2       22 UNK        -0.5000 
    124 C124       -4.2674  -16.3649  -49.7987 C.3       23 UNK        -0.0398 
    125 S125       -2.8427  -17.2426  -50.5237 S.3       23 UNK        -0.2404 
    126 C126       -1.5682  -16.9848  -49.2492 C.3       23 UNK        -0.0205 
    127 H127        7.3754  -11.0446  -46.9887 H         1 UNK         0.0600 
    128 H128        6.7386   -9.8384  -48.1100 H         1 UNK         0.0600 
    129 H129        8.0205  -10.9380  -48.6288 H         1 UNK         0.0600 
    130 H130        6.0010  -12.7630  -46.7282 H         1 UNK         0.3000 
    131 H131        4.5076  -14.3207  -46.9854 H         1 UNK         0.0600 
    132 H132        6.1319  -15.0009  -48.9037 H         1 UNK         0.0800 
    133 H133        4.9169  -14.4393  -50.0092 H         1 UNK         0.0800 
    134 H134        4.0079  -17.0286  -51.1166 H         1 UNK         0.0800 
    135 H135        3.0539  -15.6190  -50.7297 H         1 UNK         0.0800 
    136 H136        0.8590  -15.7979  -49.6507 H         1 UNK         0.1150 
    137 H137       -1.0716  -19.6219  -49.7100 H         1 UNK         0.1150 
    138 H138        3.0857  -19.3020  -50.7158 H         1 UNK         0.1150 
    139 H139        0.0690  -21.5671  -50.4326 H         1 UNK         0.0800 
    140 H140        1.4212  -21.3158  -51.5021 H         1 UNK         0.0800 
    141 H141        1.0972  -20.4433  -47.7564 H         1 UNK         0.0800 
    142 H142        2.3835  -21.3660  -47.0600 H         1 UNK         0.0800 
    143 H143        0.8977  -23.4344  -47.1401 H         1 UNK         0.0600 
    144 H144        0.8343  -21.3211  -45.2666 H         1 UNK         0.3000 
    145 H145       -1.2322  -22.9084  -42.8170 H         1 UNK         0.0600 
    146 H146        0.7638  -22.3810  -41.4532 H         1 UNK         0.0600 
    147 H147        1.7422  -22.1719  -42.9031 H         1 UNK         0.0600 
    148 H148        1.0972  -23.7575  -42.4937 H         1 UNK         0.0600 
    149 H149        0.0364  -20.3585  -42.8576 H         1 UNK         0.3000 
    150 H150       -2.6666  -18.5644  -44.4357 H         1 UNK         0.0600 
    151 H151       -3.1672  -18.6962  -42.0061 H         1 UNK         0.0600 
    152 H152       -2.3073  -17.2103  -42.3861 H         1 UNK         0.0600 
    153 H153       -1.4571  -18.5518  -41.6221 H         1 UNK         0.0600 
    154 H154       -0.1357  -17.6410  -43.5802 H         1 UNK         0.3000 
    155 H155        1.6853  -18.3292  -46.6003 H         1 UNK         0.0600 
    156 H156        2.1191  -15.8858  -46.3160 H         1 UNK         0.0600 
    157 H157        0.5318  -16.1868  -46.9987 H         1 UNK         0.0600 
    158 H158        0.6811  -15.7493  -45.3017 H         1 UNK         0.0600 
    159 H159        2.3544  -17.1403  -44.0618 H         1 UNK         0.3000 
    160 H160        3.5747  -20.1399  -42.5409 H         1 UNK         0.0600 
    161 H161        5.5946  -18.7139  -42.3773 H         1 UNK         0.0600 
    162 H162        4.9712  -17.6307  -43.6218 H         1 UNK         0.0600 
    163 H163        5.3982  -19.2892  -44.0251 H         1 UNK         0.0600 
    164 H164        3.4652  -17.4192  -41.6598 H         1 UNK         0.3000 
    165 H165        0.2448  -17.5398  -40.1552 H         1 UNK         0.0600 
    166 H166        1.5464  -16.9679  -38.1313 H         1 UNK         0.0600 
    167 H167        1.7437  -18.6722  -38.5051 H         1 UNK         0.0600 
    168 H168        3.0351  -17.5393  -38.8859 H         1 UNK         0.0600 
    169 H169        2.1843  -15.5068  -40.0817 H         1 UNK         0.3000 
    170 H170        1.7435  -13.5592  -41.1424 H         1 UNK         0.0600 
    171 H171        2.5986  -14.5411  -43.9228 H         1 UNK         0.0600 
    172 H172        3.0383  -12.9860  -43.2214 H         1 UNK         0.0600 
    173 H173        3.6108  -14.4761  -42.4868 H         1 UNK         0.0600 
    174 H174        0.5053  -13.1930  -43.7396 H         1 UNK         0.3000 
    175 H175       -2.7525  -12.5740  -42.6128 H         1 UNK         0.0600 
    176 H176       -0.7795  -10.2578  -42.9989 H         1 UNK         0.0600 
    177 H177       -2.5300  -10.1694  -43.2020 H         1 UNK         0.0600 
    178 H178       -1.8440  -10.4743  -41.6147 H         1 UNK         0.0600 
    179 H179       -1.2362  -11.6912  -44.9230 H         1 UNK         0.3000 
    180 H180       -1.2485  -14.6438  -46.6971 H         1 UNK         0.0600 
    181 H181       -2.7325  -13.6491  -48.4182 H         1 UNK         0.0600 
    182 H182       -3.3992  -12.5321  -47.2272 H         1 UNK         0.0600 
    183 H183       -3.6757  -14.2633  -47.0694 H         1 UNK         0.0600 
    184 H184       -0.9556  -12.1182  -47.8028 H         1 UNK         0.3000 
    185 H185        1.1329  -11.4309  -48.3394 H         1 UNK         0.0600 
    186 H186        1.9324  -10.3370  -45.5796 H         1 UNK         0.0600 
    187 H187        2.2162   -9.5308  -47.1225 H         1 UNK         0.0600 
    188 H188        0.5743   -9.7797  -46.5498 H         1 UNK         0.0600 
    189 H189        3.5159  -11.8363  -46.6957 H         1 UNK         0.3000 
    190 H190       -1.3989  -20.6648  -46.8289 H         1 UNK         0.3000 
    191 H191       -3.1026  -21.3710  -48.9807 H         1 UNK         0.0600 
    192 H192       -3.5489  -19.7698  -46.4163 H         1 UNK         0.0600 
    193 H193       -4.7792  -19.9448  -47.6517 H         1 UNK         0.0600 
    194 H194       -3.2596  -19.1636  -48.0453 H         1 UNK         0.0600 
    195 H195       -3.1375  -22.4422  -45.5614 H         1 UNK         0.3000 
    196 H196       -5.5569  -23.9454  -45.7164 H         1 UNK         0.0600 
    197 H197       -4.5439  -23.2189  -43.5686 H         1 UNK         0.0600 
    198 H198       -3.1628  -24.2802  -43.8340 H         1 UNK         0.0600 
    199 H199       -4.7649  -24.9620  -43.5946 H         1 UNK         0.0600 
    200 H200       -2.1445  -24.8391  -46.3362 H         1 UNK         0.3000 
    201 H201       -2.6675  -27.5930  -47.0246 H         1 UNK         0.0600 
    202 H202       -0.4176  -26.7797  -46.3387 H         1 UNK         0.0600 
    203 H203       -0.3291  -25.7542  -47.7685 H         1 UNK         0.0600 
    204 H204       -0.3559  -27.5041  -47.9394 H         1 UNK         0.0600 
    205 H205       -2.7145  -24.5612  -48.7822 H         1 UNK         0.3000 
    206 H206       -3.5921  -23.8334  -50.6321 H         1 UNK         0.0600 
    207 H207       -4.9620  -26.5610  -50.9582 H         1 UNK         0.0600 
    208 H208       -5.6259  -25.1218  -50.1952 H         1 UNK         0.0600 
    209 H209       -5.2983  -25.1224  -51.9169 H         1 UNK         0.0600 
    210 H210       -3.5077  -26.8696  -52.3293 H         1 UNK         0.3000 
    211 H211       -2.4170  -27.6191  -54.1086 H         1 UNK         0.0600 
    212 H212        0.0660  -26.4958  -52.6884 H         1 UNK         0.0600 
    213 H213        0.0898  -27.6226  -54.0421 H         1 UNK         0.0600 
    214 H214       -0.6178  -28.1038  -52.5105 H         1 UNK         0.0600 
    215 H215        0.0182  -25.1264  -54.1651 H         1 UNK         0.3000 
    216 H216       -0.7578  -24.1057  -56.7437 H         1 UNK         0.0600 
    217 H217        1.1372  -22.5251  -56.3477 H         1 UNK         0.0600 
    218 H218        1.6110  -24.1804  -56.0005 H         1 UNK         0.0600 
    219 H219        1.2588  -23.0670  -54.6780 H         1 UNK         0.0600 
    220 H220       -1.4365  -23.1473  -53.4063 H         1 UNK         0.3000 
    221 H221       -2.7737  -20.6149  -54.2386 H         1 UNK         0.0600 
    222 H222       -2.0995  -21.7400  -51.4696 H         1 UNK         0.0600 
    223 H223       -1.2144  -20.4695  -52.3184 H         1 UNK         0.0600 
    224 H224       -2.8650  -20.1894  -51.7936 H         1 UNK         0.0600 
    225 H225       -4.0743  -22.5157  -55.4292 H         1 UNK         0.3000 
    226 H226       -5.8304  -24.1903  -54.0625 H         1 UNK         0.0600 
    227 H227       -5.2605  -24.4240  -56.4571 H         1 UNK         0.0600 
    228 H228       -7.0040  -24.3397  -56.2665 H         1 UNK         0.0600 
    229 H229       -6.1186  -22.9312  -56.8407 H         1 UNK         0.0600 
    230 H230       -6.2222  -20.7705  -54.7345 H         1 UNK         0.3000 
    231 H231       -9.0629  -20.6316  -54.0914 H         1 UNK         0.0600 
    232 H232       -8.6626  -18.1812  -54.3142 H         1 UNK         0.0600 
    233 H233       -7.9962  -19.0470  -55.6880 H         1 UNK         0.0600 
    234 H234       -6.9276  -18.4526  -54.4164 H         1 UNK         0.0600 
    235 H235       -6.2503  -20.9726  -52.1813 H         1 UNK         0.3000 
    236 H236       -5.6633  -20.7421  -50.0963 H         1 UNK         0.0600 
    237 H237       -8.6280  -20.5106  -49.3778 H         1 UNK         0.0600 
    238 H238       -7.7595  -22.0236  -49.6468 H         1 UNK         0.0600 
    239 H239       -7.3157  -20.9828  -48.3067 H         1 UNK         0.0600 
    240 H240       -5.7857  -18.3599  -51.7236 H         1 UNK         0.3000 
    241 H241       -5.3192  -16.2149  -51.6652 H         1 UNK         0.0600 
    242 H242       -5.5546  -14.1112  -49.5306 H         1 UNK         0.3800 
    243 H243       -7.2699  -13.8471  -49.4451 H         1 UNK         0.3800 
    244 H244       -4.4276  -16.7128  -48.7770 H         1 UNK         0.0800 
    245 H245       -3.9876  -15.3140  -49.7330 H         1 UNK         0.0800 
    246 H246       -1.4327  -15.9129  -49.0980 H         1 UNK         0.0800 
    247 H247       -1.8968  -17.3915  -48.2933 H         1 UNK         0.0800 
@<TRIPOS>BOND
     1    1    2 1    
     2    1  127 1    
     3    1  128 1    
     4    1  129 1    
     5    2    3 2    
     6    2    4 am   BACKBONE|DICT|INTERRES
     7    4    5 1    
     8    4  130 1    
     9    5    6 1    
    10    5   65 1    
    11    5  131 1    
    12    6    7 1    
    13    6  132 1    
    14    6  133 1    
    15    7    8 1    
    16    8    9 1    
    17    8  134 1    
    18    8  135 1    
    19    9   10 ar   
    20    9   14 ar   
    21   10   11 ar   
    22   10  136 1    
    23   11   12 ar   
    24   11  126 1    
    25   12   13 ar   
    26   12  137 1    
    27   13   14 ar   
    28   13   15 1    
    29   14  138 1    
    30   15   16 1    
    31   15  139 1    
    32   15  140 1    
    33   16   17 1    
    34   17   18 1    
    35   17  141 1    
    36   17  142 1    
    37   18   19 1    
    38   18   67 1    
    39   18  143 1    
    40   19   20 am   BACKBONE|DICT|INTERRES
    41   19  144 1    
    42   20   21 2    
    43   20   22 1    
    44   22   23 1    
    45   22   24 1    
    46   22  145 1    
    47   23  146 1    
    48   23  147 1    
    49   23  148 1    
    50   24   25 am   BACKBONE|DICT|INTERRES
    51   24  149 1    
    52   25   26 2    
    53   25   27 1    
    54   27   28 1    
    55   27   29 1    
    56   27  150 1    
    57   28  151 1    
    58   28  152 1    
    59   28  153 1    
    60   29   30 am   BACKBONE|DICT|INTERRES
    61   29  154 1    
    62   30   31 2    
    63   30   32 1    
    64   32   33 1    
    65   32   34 1    
    66   32  155 1    
    67   33  156 1    
    68   33  157 1    
    69   33  158 1    
    70   34   35 am   BACKBONE|DICT|INTERRES
    71   34  159 1    
    72   35   36 2    
    73   35   37 1    
    74   37   38 1    
    75   37   39 1    
    76   37  160 1    
    77   38  161 1    
    78   38  162 1    
    79   38  163 1    
    80   39   40 am   BACKBONE|DICT|INTERRES
    81   39  164 1    
    82   40   41 2    
    83   40   42 1    
    84   42   43 1    
    85   42   44 1    
    86   42  165 1    
    87   43  166 1    
    88   43  167 1    
    89   43  168 1    
    90   44   45 am   BACKBONE|DICT|INTERRES
    91   44  169 1    
    92   45   46 2    
    93   45   47 1    
    94   47   48 1    
    95   47   49 1    
    96   47  170 1    
    97   48  171 1    
    98   48  172 1    
    99   48  173 1    
   100   49   50 am   BACKBONE|DICT|INTERRES
   101   49  174 1    
   102   50   51 2    
   103   50   52 1    
   104   52   53 1    
   105   52   54 1    
   106   52  175 1    
   107   53  176 1    
   108   53  177 1    
   109   53  178 1    
   110   54   55 am   BACKBONE|DICT|INTERRES
   111   54  179 1    
   112   55   56 2    
   113   55   57 1    
   114   57   58 1    
   115   57   59 1    
   116   57  180 1    
   117   58  181 1    
   118   58  182 1    
   119   58  183 1    
   120   59   60 am   BACKBONE|DICT|INTERRES
   121   59  184 1    
   122   60   61 2    
   123   60   62 1    
   124   62   63 1    
   125   62   64 1    
   126   62  185 1    
   127   63  186 1    
   128   63  187 1    
   129   63  188 1    
   130   64   65 am   BACKBONE|DICT|INTERRES
   131   64  189 1    
   132   65   66 2    
   133   67   68 2    
   134   67   69 am   BACKBONE|DICT|INTERRES
   135   69   70 1    
   136   69  190 1    
   137   70   71 1    
   138   70   72 1    
   139   70  191 1    
   140   71  192 1    
   141   71  193 1    
   142   71  194 1    
   143   72   73 2    
   144   72   74 am   BACKBONE|DICT|INTERRES
   145   74   75 1    
   146   74  195 1    
   147   75   76 1    
   148   75   77 1    
   149   75  196 1    
   150   76  197 1    
   151   76  198 1    
   152   76  199 1    
   153   77   78 2    
   154   77   79 am   BACKBONE|DICT|INTERRES
   155   79   80 1    
   156   79  200 1    
   157   80   81 1    
   158   80   82 1    
   159   80  201 1    
   160   81  202 1    
   161   81  203 1    
   162   81  204 1    
   163   82   83 2    
   164   82   84 am   BACKBONE|DICT|INTERRES
   165   84   85 1    
   166   84  205 1    
   167   85   86 1    
   168   85   87 1    
   169   85  206 1    
   170   86  207 1    
   171   86  208 1    
   172   86  209 1    
   173   87   88 2    
   174   87   89 am   BACKBONE|DICT|INTERRES
   175   89   90 1    
   176   89  210 1    
   177   90   91 1    
   178   90   92 1    
   179   90  211 1    
   180   91  212 1    
   181   91  213 1    
   182   91  214 1    
   183   92   93 2    
   184   92   94 am   BACKBONE|DICT|INTERRES
   185   94   95 1    
   186   94  215 1    
   187   95   96 1    
   188   95   97 1    
   189   95  216 1    
   190   96  217 1    
   191   96  218 1    
   192   96  219 1    
   193   97   98 2    
   194   97   99 am   BACKBONE|DICT|INTERRES
   195   99  100 1    
   196   99  220 1    
   197  100  101 1    
   198  100  102 1    
   199  100  221 1    
   200  101  222 1    
   201  101  223 1    
   202  101  224 1    
   203  102  103 2    
   204  102  104 am   BACKBONE|DICT|INTERRES
   205  104  105 1    
   206  104  225 1    
   207  105  106 1    
   208  105  107 1    
   209  105  226 1    
   210  106  227 1    
   211  106  228 1    
   212  106  229 1    
   213  107  108 2    
   214  107  109 am   BACKBONE|DICT|INTERRES
   215  109  110 1    
   216  109  230 1    
   217  110  111 1    
   218  110  112 1    
   219  110  231 1    
   220  111  232 1    
   221  111  233 1    
   222  111  234 1    
   223  112  113 2    
   224  112  114 am   BACKBONE|DICT|INTERRES
   225  114  115 1    
   226  114  235 1    
   227  115  116 1    
   228  115  117 1    
   229  115  236 1    
   230  116  237 1    
   231  116  238 1    
   232  116  239 1    
   233  117  118 2    
   234  117  119 am   BACKBONE|DICT|INTERRES
   235  119  120 1    
   236  119  240 1    
   237  120  121 1    
   238  120  124 1    
   239  120  241 1    
   240  121  122 am   BACKBONE|DICT|INTERRES
   241  121  123 2    
   242  122  242 1    
   243  122  243 1    
   244  124  125 1    
   245  124  244 1    
   246  124  245 1    
   247  125  126 1    
   248  126  246 1    
   249  126  247 1    
@<TRIPOS>SUBSTRUCTURE
     1 UNK         1 GROUP             0       ****    0 ROOT    
