@<TRIPOS>MOLECULE
3R540
247   249    1
SMALL
USER_CHARGES


@<TRIPOS>ATOM
      1 CA          6.5583  -10.4840  -49.0979 C.3       0 UNK        -0.1800 
      2 C           5.4966  -11.5317  -48.7926 C.2       0 UNK         0.5000 
      3 O           4.4488  -11.1853  -48.2486 O.2       0 UNK        -0.5000 
      4 N           5.7844  -12.7961  -49.1388 N.am      1 UNK        -0.5000 
      5 CA          4.9587  -14.0042  -48.9811 C.3       1 UNK         0.1400 
      6 C6          4.0009  -14.2948  -50.1700 C.3       23 UNK        -0.0398 
      7 S7          2.7236  -13.0411  -50.5276 S.3       23 UNK        -0.2404 
      8 C8          1.8112  -13.8680  -51.8680 C.3       23 UNK        -0.0205 
      9 C9          0.8184  -14.8988  -51.3474 C.ar      23 UNK        -0.0193 
     10 C10        -0.4773  -14.5053  -51.0064 C.ar      23 UNK        -0.1150 
     11 C11        -1.4225  -15.4467  -50.5899 C.ar      23 UNK        -0.0193 
     12 C12        -1.0596  -16.7941  -50.4979 C.ar      23 UNK        -0.1150 
     13 C13         0.2391  -17.1995  -50.8212 C.ar      23 UNK        -0.0193 
     14 C14         1.1718  -16.2480  -51.2477 C.ar      23 UNK        -0.1150 
     15 C15         0.6241  -18.6697  -50.7641 C.3       23 UNK        -0.0205 
     16 S16         0.9358  -19.2484  -49.0650 S.3       23 UNK        -0.2404 
     17 C17        -0.6719  -19.9595  -48.5655 C.3       23 UNK        -0.0398 
     18 CA         -0.5021  -21.3509  -47.9032 C.3       11 UNK         0.1400 
     19 N           0.1854  -21.2644  -46.6093 N.am      11 UNK        -0.5000 
     20 C           0.6266  -22.3154  -45.9018 C.2       10 UNK         0.5000 
     21 O           0.5718  -23.4767  -46.3035 O.2       10 UNK        -0.5000 
     22 CA          1.1322  -22.0288  -44.4741 C.3       10 UNK         0.1400 
     23 CB          2.6399  -21.7460  -44.4556 C.3       10 UNK        -0.1800 
     24 N           0.4144  -20.9123  -43.8590 N.am      10 UNK        -0.5000 
     25 C          -0.8764  -20.9481  -43.5048 C.2       9 UNK         0.5000 
     26 O          -1.5631  -21.9676  -43.5813 O.2       9 UNK        -0.5000 
     27 CA         -1.5223  -19.6117  -43.0851 C.3       9 UNK         0.1400 
     28 CB         -2.7252  -19.7874  -42.1359 C.3       9 UNK        -0.1800 
     29 N          -0.5676  -18.6284  -42.5632 N.am      9 UNK        -0.5000 
     30 C           0.1469  -18.7193  -41.4301 C.2       8 UNK         0.5000 
     31 O           0.0704  -19.6645  -40.6450 O.2       8 UNK        -0.5000 
     32 CA          1.1188  -17.5725  -41.1141 C.3       8 UNK         0.1400 
     33 CB          2.5388  -17.9391  -41.5759 C.3       8 UNK        -0.1800 
     34 N           0.6909  -16.3024  -41.7049 N.am      8 UNK        -0.5000 
     35 C           1.0223  -15.0910  -41.2414 C.2       7 UNK         0.5000 
     36 O           1.7857  -14.9004  -40.2931 O.2       7 UNK        -0.5000 
     37 CA          0.3332  -13.8883  -41.9139 C.3       7 UNK         0.1400 
     38 CB          1.0039  -13.5270  -43.2489 C.3       7 UNK        -0.1800 
     39 N          -1.0953  -14.1321  -42.1255 N.am      7 UNK        -0.5000 
     40 C          -2.0170  -14.1551  -41.1522 C.2       6 UNK         0.5000 
     41 O          -1.7599  -13.8932  -39.9765 O.2       6 UNK        -0.5000 
     42 CA         -3.4614  -14.5627  -41.5186 C.3       6 UNK         0.1400 
     43 CB         -4.3685  -13.3280  -41.6872 C.3       6 UNK        -0.1800 
     44 N          -3.5712  -15.4849  -42.6588 N.am      6 UNK        -0.5000 
     45 C          -3.3420  -15.2405  -43.9550 C.2       5 UNK         0.5000 
     46 O          -3.0507  -14.1339  -44.4126 O.2       5 UNK        -0.5000 
     47 CA         -3.3869  -16.4632  -44.8912 C.3       5 UNK         0.1400 
     48 CB         -4.7076  -16.5067  -45.6735 C.3       5 UNK        -0.1800 
     49 N          -2.2699  -16.4672  -45.8380 N.am      5 UNK        -0.5000 
     50 C          -0.9719  -16.4161  -45.5087 C.2       4 UNK         0.5000 
     51 O          -0.5618  -16.4517  -44.3435 O.2       4 UNK        -0.5000 
     52 CA          0.0064  -16.2741  -46.6919 C.3       4 UNK         0.1400 
     53 CB         -0.0606  -14.8496  -47.2640 C.3       4 UNK        -0.1800 
     54 N           1.4026  -16.5842  -46.3774 N.am      4 UNK        -0.5000 
     55 C           1.8627  -17.7389  -45.8732 C.2       3 UNK         0.5000 
     56 O           1.1382  -18.6899  -45.5715 O.2       3 UNK        -0.5000 
     57 CA          3.3913  -17.8923  -45.7115 C.3       3 UNK         0.1400 
     58 CB          3.9471  -18.7798  -46.8376 C.3       3 UNK        -0.1800 
     59 N           4.1336  -16.6319  -45.7238 N.am      3 UNK        -0.5000 
     60 C           4.0617  -15.6550  -44.8093 C.2       2 UNK         0.5000 
     61 O           3.4402  -15.7549  -43.7550 O.2       2 UNK        -0.5000 
     62 CA          4.7844  -14.3279  -45.1359 C.3       2 UNK         0.1400 
     63 CB          6.0395  -14.1692  -44.2640 C.3       2 UNK        -0.1800 
     64 N           5.1627  -14.1582  -46.5457 N.am      2 UNK        -0.5000 
     65 C           4.3147  -14.1605  -47.5853 C.2       1 UNK         0.5000 
     66 O           3.1007  -14.3208  -47.4627 O.2       1 UNK        -0.5000 
     67 C          -1.8629  -22.0806  -47.7968 C.2       11 UNK         0.5000 
     68 O          -2.2647  -22.7560  -48.7455 O.2       11 UNK        -0.5000 
     69 N          -2.5425  -21.9533  -46.6469 N.am      12 UNK        -0.5000 
     70 CA         -3.7776  -22.6789  -46.3460 C.3       12 UNK         0.1400 
     71 CB         -4.5777  -21.9359  -45.2667 C.3       12 UNK        -0.1800 
     72 C          -3.4908  -24.1319  -45.9322 C.2       12 UNK         0.5000 
     73 O          -4.2036  -25.0352  -46.3685 O.2       12 UNK        -0.5000 
     74 N          -2.4293  -24.3395  -45.1384 N.am      13 UNK        -0.5000 
     75 CA         -1.9524  -25.6579  -44.7081 C.3       13 UNK         0.1400 
     76 CB         -0.8243  -25.4872  -43.6807 C.3       13 UNK        -0.1800 
     77 C          -1.4926  -26.5565  -45.8742 C.2       13 UNK         0.5000 
     78 O          -1.6316  -27.7775  -45.7877 O.2       13 UNK        -0.5000 
     79 N          -1.0037  -25.9438  -46.9619 N.am      14 UNK        -0.5000 
     80 CA         -0.6367  -26.5720  -48.2345 C.3       14 UNK         0.1400 
     81 CB          0.2549  -25.5929  -49.0204 C.3       14 UNK        -0.1800 
     82 C          -1.8666  -27.0334  -49.0529 C.2       14 UNK         0.5000 
     83 O          -2.0284  -26.6387  -50.2102 O.2       14 UNK        -0.5000 
     84 N          -2.7350  -27.8369  -48.4193 N.am      15 UNK        -0.5000 
     85 CA         -3.9744  -28.4354  -48.9379 C.3       15 UNK         0.1400 
     86 CB         -3.6340  -29.5222  -49.9783 C.3       15 UNK        -0.1800 
     87 C          -4.9964  -27.4107  -49.4818 C.2       15 UNK         0.5000 
     88 O          -5.8268  -27.7605  -50.3218 O.2       15 UNK        -0.5000 
     89 N          -4.8838  -26.1544  -49.0256 N.am      16 UNK        -0.5000 
     90 CA         -5.5645  -24.9464  -49.5004 C.3       16 UNK         0.1400 
     91 CB         -7.0730  -25.0094  -49.1914 C.3       16 UNK        -0.1800 
     92 C          -5.2862  -24.5825  -50.9764 C.2       16 UNK         0.5000 
     93 O          -5.9278  -23.6701  -51.4956 O.2       16 UNK        -0.5000 
     94 N          -4.3345  -25.2613  -51.6326 N.am      17 UNK        -0.5000 
     95 CA         -4.0271  -25.0878  -53.0519 C.3       17 UNK         0.1400 
     96 CB         -3.1789  -26.2721  -53.5389 C.3       17 UNK        -0.1800 
     97 C          -3.3186  -23.7539  -53.3246 C.2       17 UNK         0.5000 
     98 O          -3.6764  -23.0458  -54.2665 O.2       17 UNK        -0.5000 
     99 N          -2.3534  -23.4130  -52.4626 N.am      18 UNK        -0.5000 
    100 CA        -1.6300  -22.1459  -52.5197 C.3       18 UNK         0.1400 
    101 CB        -0.3269  -22.2799  -51.7219 C.3       18 UNK        -0.1800 
    102 C         -2.4990  -20.9643  -52.0427 C.2       18 UNK         0.5000 
    103 O         -2.3449  -19.8564  -52.5533 O.2       18 UNK        -0.5000 
    104 N         -3.4305  -21.2203  -51.1117 N.am      19 UNK        -0.5000 
    105 CA        -4.4508  -20.2596  -50.6872 C.3       19 UNK         0.1400 
    106 CB        -5.1435  -20.7443  -49.4067 C.3       19 UNK        -0.1800 
    107 C         -5.4780  -19.9657  -51.7950 C.2       19 UNK         0.5000 
    108 O         -5.8529  -18.8086  -51.9691 O.2       19 UNK        -0.5000 
    109 N         -5.8809  -20.9911  -52.5595 N.am      20 UNK        -0.5000 
    110 CA        -6.7331  -20.8467  -53.7433 C.3       20 UNK         0.1400 
    111 CB        -7.1722  -22.2300  -54.2457 C.3       20 UNK        -0.1800 
    112 C         -6.0464  -20.0429  -54.8642 C.2       20 UNK         0.5000 
    113 O         -6.6923  -19.2063  -55.4973 O.2       20 UNK        -0.5000 
    114 N         -4.7335  -20.2557  -55.0403 N.am      21 UNK        -0.5000 
    115 CA        -3.8751  -19.5103  -55.9675 C.3       21 UNK         0.1400 
    116 CB        -2.5063  -20.2013  -56.0635 C.3       21 UNK        -0.1800 
    117 C         -3.7156  -18.0125  -55.6202 C.2       21 UNK         0.5000 
    118 O         -3.3171  -17.2369  -56.4902 O.2       21 UNK        -0.5000 
    119 N         -4.0577  -17.6219  -54.3841 N.am      22 UNK        -0.5000 
    120 CA        -4.2142  -16.2230  -53.9529 C.3       22 UNK         0.1400 
    121 C         -5.4267  -15.4939  -54.6153 C.2       22 UNK         0.5000 
    122 N         -6.4066  -16.1953  -55.1776 N.am      22 UNK        -0.7600 
    123 O         -5.4732  -14.2674  -54.6413 O.2       22 UNK        -0.5000 
    124 C124       -4.2714  -16.1277  -52.4038 C.3       23 UNK        -0.0398 
    125 S125       -3.7665  -14.5081  -51.7312 S.3       23 UNK        -0.2404 
    126 C126       -2.8319  -14.9935  -50.2450 C.3       23 UNK        -0.0205 
    127 H127        7.4359  -10.9200  -49.5758 H         1 UNK         0.0600 
    128 H128        6.8799   -9.9964  -48.1776 H         1 UNK         0.0600 
    129 H129        6.1524   -9.7227  -49.7642 H         1 UNK         0.0600 
    130 H130        6.6824  -12.9651  -49.5703 H         1 UNK         0.3000 
    131 H131        5.6876  -14.8158  -49.0135 H         1 UNK         0.0600 
    132 H132        3.5075  -15.2537  -50.0086 H         1 UNK         0.0800 
    133 H133        4.5942  -14.4221  -51.0762 H         1 UNK         0.0800 
    134 H134        2.5124  -14.3305  -52.5643 H         1 UNK         0.0800 
    135 H135        1.2773  -13.1093  -52.4422 H         1 UNK         0.0800 
    136 H136       -0.7589  -13.4644  -51.0841 H         1 UNK         0.1150 
    137 H137       -1.7870  -17.5301  -50.1868 H         1 UNK         0.1150 
    138 H138        2.1692  -16.5611  -51.5216 H         1 UNK         0.1150 
    139 H139       -0.1571  -19.2586  -51.2377 H         1 UNK         0.0800 
    140 H140        1.5252  -18.8434  -51.3541 H         1 UNK         0.0800 
    141 H141       -1.3154  -20.0297  -49.4424 H         1 UNK         0.0800 
    142 H142       -1.1661  -19.2662  -47.8835 H         1 UNK         0.0800 
    143 H143        0.1276  -21.9630  -48.5510 H         1 UNK         0.0600 
    144 H144        0.3447  -20.3324  -46.2359 H         1 UNK         0.3000 
    145 H145        0.9525  -22.9201  -43.8711 H         1 UNK         0.0600 
    146 H146        3.0080  -21.6491  -43.4341 H         1 UNK         0.0600 
    147 H147        3.1966  -22.5565  -44.9277 H         1 UNK         0.0600 
    148 H148        2.8826  -20.8269  -44.9842 H         1 UNK         0.0600 
    149 H149        0.8767  -20.0125  -43.8766 H         1 UNK         0.3000 
    150 H150       -1.9017  -19.1840  -44.0128 H         1 UNK         0.0600 
    151 H151       -3.5204  -20.3618  -42.6105 H         1 UNK         0.0600 
    152 H152       -3.1490  -18.8243  -41.8523 H         1 UNK         0.0600 
    153 H153       -2.4477  -20.3137  -41.2225 H         1 UNK         0.0600 
    154 H154       -0.4066  -17.8382  -43.1832 H         1 UNK         0.3000 
    155 H155        1.1263  -17.4608  -40.0277 H         1 UNK         0.0600 
    156 H156        2.5777  -18.0755  -42.6557 H         1 UNK         0.0600 
    157 H157        2.8741  -18.8689  -41.1149 H         1 UNK         0.0600 
    158 H158        3.2586  -17.1657  -41.3082 H         1 UNK         0.0600 
    159 H159        0.0846  -16.3468  -42.5170 H         1 UNK         0.3000 
    160 H160        0.4366  -13.0290  -41.2478 H         1 UNK         0.0600 
    161 H161        0.5305  -12.6592  -43.7082 H         1 UNK         0.0600 
    162 H162        2.0561  -13.2833  -43.0983 H         1 UNK         0.0600 
    163 H163        0.9620  -14.3487  -43.9633 H         1 UNK         0.0600 
    164 H164       -1.3938  -14.3336  -43.0720 H         1 UNK         0.3000 
    165 H165       -3.8410  -15.1232  -40.6628 H         1 UNK         0.0600 
    166 H166       -4.0206  -12.6679  -42.4819 H         1 UNK         0.0600 
    167 H167       -5.3940  -13.6187  -41.9147 H         1 UNK         0.0600 
    168 H168       -4.3937  -12.7395  -40.7693 H         1 UNK         0.0600 
    169 H169       -3.7858  -16.4365  -42.3964 H         1 UNK         0.3000 
    170 H170       -3.3168  -17.3693  -44.2887 H         1 UNK         0.0600 
    171 H171       -4.8204  -15.6357  -46.3204 H         1 UNK         0.0600 
    172 H172       -4.7692  -17.3993  -46.2966 H         1 UNK         0.0600 
    173 H173       -5.5623  -16.5250  -44.9961 H         1 UNK         0.0600 
    174 H174       -2.5227  -16.3929  -46.8114 H         1 UNK         0.3000 
    175 H175       -0.3108  -16.9707  -47.4686 H         1 UNK         0.0600 
    176 H176        0.3128  -14.1139  -46.5505 H         1 UNK         0.0600 
    177 H177        0.5347  -14.7654  -48.1736 H         1 UNK         0.0600 
    178 H178       -1.0807  -14.5662  -47.5248 H         1 UNK         0.0600 
    179 H179        2.0724  -15.8579  -46.6069 H         1 UNK         0.3000 
    180 H180        3.5741  -18.3876  -44.7571 H         1 UNK         0.0600 
    181 H181        4.9939  -19.0293  -46.6640 H         1 UNK         0.0600 
    182 H182        3.8744  -18.2859  -47.8076 H         1 UNK         0.0600 
    183 H183        3.3985  -19.7185  -46.9185 H         1 UNK         0.0600 
    184 H184        4.6820  -16.4502  -46.5500 H         1 UNK         0.3000 
    185 H185        4.0913  -13.5220  -44.8863 H         1 UNK         0.0600 
    186 H186        5.7935  -14.2529  -43.2045 H         1 UNK         0.0600 
    187 H187        6.7840  -14.9338  -44.4894 H         1 UNK         0.0600 
    188 H188        6.5025  -13.1933  -44.4112 H         1 UNK         0.0600 
    189 H189        6.1453  -14.0139  -46.7292 H         1 UNK         0.3000 
    190 H190       -2.1333  -21.4223  -45.8936 H         1 UNK         0.3000 
    191 H191       -4.3950  -22.7080  -47.2442 H         1 UNK         0.0600 
    192 H192       -5.5496  -22.4072  -45.1156 H         1 UNK         0.0600 
    193 H193       -4.7600  -20.8993  -45.5510 H         1 UNK         0.0600 
    194 H194       -4.0660  -21.9383  -44.3057 H         1 UNK         0.0600 
    195 H195       -1.9366  -23.5346  -44.7662 H         1 UNK         0.3000 
    196 H196       -2.7868  -26.1605  -44.2149 H         1 UNK         0.0600 
    197 H197        0.0725  -25.0688  -44.1361 H         1 UNK         0.0600 
    198 H198       -1.1256  -24.8332  -42.8620 H         1 UNK         0.0600 
    199 H199       -0.5483  -26.4485  -43.2460 H         1 UNK         0.0600 
    200 H200       -0.8642  -24.9419  -46.9071 H         1 UNK         0.3000 
    201 H201       -0.0444  -27.4631  -48.0184 H         1 UNK         0.0600 
    202 H202        0.5958  -26.0352  -49.9573 H         1 UNK         0.0600 
    203 H203       -0.2779  -24.6732  -49.2644 H         1 UNK         0.0600 
    204 H204        1.1426  -25.3220  -48.4486 H         1 UNK         0.0600 
    205 H205       -2.5131  -28.0598  -47.4523 H         1 UNK         0.3000 
    206 H206       -4.4568  -28.9231  -48.0899 H         1 UNK         0.0600 
    207 H207       -2.9232  -30.2442  -49.5763 H         1 UNK         0.0600 
    208 H208       -4.5243  -30.0783  -50.2740 H         1 UNK         0.0600 
    209 H209       -3.2006  -29.0925  -50.8822 H         1 UNK         0.0600 
    210 H210       -4.2119  -25.9898  -48.2849 H         1 UNK         0.3000 
    211 H211       -5.1448  -24.1276  -48.9179 H         1 UNK         0.0600 
    212 H212       -7.5580  -24.0566  -49.4069 H         1 UNK         0.0600 
    213 H213       -7.2491  -25.2298  -48.1385 H         1 UNK         0.0600 
    214 H214       -7.5767  -25.7729  -49.7845 H         1 UNK         0.0600 
    215 H215       -3.7853  -25.9478  -51.1271 H         1 UNK         0.3000 
    216 H216       -4.9659  -25.0892  -53.6099 H         1 UNK         0.0600 
    217 H217       -2.2282  -26.3349  -53.0080 H         1 UNK         0.0600 
    218 H218       -2.9567  -26.1816  -54.6029 H         1 UNK         0.0600 
    219 H219       -3.7039  -27.2167  -53.3946 H         1 UNK         0.0600 
    220 H220       -2.1306  -24.0427  -51.7042 H         1 UNK         0.3000 
    221 H221       -1.3589  -21.9538  -53.5599 H         1 UNK         0.0600 
    222 H222        0.2720  -23.1134  -52.0893 H         1 UNK         0.0600 
    223 H223       -0.5192  -22.4547  -50.6669 H         1 UNK         0.0600 
    224 H224        0.2882  -21.3863  -51.8111 H         1 UNK         0.0600 
    225 H225       -3.4628  -22.1423  -50.6997 H         1 UNK         0.3000 
    226 H226       -3.9490  -19.3177  -50.4544 H         1 UNK         0.0600 
    227 H227       -5.5690  -21.7402  -49.5247 H         1 UNK         0.0600 
    228 H228       -4.4441  -20.7650  -48.5733 H         1 UNK         0.0600 
    229 H229       -5.9552  -20.0729  -49.1229 H         1 UNK         0.0600 
    230 H230       -5.6083  -21.9366  -52.3079 H         1 UNK         0.3000 
    231 H231       -7.6287  -20.2977  -53.4449 H         1 UNK         0.0600 
    232 H232       -6.3210  -22.8455  -54.5358 H         1 UNK         0.0600 
    233 H233       -7.8241  -22.1403  -55.1154 H         1 UNK         0.0600 
    234 H234       -7.7273  -22.7690  -53.4778 H         1 UNK         0.0600 
    235 H235       -4.2910  -20.9962  -54.5084 H         1 UNK         0.3000 
    236 H236       -4.3436  -19.5602  -56.9525 H         1 UNK         0.0600 
    237 H237       -1.9557  -20.1384  -55.1262 H         1 UNK         0.0600 
    238 H238       -2.6102  -21.2549  -56.3239 H         1 UNK         0.0600 
    239 H239       -1.8896  -19.7357  -56.8331 H         1 UNK         0.0600 
    240 H240       -4.3692  -18.3255  -53.7286 H         1 UNK         0.3000 
    241 H241       -3.3168  -15.6974  -54.2848 H         1 UNK         0.0600 
    242 H242       -7.1752  -15.7060  -55.6080 H         1 UNK         0.3800 
    243 H243       -6.3929  -17.2089  -55.1917 H         1 UNK         0.3800 
    244 H244       -3.6239  -16.8904  -51.9691 H         1 UNK         0.0800 
    245 H245       -5.2752  -16.3439  -52.0368 H         1 UNK         0.0800 
    246 H246       -3.3756  -15.7692  -49.7034 H         1 UNK         0.0800 
    247 H247       -2.7736  -14.1362  -49.5728 H         1 UNK         0.0800 
@<TRIPOS>BOND
     1    1    2 1    
     2    1  127 1    
     3    1  128 1    
     4    1  129 1    
     5    2    3 2    
     6    2    4 am   BACKBONE|DICT|INTERRES
     7    4    5 1    
     8    4  130 1    
     9    5    6 1    
    10    5   65 1    
    11    5  131 1    
    12    6    7 1    
    13    6  132 1    
    14    6  133 1    
    15    7    8 1    
    16    8    9 1    
    17    8  134 1    
    18    8  135 1    
    19    9   10 ar   
    20    9   14 ar   
    21   10   11 ar   
    22   10  136 1    
    23   11   12 ar   
    24   11  126 1    
    25   12   13 ar   
    26   12  137 1    
    27   13   14 ar   
    28   13   15 1    
    29   14  138 1    
    30   15   16 1    
    31   15  139 1    
    32   15  140 1    
    33   16   17 1    
    34   17   18 1    
    35   17  141 1    
    36   17  142 1    
    37   18   19 1    
    38   18   67 1    
    39   18  143 1    
    40   19   20 am   BACKBONE|DICT|INTERRES
    41   19  144 1    
    42   20   21 2    
    43   20   22 1    
    44   22   23 1    
    45   22   24 1    
    46   22  145 1    
    47   23  146 1    
    48   23  147 1    
    49   23  148 1    
    50   24   25 am   BACKBONE|DICT|INTERRES
    51   24  149 1    
    52   25   26 2    
    53   25   27 1    
    54   27   28 1    
    55   27   29 1    
    56   27  150 1    
    57   28  151 1    
    58   28  152 1    
    59   28  153 1    
    60   29   30 am   BACKBONE|DICT|INTERRES
    61   29  154 1    
    62   30   31 2    
    63   30   32 1    
    64   32   33 1    
    65   32   34 1    
    66   32  155 1    
    67   33  156 1    
    68   33  157 1    
    69   33  158 1    
    70   34   35 am   BACKBONE|DICT|INTERRES
    71   34  159 1    
    72   35   36 2    
    73   35   37 1    
    74   37   38 1    
    75   37   39 1    
    76   37  160 1    
    77   38  161 1    
    78   38  162 1    
    79   38  163 1    
    80   39   40 am   BACKBONE|DICT|INTERRES
    81   39  164 1    
    82   40   41 2    
    83   40   42 1    
    84   42   43 1    
    85   42   44 1    
    86   42  165 1    
    87   43  166 1    
    88   43  167 1    
    89   43  168 1    
    90   44   45 am   BACKBONE|DICT|INTERRES
    91   44  169 1    
    92   45   46 2    
    93   45   47 1    
    94   47   48 1    
    95   47   49 1    
    96   47  170 1    
    97   48  171 1    
    98   48  172 1    
    99   48  173 1    
   100   49   50 am   BACKBONE|DICT|INTERRES
   101   49  174 1    
   102   50   51 2    
   103   50   52 1    
   104   52   53 1    
   105   52   54 1    
   106   52  175 1    
   107   53  176 1    
   108   53  177 1    
   109   53  178 1    
   110   54   55 am   BACKBONE|DICT|INTERRES
   111   54  179 1    
   112   55   56 2    
   113   55   57 1    
   114   57   58 1    
   115   57   59 1    
   116   57  180 1    
   117   58  181 1    
   118   58  182 1    
   119   58  183 1    
   120   59   60 am   BACKBONE|DICT|INTERRES
   121   59  184 1    
   122   60   61 2    
   123   60   62 1    
   124   62   63 1    
   125   62   64 1    
   126   62  185 1    
   127   63  186 1    
   128   63  187 1    
   129   63  188 1    
   130   64   65 am   BACKBONE|DICT|INTERRES
   131   64  189 1    
   132   65   66 2    
   133   67   68 2    
   134   67   69 am   BACKBONE|DICT|INTERRES
   135   69   70 1    
   136   69  190 1    
   137   70   71 1    
   138   70   72 1    
   139   70  191 1    
   140   71  192 1    
   141   71  193 1    
   142   71  194 1    
   143   72   73 2    
   144   72   74 am   BACKBONE|DICT|INTERRES
   145   74   75 1    
   146   74  195 1    
   147   75   76 1    
   148   75   77 1    
   149   75  196 1    
   150   76  197 1    
   151   76  198 1    
   152   76  199 1    
   153   77   78 2    
   154   77   79 am   BACKBONE|DICT|INTERRES
   155   79   80 1    
   156   79  200 1    
   157   80   81 1    
   158   80   82 1    
   159   80  201 1    
   160   81  202 1    
   161   81  203 1    
   162   81  204 1    
   163   82   83 2    
   164   82   84 am   BACKBONE|DICT|INTERRES
   165   84   85 1    
   166   84  205 1    
   167   85   86 1    
   168   85   87 1    
   169   85  206 1    
   170   86  207 1    
   171   86  208 1    
   172   86  209 1    
   173   87   88 2    
   174   87   89 am   BACKBONE|DICT|INTERRES
   175   89   90 1    
   176   89  210 1    
   177   90   91 1    
   178   90   92 1    
   179   90  211 1    
   180   91  212 1    
   181   91  213 1    
   182   91  214 1    
   183   92   93 2    
   184   92   94 am   BACKBONE|DICT|INTERRES
   185   94   95 1    
   186   94  215 1    
   187   95   96 1    
   188   95   97 1    
   189   95  216 1    
   190   96  217 1    
   191   96  218 1    
   192   96  219 1    
   193   97   98 2    
   194   97   99 am   BACKBONE|DICT|INTERRES
   195   99  100 1    
   196   99  220 1    
   197  100  101 1    
   198  100  102 1    
   199  100  221 1    
   200  101  222 1    
   201  101  223 1    
   202  101  224 1    
   203  102  103 2    
   204  102  104 am   BACKBONE|DICT|INTERRES
   205  104  105 1    
   206  104  225 1    
   207  105  106 1    
   208  105  107 1    
   209  105  226 1    
   210  106  227 1    
   211  106  228 1    
   212  106  229 1    
   213  107  108 2    
   214  107  109 am   BACKBONE|DICT|INTERRES
   215  109  110 1    
   216  109  230 1    
   217  110  111 1    
   218  110  112 1    
   219  110  231 1    
   220  111  232 1    
   221  111  233 1    
   222  111  234 1    
   223  112  113 2    
   224  112  114 am   BACKBONE|DICT|INTERRES
   225  114  115 1    
   226  114  235 1    
   227  115  116 1    
   228  115  117 1    
   229  115  236 1    
   230  116  237 1    
   231  116  238 1    
   232  116  239 1    
   233  117  118 2    
   234  117  119 am   BACKBONE|DICT|INTERRES
   235  119  120 1    
   236  119  240 1    
   237  120  121 1    
   238  120  124 1    
   239  120  241 1    
   240  121  122 am   BACKBONE|DICT|INTERRES
   241  121  123 2    
   242  122  242 1    
   243  122  243 1    
   244  124  125 1    
   245  124  244 1    
   246  124  245 1    
   247  125  126 1    
   248  126  246 1    
   249  126  247 1    
@<TRIPOS>SUBSTRUCTURE
     1 UNK         1 GROUP             0       ****    0 ROOT    
