@<TRIPOS>MOLECULE
3R540
247   249    1
SMALL
USER_CHARGES


@<TRIPOS>ATOM
      1 CA          1.7351   -9.4474  -48.9781 C.3       0 UNK        -0.1800 
      2 C           2.3413  -10.3569  -47.9192 C.2       0 UNK         0.5000 
      3 O           3.3170   -9.9790  -47.2702 O.2       0 UNK        -0.5000 
      4 N           1.7613  -11.5500  -47.7320 N.am      1 UNK        -0.5000 
      5 CA          2.2280  -12.5700  -46.7819 C.3       1 UNK         0.1400 
      6 C6          1.6078  -13.9616  -47.0515 C.3       23 UNK        -0.0398 
      7 S7          1.9341  -14.6083  -48.7238 S.3       23 UNK        -0.2404 
      8 C8          0.2476  -14.9566  -49.3138 C.3       23 UNK        -0.0205 
      9 C9          0.2506  -16.1101  -50.3017 C.ar      23 UNK        -0.0193 
     10 C10         0.5365  -15.8843  -51.6510 C.ar      23 UNK        -0.1150 
     11 C11         0.5490  -16.9470  -52.5586 C.ar      23 UNK        -0.0193 
     12 C12         0.2739  -18.2414  -52.1077 C.ar      23 UNK        -0.1150 
     13 C13        -0.0173  -18.4785  -50.7610 C.ar      23 UNK        -0.0193 
     14 C14        -0.0303  -17.4078  -49.8629 C.ar      23 UNK        -0.1150 
     15 C15        -0.3294  -19.8889  -50.2855 C.3       23 UNK        -0.0205 
     16 S16         1.1372  -20.7005  -49.5716 S.3       23 UNK        -0.2404 
     17 C17         0.9002  -20.4141  -47.7824 C.3       23 UNK        -0.0398 
     18 CA          0.3046  -21.6523  -47.0678 C.3       11 UNK         0.1400 
     19 N           0.5647  -21.6482  -45.6264 N.am      11 UNK        -0.5000 
     20 C           0.3229  -22.6848  -44.8102 C.2       10 UNK         0.5000 
     21 O          -0.1000  -23.7744  -45.1964 O.2       10 UNK        -0.5000 
     22 CA          0.5381  -22.4523  -43.3040 C.3       10 UNK         0.1400 
     23 CB          2.0260  -22.5590  -42.9401 C.3       10 UNK        -0.1800 
     24 N           0.0012  -21.1678  -42.8507 N.am      10 UNK        -0.5000 
     25 C          -1.2978  -20.8368  -42.8987 C.2       9 UNK         0.5000 
     26 O          -2.1820  -21.5981  -43.2893 O.2       9 UNK        -0.5000 
     27 CA         -1.6728  -19.4038  -42.4850 C.3       9 UNK         0.1400 
     28 CB         -1.7485  -19.2796  -40.9562 C.3       9 UNK        -0.1800 
     29 N          -0.7508  -18.4006  -43.0147 N.am      9 UNK        -0.5000 
     30 C          -0.5460  -18.1529  -44.3169 C.2       8 UNK         0.5000 
     31 O          -1.1343  -18.7306  -45.2311 O.2       8 UNK        -0.5000 
     32 CA          0.5507  -17.1248  -44.6485 C.3       8 UNK         0.1400 
     33 CB          0.0652  -15.6973  -44.3460 C.3       8 UNK        -0.1800 
     34 N           1.7881  -17.3981  -43.9144 N.am      8 UNK        -0.5000 
     35 C           2.5004  -18.5309  -44.0153 C.2       7 UNK         0.5000 
     36 O           2.2335  -19.4405  -44.8002 O.2       7 UNK        -0.5000 
     37 CA          3.6722  -18.7030  -43.0352 C.3       7 UNK         0.1400 
     38 CB          4.9549  -18.0662  -43.5915 C.3       7 UNK        -0.1800 
     39 N           3.3602  -18.1387  -41.7221 N.am      7 UNK        -0.5000 
     40 C           2.5189  -18.6997  -40.8417 C.2       6 UNK         0.5000 
     41 O           1.9554  -19.7777  -41.0306 O.2       6 UNK        -0.5000 
     42 CA          2.2261  -17.9046  -39.5542 C.3       6 UNK         0.1400 
     43 CB          3.3204  -18.1509  -38.5051 C.3       6 UNK        -0.1800 
     44 N           2.0981  -16.4657  -39.7937 N.am      6 UNK        -0.5000 
     45 C           1.1100  -15.9059  -40.5053 C.2       5 UNK         0.5000 
     46 O           0.1689  -16.5441  -40.9755 O.2       5 UNK        -0.5000 
     47 CA          1.2081  -14.3916  -40.7833 C.3       5 UNK         0.1400 
     48 CB          0.4518  -13.5968  -39.7094 C.3       5 UNK        -0.1800 
     49 N           2.5732  -13.8657  -40.8988 N.am      5 UNK        -0.5000 
     50 C           3.5146  -14.3181  -41.7387 C.2       4 UNK         0.5000 
     51 O           3.3651  -15.3063  -42.4584 O.2       4 UNK        -0.5000 
     52 CA          4.8089  -13.4947  -41.8053 C.3       4 UNK         0.1400 
     53 CB          5.8926  -14.1474  -42.6826 C.3       4 UNK        -0.1800 
     54 N           4.4666  -12.1889  -42.3536 N.am      4 UNK        -0.5000 
     55 C           4.8580  -11.0017  -41.8757 C.2       3 UNK         0.5000 
     56 O           5.6261  -10.8713  -40.9218 O.2       3 UNK        -0.5000 
     57 CA          4.2928   -9.7407  -42.5675 C.3       3 UNK         0.1400 
     58 CB          5.3310   -9.1485  -43.5329 C.3       3 UNK        -0.1800 
     59 N           3.0500   -9.9812  -43.3053 N.am      3 UNK        -0.5000 
     60 C           1.8764  -10.3165  -42.7510 C.2       2 UNK         0.5000 
     61 O           1.6843  -10.3520  -41.5352 O.2       2 UNK        -0.5000 
     62 CA          0.7325  -10.7166  -43.7075 C.3       2 UNK         0.1400 
     63 CB         -0.2571   -9.5535  -43.8737 C.3       2 UNK        -0.1800 
     64 N           1.1538  -11.1714  -45.0395 N.am      2 UNK        -0.5000 
     65 C           1.9912  -12.1863  -45.3044 C.2       1 UNK         0.5000 
     66 O           2.5719  -12.8234  -44.4288 O.2       1 UNK        -0.5000 
     67 C          -1.1979  -21.8204  -47.3720 C.2       11 UNK         0.5000 
     68 O          -1.5533  -22.6429  -48.2150 O.2       11 UNK        -0.5000 
     69 N          -2.0545  -21.0743  -46.6594 N.am      12 UNK        -0.5000 
     70 CA         -3.5115  -21.1580  -46.7718 C.3       12 UNK         0.1400 
     71 CB         -4.1624  -20.0599  -45.9183 C.3       12 UNK        -0.1800 
     72 C          -4.0616  -22.5466  -46.3979 C.2       12 UNK         0.5000 
     73 O          -4.9185  -23.0682  -47.1114 O.2       12 UNK        -0.5000 
     74 N          -3.5301  -23.1389  -45.3197 N.am      13 UNK        -0.5000 
     75 CA         -3.8519  -24.4944  -44.8729 C.3       13 UNK         0.1400 
     76 CB         -3.2312  -24.7412  -43.4896 C.3       13 UNK        -0.1800 
     77 C          -3.4063  -25.5782  -45.8722 C.2       13 UNK         0.5000 
     78 O          -4.1463  -26.5382  -46.0875 O.2       13 UNK        -0.5000 
     79 N          -2.2217  -25.4000  -46.4743 N.am      14 UNK        -0.5000 
     80 CA         -1.6786  -26.2809  -47.5092 C.3       14 UNK         0.1400 
     81 CB         -0.1930  -25.9592  -47.7339 C.3       14 UNK        -0.1800 
     82 C          -2.4642  -26.1958  -48.8309 C.2       14 UNK         0.5000 
     83 O          -2.7284  -27.2299  -49.4458 O.2       14 UNK        -0.5000 
     84 N          -2.8300  -24.9717  -49.2364 N.am      15 UNK        -0.5000 
     85 CA         -3.6407  -24.6898  -50.4212 C.3       15 UNK         0.1400 
     86 CB         -3.6112  -23.1805  -50.7076 C.3       15 UNK        -0.1800 
     87 C          -5.0916  -25.1818  -50.2779 C.2       15 UNK         0.5000 
     88 O          -5.6603  -25.6877  -51.2462 O.2       15 UNK        -0.5000 
     89 N          -5.6667  -25.0019  -49.0783 N.am      16 UNK        -0.5000 
     90 CA         -6.9949  -25.4475  -48.6347 C.3       16 UNK         0.1400 
     91 CB         -7.0290  -26.9870  -48.5463 C.3       16 UNK        -0.1800 
     92 C          -8.1731  -24.8901  -49.4658 C.2       16 UNK         0.5000 
     93 O          -9.2717  -25.4453  -49.4125 O.2       16 UNK        -0.5000 
     94 N          -7.9155  -23.8221  -50.2376 N.am      17 UNK        -0.5000 
     95 CA         -8.7849  -23.2184  -51.2545 C.3       17 UNK         0.1400 
     96 CB        -10.0190  -22.5617  -50.6020 C.3       17 UNK        -0.1800 
     97 C          -9.1613  -24.1865  -52.4016 C.2       17 UNK         0.5000 
     98 O         -10.1729  -23.9748  -53.0735 O.2       17 UNK        -0.5000 
     99 N          -8.3416  -25.2238  -52.6314 N.am      18 UNK        -0.5000 
    100 CA        -8.5725  -26.2939  -53.6048 C.3       18 UNK         0.1400 
    101 CB        -7.8373  -27.5590  -53.1264 C.3       18 UNK        -0.1800 
    102 C         -8.1716  -25.8730  -55.0341 C.2       18 UNK         0.5000 
    103 O         -7.3258  -26.5172  -55.6572 O.2       18 UNK        -0.5000 
    104 N         -8.7752  -24.7748  -55.5121 N.am      19 UNK        -0.5000 
    105 CA        -8.5585  -24.1236  -56.8120 C.3       19 UNK         0.1400 
    106 CB        -9.0351  -25.0317  -57.9651 C.3       19 UNK        -0.1800 
    107 C         -7.1153  -23.6063  -57.0121 C.2       19 UNK         0.5000 
    108 O         -6.6368  -23.5251  -58.1454 O.2       19 UNK        -0.5000 
    109 N         -6.4465  -23.2668  -55.9025 N.am      20 UNK        -0.5000 
    110 CA        -5.0917  -22.7220  -55.8668 C.3       20 UNK         0.1400 
    111 CB        -4.5706  -22.8089  -54.4239 C.3       20 UNK        -0.1800 
    112 C         -5.0445  -21.2681  -56.3725 C.2       20 UNK         0.5000 
    113 O         -6.0192  -20.5272  -56.2175 O.2       20 UNK        -0.5000 
    114 N         -3.8963  -20.8798  -56.9322 N.am      21 UNK        -0.5000 
    115 CA        -3.5961  -19.5369  -57.4155 C.3       21 UNK         0.1400 
    116 CB        -4.1789  -19.3420  -58.8272 C.3       21 UNK        -0.1800 
    117 C         -2.0730  -19.3472  -57.4126 C.2       21 UNK         0.5000 
    118 O         -1.3326  -20.3349  -57.4399 O.2       21 UNK        -0.5000 
    119 N         -1.6356  -18.0845  -57.3877 N.am      22 UNK        -0.5000 
    120 CA        -0.2151  -17.6901  -57.3679 C.3       22 UNK         0.1400 
    121 C          0.4817  -17.7106  -58.7611 C.2       22 UNK         0.5000 
    122 N         -0.2261  -17.9368  -59.8612 N.am      22 UNK        -0.7600 
    123 O          1.6930  -17.5267  -58.8453 O.2       22 UNK        -0.5000 
    124 C124       -0.0089  -16.3231  -56.6644 C.3       23 UNK        -0.0398 
    125 S125       -0.6514  -16.3109  -54.9559 S.3       23 UNK        -0.2404 
    126 C126        0.8608  -16.7000  -54.0251 C.3       23 UNK        -0.0205 
    127 H127        1.4042   -8.5128  -48.5252 H         1 UNK         0.0600 
    128 H128        2.4777   -9.2138  -49.7409 H         1 UNK         0.0600 
    129 H129        0.8783   -9.9104  -49.4683 H         1 UNK         0.0600 
    130 H130        0.9701  -11.8117  -48.3025 H         1 UNK         0.3000 
    131 H131        3.3092  -12.6622  -46.9063 H         1 UNK         0.0600 
    132 H132        2.0230  -14.6964  -46.3596 H         1 UNK         0.0800 
    133 H133        0.5339  -13.9352  -46.8617 H         1 UNK         0.0800 
    134 H134       -0.4069  -15.2038  -48.4768 H         1 UNK         0.0800 
    135 H135       -0.1686  -14.0610  -49.7774 H         1 UNK         0.0800 
    136 H136        0.7520  -14.8817  -51.9935 H         1 UNK         0.1150 
    137 H137        0.2824  -19.0648  -52.8083 H         1 UNK         0.1150 
    138 H138       -0.2546  -17.5837  -48.8206 H         1 UNK         0.1150 
    139 H139       -1.1497  -19.8681  -49.5671 H         1 UNK         0.0800 
    140 H140       -0.6843  -20.4933  -51.1218 H         1 UNK         0.0800 
    141 H141        0.3037  -19.5189  -47.6022 H         1 UNK         0.0800 
    142 H142        1.8876  -20.1962  -47.3738 H         1 UNK         0.0800 
    143 H143        0.8112  -22.5370  -47.4602 H         1 UNK         0.0600 
    144 H144        0.9551  -20.7947  -45.2357 H         1 UNK         0.3000 
    145 H145        0.0040  -23.2400  -42.7687 H         1 UNK         0.0600 
    146 H146        2.1781  -22.4561  -41.8656 H         1 UNK         0.0600 
    147 H147        2.4298  -23.5286  -43.2342 H         1 UNK         0.0600 
    148 H148        2.6195  -21.7930  -43.4381 H         1 UNK         0.0600 
    149 H149        0.6649  -20.5048  -42.4653 H         1 UNK         0.3000 
    150 H150       -2.6629  -19.1896  -42.8919 H         1 UNK         0.0600 
    151 H151       -2.4413  -20.0110  -40.5380 H         1 UNK         0.0600 
    152 H152       -2.0999  -18.2914  -40.6588 H         1 UNK         0.0600 
    153 H153       -0.7764  -19.4419  -40.4897 H         1 UNK         0.0600 
    154 H154       -0.2498  -17.8431  -42.3280 H         1 UNK         0.3000 
    155 H155        0.7797  -17.1940  -45.7141 H         1 UNK         0.0600 
    156 H156       -0.6676  -15.3757  -45.0865 H         1 UNK         0.0600 
    157 H157        0.8856  -14.9818  -44.3567 H         1 UNK         0.0600 
    158 H158       -0.4142  -15.6240  -43.3706 H         1 UNK         0.0600 
    159 H159        2.1192  -16.6824  -43.2757 H         1 UNK         0.3000 
    160 H160        3.8563  -19.7722  -42.9137 H         1 UNK         0.0600 
    161 H161        5.7876  -18.1839  -42.8980 H         1 UNK         0.0600 
    162 H162        4.8310  -17.0018  -43.7900 H         1 UNK         0.0600 
    163 H163        5.2442  -18.5392  -44.5306 H         1 UNK         0.0600 
    164 H164        3.6984  -17.2011  -41.5479 H         1 UNK         0.3000 
    165 H165        1.2786  -18.2667  -39.1494 H         1 UNK         0.0600 
    166 H166        3.0822  -17.6560  -37.5634 H         1 UNK         0.0600 
    167 H167        3.4251  -19.2160  -38.2940 H         1 UNK         0.0600 
    168 H168        4.2917  -17.7856  -38.8410 H         1 UNK         0.0600 
    169 H169        2.8351  -15.8724  -39.4426 H         1 UNK         0.3000 
    170 H170        0.7194  -14.2090  -41.7418 H         1 UNK         0.0600 
    171 H171       -0.5782  -13.9444  -39.6178 H         1 UNK         0.0600 
    172 H172        0.9214  -13.6969  -38.7302 H         1 UNK         0.0600 
    173 H173        0.4139  -12.5358  -39.9579 H         1 UNK         0.0600 
    174 H174        2.7722  -13.0294  -40.3686 H         1 UNK         0.3000 
    175 H175        5.1909  -13.4017  -40.7867 H         1 UNK         0.0600 
    176 H176        6.8034  -13.5486  -42.6921 H         1 UNK         0.0600 
    177 H177        6.1561  -15.1369  -42.3073 H         1 UNK         0.0600 
    178 H178        5.5580  -14.2634  -43.7145 H         1 UNK         0.0600 
    179 H179        3.7987  -12.2187  -43.1211 H         1 UNK         0.3000 
    180 H180        4.0873   -9.0036  -41.7886 H         1 UNK         0.0600 
    181 H181        5.5589   -9.8364  -44.3483 H         1 UNK         0.0600 
    182 H182        6.2663   -8.9293  -43.0162 H         1 UNK         0.0600 
    183 H183        4.9762   -8.2151  -43.9703 H         1 UNK         0.0600 
    184 H184        3.1152   -9.9797  -44.3136 H         1 UNK         0.3000 
    185 H185        0.2053  -11.5488  -43.2365 H         1 UNK         0.0600 
    186 H186       -1.1294   -9.8561  -44.4534 H         1 UNK         0.0600 
    187 H187       -0.6187   -9.2044  -42.9055 H         1 UNK         0.0600 
    188 H188        0.2045   -8.7036  -44.3779 H         1 UNK         0.0600 
    189 H189        0.7358  -10.6957  -45.8256 H         1 UNK         0.3000 
    190 H190       -1.6875  -20.3884  -46.0044 H         1 UNK         0.3000 
    191 H191       -3.7711  -20.9714  -47.8158 H         1 UNK         0.0600 
    192 H192       -3.9224  -20.1748  -44.8614 H         1 UNK         0.0600 
    193 H193       -5.2486  -20.0841  -46.0134 H         1 UNK         0.0600 
    194 H194       -3.8299  -19.0697  -46.2304 H         1 UNK         0.0600 
    195 H195       -2.8675  -22.6180  -44.7508 H         1 UNK         0.3000 
    196 H196       -4.9372  -24.5630  -44.7737 H         1 UNK         0.0600 
    197 H197       -2.1450  -24.6500  -43.5136 H         1 UNK         0.0600 
    198 H198       -3.4701  -25.7413  -43.1261 H         1 UNK         0.0600 
    199 H199       -3.6095  -24.0292  -42.7559 H         1 UNK         0.0600 
    200 H200       -1.6439  -24.6129  -46.1969 H         1 UNK         0.3000 
    201 H201       -1.7485  -27.3087  -47.1470 H         1 UNK         0.0600 
    202 H202       -0.0481  -24.9328  -48.0714 H         1 UNK         0.0600 
    203 H203        0.2395  -26.6175  -48.4883 H         1 UNK         0.0600 
    204 H204        0.3814  -26.0929  -46.8172 H         1 UNK         0.0600 
    205 H205       -2.5054  -24.1655  -48.7069 H         1 UNK         0.3000 
    206 H206       -3.1952  -25.2091  -51.2721 H         1 UNK         0.0600 
    207 H207       -2.5974  -22.8402  -50.9201 H         1 UNK         0.0600 
    208 H208       -4.2265  -22.9320  -51.5716 H         1 UNK         0.0600 
    209 H209       -3.9854  -22.6027  -49.8618 H         1 UNK         0.0600 
    210 H210       -5.1434  -24.4853  -48.3757 H         1 UNK         0.3000 
    211 H211       -7.1224  -25.0531  -47.6257 H         1 UNK         0.0600 
    212 H212       -6.9709  -27.4488  -49.5325 H         1 UNK         0.0600 
    213 H213       -7.9482  -27.3354  -48.0743 H         1 UNK         0.0600 
    214 H214       -6.1978  -27.3647  -47.9504 H         1 UNK         0.0600 
    215 H215       -6.9785  -23.4487  -50.1905 H         1 UNK         0.3000 
    216 H216       -8.1984  -22.4240  -51.7178 H         1 UNK         0.0600 
    217 H217       -9.7272  -21.8833  -49.8004 H         1 UNK         0.0600 
    218 H218      -10.5827  -21.9770  -51.3298 H         1 UNK         0.0600 
    219 H219      -10.6998  -23.3032  -50.1832 H         1 UNK         0.0600 
    220 H220       -7.5005  -25.3148  -52.0700 H         1 UNK         0.3000 
    221 H221       -9.6395  -26.5255  -53.6263 H         1 UNK         0.0600 
    222 H222       -6.7571  -27.4109  -53.0986 H         1 UNK         0.0600 
    223 H223       -8.1600  -27.8474  -52.1256 H         1 UNK         0.0600 
    224 H224       -8.0375  -28.4027  -53.7880 H         1 UNK         0.0600 
    225 H225       -9.4408  -24.3193  -54.8941 H         1 UNK         0.3000 
    226 H226       -9.1932  -23.2364  -56.8124 H         1 UNK         0.0600 
    227 H227      -10.0581  -25.3709  -57.8028 H         1 UNK         0.0600 
    228 H228       -9.0196  -24.4982  -58.9161 H         1 UNK         0.0600 
    229 H229       -8.4025  -25.9129  -58.0753 H         1 UNK         0.0600 
    230 H230       -6.9258  -23.3429  -55.0188 H         1 UNK         0.3000 
    231 H231       -4.4565  -23.3386  -56.5065 H         1 UNK         0.0600 
    232 H232       -4.5802  -23.8372  -54.0606 H         1 UNK         0.0600 
    233 H233       -5.1746  -22.2065  -53.7441 H         1 UNK         0.0600 
    234 H234       -3.5428  -22.4503  -54.3549 H         1 UNK         0.0600 
    235 H235       -3.1098  -21.5162  -56.9836 H         1 UNK         0.3000 
    236 H236       -4.0326  -18.8034  -56.7339 H         1 UNK         0.0600 
    237 H237       -3.9635  -18.3430  -59.2078 H         1 UNK         0.0600 
    238 H238       -3.7644  -20.0616  -59.5344 H         1 UNK         0.0600 
    239 H239       -5.2627  -19.4598  -58.8284 H         1 UNK         0.0600 
    240 H240       -2.3042  -17.3281  -57.3676 H         1 UNK         0.3000 
    241 H241        0.3223  -18.4320  -56.7736 H         1 UNK         0.0600 
    242 H242        0.2383  -17.9527  -60.7561 H         1 UNK         0.3800 
    243 H243       -1.2193  -18.0951  -59.8093 H         1 UNK         0.3800 
    244 H244        1.0478  -16.0498  -56.6444 H         1 UNK         0.0800 
    245 H245       -0.5126  -15.5324  -57.2227 H         1 UNK         0.0800 
    246 H246        1.3398  -17.5804  -54.4566 H         1 UNK         0.0800 
    247 H247        1.5727  -15.8791  -54.1252 H         1 UNK         0.0800 
@<TRIPOS>BOND
     1    1    2 1    
     2    1  127 1    
     3    1  128 1    
     4    1  129 1    
     5    2    3 2    
     6    2    4 am   BACKBONE|DICT|INTERRES
     7    4    5 1    
     8    4  130 1    
     9    5    6 1    
    10    5   65 1    
    11    5  131 1    
    12    6    7 1    
    13    6  132 1    
    14    6  133 1    
    15    7    8 1    
    16    8    9 1    
    17    8  134 1    
    18    8  135 1    
    19    9   10 ar   
    20    9   14 ar   
    21   10   11 ar   
    22   10  136 1    
    23   11   12 ar   
    24   11  126 1    
    25   12   13 ar   
    26   12  137 1    
    27   13   14 ar   
    28   13   15 1    
    29   14  138 1    
    30   15   16 1    
    31   15  139 1    
    32   15  140 1    
    33   16   17 1    
    34   17   18 1    
    35   17  141 1    
    36   17  142 1    
    37   18   19 1    
    38   18   67 1    
    39   18  143 1    
    40   19   20 am   BACKBONE|DICT|INTERRES
    41   19  144 1    
    42   20   21 2    
    43   20   22 1    
    44   22   23 1    
    45   22   24 1    
    46   22  145 1    
    47   23  146 1    
    48   23  147 1    
    49   23  148 1    
    50   24   25 am   BACKBONE|DICT|INTERRES
    51   24  149 1    
    52   25   26 2    
    53   25   27 1    
    54   27   28 1    
    55   27   29 1    
    56   27  150 1    
    57   28  151 1    
    58   28  152 1    
    59   28  153 1    
    60   29   30 am   BACKBONE|DICT|INTERRES
    61   29  154 1    
    62   30   31 2    
    63   30   32 1    
    64   32   33 1    
    65   32   34 1    
    66   32  155 1    
    67   33  156 1    
    68   33  157 1    
    69   33  158 1    
    70   34   35 am   BACKBONE|DICT|INTERRES
    71   34  159 1    
    72   35   36 2    
    73   35   37 1    
    74   37   38 1    
    75   37   39 1    
    76   37  160 1    
    77   38  161 1    
    78   38  162 1    
    79   38  163 1    
    80   39   40 am   BACKBONE|DICT|INTERRES
    81   39  164 1    
    82   40   41 2    
    83   40   42 1    
    84   42   43 1    
    85   42   44 1    
    86   42  165 1    
    87   43  166 1    
    88   43  167 1    
    89   43  168 1    
    90   44   45 am   BACKBONE|DICT|INTERRES
    91   44  169 1    
    92   45   46 2    
    93   45   47 1    
    94   47   48 1    
    95   47   49 1    
    96   47  170 1    
    97   48  171 1    
    98   48  172 1    
    99   48  173 1    
   100   49   50 am   BACKBONE|DICT|INTERRES
   101   49  174 1    
   102   50   51 2    
   103   50   52 1    
   104   52   53 1    
   105   52   54 1    
   106   52  175 1    
   107   53  176 1    
   108   53  177 1    
   109   53  178 1    
   110   54   55 am   BACKBONE|DICT|INTERRES
   111   54  179 1    
   112   55   56 2    
   113   55   57 1    
   114   57   58 1    
   115   57   59 1    
   116   57  180 1    
   117   58  181 1    
   118   58  182 1    
   119   58  183 1    
   120   59   60 am   BACKBONE|DICT|INTERRES
   121   59  184 1    
   122   60   61 2    
   123   60   62 1    
   124   62   63 1    
   125   62   64 1    
   126   62  185 1    
   127   63  186 1    
   128   63  187 1    
   129   63  188 1    
   130   64   65 am   BACKBONE|DICT|INTERRES
   131   64  189 1    
   132   65   66 2    
   133   67   68 2    
   134   67   69 am   BACKBONE|DICT|INTERRES
   135   69   70 1    
   136   69  190 1    
   137   70   71 1    
   138   70   72 1    
   139   70  191 1    
   140   71  192 1    
   141   71  193 1    
   142   71  194 1    
   143   72   73 2    
   144   72   74 am   BACKBONE|DICT|INTERRES
   145   74   75 1    
   146   74  195 1    
   147   75   76 1    
   148   75   77 1    
   149   75  196 1    
   150   76  197 1    
   151   76  198 1    
   152   76  199 1    
   153   77   78 2    
   154   77   79 am   BACKBONE|DICT|INTERRES
   155   79   80 1    
   156   79  200 1    
   157   80   81 1    
   158   80   82 1    
   159   80  201 1    
   160   81  202 1    
   161   81  203 1    
   162   81  204 1    
   163   82   83 2    
   164   82   84 am   BACKBONE|DICT|INTERRES
   165   84   85 1    
   166   84  205 1    
   167   85   86 1    
   168   85   87 1    
   169   85  206 1    
   170   86  207 1    
   171   86  208 1    
   172   86  209 1    
   173   87   88 2    
   174   87   89 am   BACKBONE|DICT|INTERRES
   175   89   90 1    
   176   89  210 1    
   177   90   91 1    
   178   90   92 1    
   179   90  211 1    
   180   91  212 1    
   181   91  213 1    
   182   91  214 1    
   183   92   93 2    
   184   92   94 am   BACKBONE|DICT|INTERRES
   185   94   95 1    
   186   94  215 1    
   187   95   96 1    
   188   95   97 1    
   189   95  216 1    
   190   96  217 1    
   191   96  218 1    
   192   96  219 1    
   193   97   98 2    
   194   97   99 am   BACKBONE|DICT|INTERRES
   195   99  100 1    
   196   99  220 1    
   197  100  101 1    
   198  100  102 1    
   199  100  221 1    
   200  101  222 1    
   201  101  223 1    
   202  101  224 1    
   203  102  103 2    
   204  102  104 am   BACKBONE|DICT|INTERRES
   205  104  105 1    
   206  104  225 1    
   207  105  106 1    
   208  105  107 1    
   209  105  226 1    
   210  106  227 1    
   211  106  228 1    
   212  106  229 1    
   213  107  108 2    
   214  107  109 am   BACKBONE|DICT|INTERRES
   215  109  110 1    
   216  109  230 1    
   217  110  111 1    
   218  110  112 1    
   219  110  231 1    
   220  111  232 1    
   221  111  233 1    
   222  111  234 1    
   223  112  113 2    
   224  112  114 am   BACKBONE|DICT|INTERRES
   225  114  115 1    
   226  114  235 1    
   227  115  116 1    
   228  115  117 1    
   229  115  236 1    
   230  116  237 1    
   231  116  238 1    
   232  116  239 1    
   233  117  118 2    
   234  117  119 am   BACKBONE|DICT|INTERRES
   235  119  120 1    
   236  119  240 1    
   237  120  121 1    
   238  120  124 1    
   239  120  241 1    
   240  121  122 am   BACKBONE|DICT|INTERRES
   241  121  123 2    
   242  122  242 1    
   243  122  243 1    
   244  124  125 1    
   245  124  244 1    
   246  124  245 1    
   247  125  126 1    
   248  126  246 1    
   249  126  247 1    
@<TRIPOS>SUBSTRUCTURE
     1 UNK         1 GROUP             0       ****    0 ROOT    
