@<TRIPOS>MOLECULE
3R540
247   249    1
SMALL
USER_CHARGES


@<TRIPOS>ATOM
      1 CA          4.0449  -14.5800  -48.8658 C.3       0 UNK        -0.1800 
      2 C           2.8633  -15.1691  -49.6348 C.2       0 UNK         0.5000 
      3 O           3.0661  -15.7369  -50.7059 O.2       0 UNK        -0.5000 
      4 N           1.6256  -15.0810  -49.1305 N.am      1 UNK        -0.5000 
      5 CA          1.2008  -14.3551  -47.9300 C.3       1 UNK         0.1400 
      6 C6         -0.1977  -14.8004  -47.4214 C.3       23 UNK        -0.0398 
      7 S7         -1.4630  -15.0640  -48.7178 S.3       23 UNK        -0.2404 
      8 C8         -1.9430  -16.7921  -48.3947 C.3       23 UNK        -0.0205 
      9 C9         -1.0478  -17.7978  -49.1111 C.ar      23 UNK        -0.0193 
     10 C10        -1.5249  -18.4828  -50.2307 C.ar      23 UNK        -0.1150 
     11 C11        -0.7123  -19.3925  -50.9152 C.ar      23 UNK        -0.0193 
     12 C12         0.5833  -19.6403  -50.4491 C.ar      23 UNK        -0.1150 
     13 C13         1.0661  -18.9822  -49.3140 C.ar      23 UNK        -0.0193 
     14 C14         0.2437  -18.0678  -48.6509 C.ar      23 UNK        -0.1150 
     15 C15         2.4921  -19.2060  -48.8297 C.3       23 UNK        -0.0205 
     16 S16         2.5677  -19.8716  -47.1339 S.3       23 UNK        -0.2404 
     17 C17         2.5695  -21.6758  -47.3930 C.3       23 UNK        -0.0398 
     18 CA          1.3823  -22.4464  -46.7661 C.3       11 UNK         0.1400 
     19 N           1.2134  -22.2453  -45.3197 N.am      11 UNK        -0.5000 
     20 C           0.4988  -23.0849  -44.5521 C.2       10 UNK         0.5000 
     21 O          -0.0499  -24.0979  -44.9858 O.2       10 UNK        -0.5000 
     22 CA          0.3215  -22.7312  -43.0666 C.3       10 UNK         0.1400 
     23 CB          1.5845  -23.0756  -42.2636 C.3       10 UNK        -0.1800 
     24 N          -0.0592  -21.3367  -42.8472 N.am      10 UNK        -0.5000 
     25 C          -1.1984  -20.7811  -43.2854 C.2       9 UNK         0.5000 
     26 O          -2.0490  -21.3925  -43.9322 O.2       9 UNK        -0.5000 
     27 CA         -1.4148  -19.2882  -42.9702 C.3       9 UNK         0.1400 
     28 CB         -2.0036  -19.1020  -41.5641 C.3       9 UNK        -0.1800 
     29 N          -0.1819  -18.5114  -43.0882 N.am      9 UNK        -0.5000 
     30 C           0.4540  -18.2837  -44.2450 C.2       8 UNK         0.5000 
     31 O           0.0081  -18.6173  -45.3411 O.2       8 UNK        -0.5000 
     32 CA          1.8356  -17.6103  -44.1528 C.3       8 UNK         0.1400 
     33 CB          1.7118  -16.0789  -44.0999 C.3       8 UNK        -0.1800 
     34 N           2.5941  -18.0803  -42.9930 N.am      8 UNK        -0.5000 
     35 C           3.1129  -19.3109  -42.8703 C.2       7 UNK         0.5000 
     36 O           3.0351  -20.1792  -43.7393 O.2       7 UNK        -0.5000 
     37 CA          3.8050  -19.6353  -41.5323 C.3       7 UNK         0.1400 
     38 CB          5.2711  -19.1784  -41.5586 C.3       7 UNK        -0.1800 
     39 N           3.1299  -19.0271  -40.3837 N.am      7 UNK        -0.5000 
     40 C           1.9112  -19.3787  -39.9488 C.2       6 UNK         0.5000 
     41 O           1.2471  -20.2864  -40.4458 O.2       6 UNK        -0.5000 
     42 CA          1.3095  -18.5356  -38.8069 C.3       6 UNK         0.1400 
     43 CB          1.7529  -19.0802  -37.4412 C.3       6 UNK        -0.1800 
     44 N           1.6464  -17.1104  -38.8974 N.am      6 UNK        -0.5000 
     45 C           1.3259  -16.3215  -39.9314 C.2       5 UNK         0.5000 
     46 O           0.7014  -16.7214  -40.9170 O.2       5 UNK        -0.5000 
     47 CA          1.8553  -14.8751  -39.8798 C.3       5 UNK         0.1400 
     48 CB          3.3810  -14.8559  -40.0756 C.3       5 UNK        -0.1800 
     49 N           1.2578  -14.0345  -40.9155 N.am      5 UNK        -0.5000 
     50 C           0.0036  -13.5643  -40.9133 C.2       4 UNK         0.5000 
     51 O          -0.7849  -13.7302  -39.9805 O.2       4 UNK        -0.5000 
     52 CA         -0.4308  -12.7831  -42.1756 C.3       4 UNK         0.1400 
     53 CB         -1.6104  -11.8226  -41.9156 C.3       4 UNK        -0.1800 
     54 N           0.6792  -12.0868  -42.8449 N.am      4 UNK        -0.5000 
     55 C           1.4373  -11.0973  -42.3444 C.2       3 UNK         0.5000 
     56 O           1.2744  -10.6009  -41.2294 O.2       3 UNK        -0.5000 
     57 CA          2.5995  -10.5936  -43.2240 C.3       3 UNK         0.1400 
     58 CB          3.9258  -11.2031  -42.7411 C.3       3 UNK        -0.1800 
     59 N           2.4436  -10.8860  -44.6533 N.am      3 UNK        -0.5000 
     60 C           1.6150  -10.2281  -45.4794 C.2       2 UNK         0.5000 
     61 O           0.8494   -9.3358  -45.1151 O.2       2 UNK        -0.5000 
     62 CA          1.6335  -10.6612  -46.9530 C.3       2 UNK         0.1400 
     63 CB          2.8686  -10.0954  -47.6800 C.3       2 UNK        -0.1800 
     64 N           1.5941  -12.1203  -47.0424 N.am      2 UNK        -0.5000 
     65 C           1.2587  -12.8261  -48.1280 C.2       1 UNK         0.5000 
     66 O           0.9903  -12.3274  -49.2232 O.2       1 UNK        -0.5000 
     67 C           0.0662  -22.2632  -47.5478 C.2       11 UNK         0.5000 
     68 O          -0.1600  -23.0018  -48.5064 O.2       11 UNK        -0.5000 
     69 N          -0.8061  -21.3515  -47.0908 N.am      12 UNK        -0.5000 
     70 CA         -2.1529  -21.1607  -47.6320 C.3       12 UNK         0.1400 
     71 CB         -2.8222  -19.9541  -46.9586 C.3       12 UNK        -0.1800 
     72 C          -3.0267  -22.4125  -47.4571 C.2       12 UNK         0.5000 
     73 O          -3.6667  -22.8466  -48.4159 O.2       12 UNK        -0.5000 
     74 N          -3.0096  -22.9777  -46.2419 N.am      13 UNK        -0.5000 
     75 CA         -3.7211  -24.1996  -45.8767 C.3       13 UNK         0.1400 
     76 CB         -3.6552  -24.3951  -44.3544 C.3       13 UNK        -0.1800 
     77 C          -3.1852  -25.4382  -46.6141 C.2       13 UNK         0.5000 
     78 O          -3.9826  -26.2271  -47.1212 O.2       13 UNK        -0.5000 
     79 N          -1.8528  -25.5710  -46.6888 N.am      14 UNK        -0.5000 
     80 CA         -1.1618  -26.6670  -47.3718 C.3       14 UNK         0.1400 
     81 CB          0.3422  -26.5991  -47.0686 C.3       14 UNK        -0.1800 
     82 C          -1.4059  -26.6803  -48.8911 C.2       14 UNK         0.5000 
     83 O          -1.6084  -27.7522  -49.4630 O.2       14 UNK        -0.5000 
     84 N          -1.4066  -25.4933  -49.5128 N.am      15 UNK        -0.5000 
     85 CA         -1.7000  -25.3136  -50.9346 C.3       15 UNK         0.1400 
     86 CB         -1.1327  -23.9600  -51.3945 C.3       15 UNK        -0.1800 
     87 C          -3.2037  -25.3831  -51.2592 C.2       15 UNK         0.5000 
     88 O          -3.5491  -25.5000  -52.4342 O.2       15 UNK        -0.5000 
     89 N          -4.0674  -25.2374  -50.2419 N.am      16 UNK        -0.5000 
     90 CA         -5.5202  -25.0384  -50.3343 C.3       16 UNK         0.1400 
     91 CB         -6.2218  -26.3139  -50.8433 C.3       16 UNK        -0.1800 
     92 C          -5.8529  -23.7839  -51.1700 C.2       16 UNK         0.5000 
     93 O          -6.6317  -23.8474  -52.1241 O.2       16 UNK        -0.5000 
     94 N          -5.1533  -22.6840  -50.8484 N.am      17 UNK        -0.5000 
     95 CA         -5.1122  -21.4027  -51.5660 C.3       17 UNK         0.1400 
     96 CB         -6.4699  -20.6793  -51.4646 C.3       17 UNK        -0.1800 
     97 C          -4.6191  -21.5202  -53.0284 C.2       17 UNK         0.5000 
     98 O          -4.8866  -20.6283  -53.8343 O.2       17 UNK        -0.5000 
     99 N          -3.9322  -22.6276  -53.3521 N.am      18 UNK        -0.5000 
    100 CA        -3.5218  -23.0644  -54.6906 C.3       18 UNK         0.1400 
    101 CB        -2.4397  -22.1308  -55.2678 C.3       18 UNK        -0.1800 
    102 C         -4.7317  -23.2649  -55.6271 C.2       18 UNK         0.5000 
    103 O         -4.6706  -22.8960  -56.7987 O.2       18 UNK        -0.5000 
    104 N         -5.8320  -23.7993  -55.0711 N.am      19 UNK        -0.5000 
    105 CA        -7.1603  -23.9148  -55.6869 C.3       19 UNK         0.1400 
    106 CB        -7.1418  -24.8827  -56.8887 C.3       19 UNK        -0.1800 
    107 C         -7.7598  -22.5304  -56.0196 C.2       19 UNK         0.5000 
    108 O         -8.3536  -22.3421  -57.0823 O.2       19 UNK        -0.5000 
    109 N         -7.5607  -21.5864  -55.0882 N.am      20 UNK        -0.5000 
    110 CA        -7.9338  -20.1687  -55.1332 C.3       20 UNK         0.1400 
    111 CB        -9.4632  -19.9965  -55.2463 C.3       20 UNK        -0.1800 
    112 C         -7.1540  -19.3402  -56.1784 C.2       20 UNK         0.5000 
    113 O         -7.6125  -18.2604  -56.5565 O.2       20 UNK        -0.5000 
    114 N         -5.9848  -19.8310  -56.6158 N.am      21 UNK        -0.5000 
    115 CA        -5.0749  -19.1032  -57.5020 C.3       21 UNK         0.1400 
    116 CB        -4.1795  -20.0897  -58.2646 C.3       21 UNK        -0.1800 
    117 C         -4.2226  -18.0660  -56.7472 C.2       21 UNK         0.5000 
    118 O         -3.8440  -17.0594  -57.3486 O.2       21 UNK        -0.5000 
    119 N         -3.9411  -18.3065  -55.4580 N.am      22 UNK        -0.5000 
    120 CA        -3.2959  -17.3267  -54.5714 C.3       22 UNK         0.1400 
    121 C         -4.2856  -16.1946  -54.1804 C.2       22 UNK         0.5000 
    122 N         -3.8590  -14.9401  -54.2315 N.am      22 UNK        -0.7600 
    123 O         -5.4231  -16.4475  -53.7897 O.2       22 UNK        -0.5000 
    124 C124       -2.7035  -17.9780  -53.2976 C.3       23 UNK        -0.0398 
    125 S125       -1.2845  -19.0761  -53.6354 S.3       23 UNK        -0.2404 
    126 C126       -1.2412  -20.1242  -52.1416 C.3       23 UNK        -0.0205 
    127 H127        3.9958  -13.4915  -48.8487 H         1 UNK         0.0600 
    128 H128        4.9848  -14.8605  -49.3417 H         1 UNK         0.0600 
    129 H129        4.0748  -14.9511  -47.8417 H         1 UNK         0.0600 
    130 H130        0.8620  -15.4736  -49.6632 H         1 UNK         0.3000 
    131 H131        1.9103  -14.6032  -47.1390 H         1 UNK         0.0600 
    132 H132       -0.0862  -15.7210  -46.8526 H         1 UNK         0.0800 
    133 H133       -0.6004  -14.0888  -46.6980 H         1 UNK         0.0800 
    134 H134       -2.9788  -16.9228  -48.7115 H         1 UNK         0.0800 
    135 H135       -1.9379  -16.9754  -47.3204 H         1 UNK         0.0800 
    136 H136       -2.5341  -18.3029  -50.5686 H         1 UNK         0.1150 
    137 H137        1.2169  -20.3420  -50.9729 H         1 UNK         0.1150 
    138 H138        0.6240  -17.5681  -47.7740 H         1 UNK         0.1150 
    139 H139        3.0478  -19.8495  -49.5129 H         1 UNK         0.0800 
    140 H140        3.0076  -18.2449  -48.8408 H         1 UNK         0.0800 
    141 H141        2.6381  -21.8974  -48.4594 H         1 UNK         0.0800 
    142 H142        3.4976  -22.0538  -46.9626 H         1 UNK         0.0800 
    143 H143        1.6394  -23.5005  -46.8900 H         1 UNK         0.0600 
    144 H144        1.6522  -21.4281  -44.9086 H         1 UNK         0.3000 
    145 H145       -0.4916  -23.3499  -42.6812 H         1 UNK         0.0600 
    146 H146        1.4318  -22.9108  -41.1971 H         1 UNK         0.0600 
    147 H147        2.4405  -22.4797  -42.5771 H         1 UNK         0.0600 
    148 H148        1.8529  -24.1248  -42.3932 H         1 UNK         0.0600 
    149 H149        0.5566  -20.7856  -42.2589 H         1 UNK         0.3000 
    150 H150       -2.1329  -18.8964  -43.6938 H         1 UNK         0.0600 
    151 H151       -2.9502  -19.6345  -41.4650 H         1 UNK         0.0600 
    152 H152       -2.1969  -18.0497  -41.3542 H         1 UNK         0.0600 
    153 H153       -1.3329  -19.4784  -40.7918 H         1 UNK         0.0600 
    154 H154        0.2173  -18.1385  -42.2327 H         1 UNK         0.3000 
    155 H155        2.3990  -17.8674  -45.0506 H         1 UNK         0.0600 
    156 H156        1.2591  -15.6974  -45.0119 H         1 UNK         0.0600 
    157 H157        2.6884  -15.6050  -44.0005 H         1 UNK         0.0600 
    158 H158        1.0887  -15.7477  -43.2708 H         1 UNK         0.0600 
    159 H159        2.6454  -17.4541  -42.2042 H         1 UNK         0.3000 
    160 H160        3.7883  -20.7194  -41.4020 H         1 UNK         0.0600 
    161 H161        5.3554  -18.0958  -41.6613 H         1 UNK         0.0600 
    162 H162        5.8050  -19.6304  -42.3957 H         1 UNK         0.0600 
    163 H163        5.7917  -19.4712  -40.6467 H         1 UNK         0.0600 
    164 H164        3.6106  -18.2736  -39.9153 H         1 UNK         0.3000 
    165 H165        0.2230  -18.6236  -38.8726 H         1 UNK         0.0600 
    166 H166        1.2613  -18.5491  -36.6260 H         1 UNK         0.0600 
    167 H167        1.4966  -20.1358  -37.3404 H         1 UNK         0.0600 
    168 H168        2.8307  -18.9892  -37.3007 H         1 UNK         0.0600 
    169 H169        2.1665  -16.7209  -38.1242 H         1 UNK         0.3000 
    170 H170        1.6147  -14.4530  -38.9020 H         1 UNK         0.0600 
    171 H171        3.6710  -15.2898  -41.0336 H         1 UNK         0.0600 
    172 H172        3.7686  -13.8373  -40.0404 H         1 UNK         0.0600 
    173 H173        3.8904  -15.4183  -39.2924 H         1 UNK         0.0600 
    174 H174        1.8251  -13.8577  -41.7293 H         1 UNK         0.3000 
    175 H175       -0.7798  -13.5387  -42.8811 H         1 UNK         0.0600 
    176 H176       -1.3690  -11.0786  -41.1562 H         1 UNK         0.0600 
    177 H177       -1.8954  -11.2937  -42.8250 H         1 UNK         0.0600 
    178 H178       -2.4895  -12.3674  -41.5697 H         1 UNK         0.0600 
    179 H179        0.9009  -12.4117  -43.7728 H         1 UNK         0.3000 
    180 H180        2.6578   -9.5102  -43.0976 H         1 UNK         0.0600 
    181 H181        3.9383  -12.2876  -42.8564 H         1 UNK         0.0600 
    182 H182        4.0966  -10.9844  -41.6860 H         1 UNK         0.0600 
    183 H183        4.7720  -10.7960  -43.2950 H         1 UNK         0.0600 
    184 H184        3.0911  -11.5557  -45.0416 H         1 UNK         0.3000 
    185 H185        0.7341  -10.2588  -47.4245 H         1 UNK         0.0600 
    186 H186        3.7954  -10.5167  -47.2893 H         1 UNK         0.0600 
    187 H187        2.8324  -10.3048  -48.7489 H         1 UNK         0.0600 
    188 H188        2.9257   -9.0120  -47.5669 H         1 UNK         0.0600 
    189 H189        1.7645  -12.6099  -46.1773 H         1 UNK         0.3000 
    190 H190       -0.5364  -20.7619  -46.3139 H         1 UNK         0.3000 
    191 H191       -2.0517  -20.9542  -48.6990 H         1 UNK         0.0600 
    192 H192       -2.1220  -19.1315  -46.8488 H         1 UNK         0.0600 
    193 H193       -3.1974  -20.1874  -45.9625 H         1 UNK         0.0600 
    194 H194       -3.6662  -19.5989  -47.5505 H         1 UNK         0.0600 
    195 H195       -2.4809  -22.5226  -45.5031 H         1 UNK         0.3000 
    196 H196       -4.7686  -24.0721  -46.1575 H         1 UNK         0.0600 
    197 H197       -4.1053  -23.5519  -43.8301 H         1 UNK         0.0600 
    198 H198       -2.6272  -24.4935  -44.0040 H         1 UNK         0.0600 
    199 H199       -4.1944  -25.2934  -44.0514 H         1 UNK         0.0600 
    200 H200       -1.2653  -24.8990  -46.2008 H         1 UNK         0.3000 
    201 H201       -1.5467  -27.6048  -46.9660 H         1 UNK         0.0600 
    202 H202        0.5323  -26.6599  -45.9969 H         1 UNK         0.0600 
    203 H203        0.7833  -25.6726  -47.4362 H         1 UNK         0.0600 
    204 H204        0.8739  -27.4261  -47.5406 H         1 UNK         0.0600 
    205 H205       -1.1742  -24.6545  -48.9885 H         1 UNK         0.3000 
    206 H206       -1.2013  -26.1025  -51.5014 H         1 UNK         0.0600 
    207 H207       -0.0617  -23.8952  -51.2020 H         1 UNK         0.0600 
    208 H208       -1.6147  -23.1268  -50.8808 H         1 UNK         0.0600 
    209 H209       -1.2763  -23.8147  -52.4658 H         1 UNK         0.0600 
    210 H210       -3.6772  -25.1230  -49.3157 H         1 UNK         0.3000 
    211 H211       -5.8737  -24.8430  -49.3209 H         1 UNK         0.0600 
    212 H212       -5.9466  -26.5504  -51.8715 H         1 UNK         0.0600 
    213 H213       -7.3058  -26.1984  -50.8148 H         1 UNK         0.0600 
    214 H214       -5.9698  -27.1739  -50.2227 H         1 UNK         0.0600 
    215 H215       -4.5472  -22.7464  -50.0310 H         1 UNK         0.3000 
    216 H216       -4.3780  -20.7890  -51.0436 H         1 UNK         0.0600 
    217 H217       -6.4106  -19.6718  -51.8785 H         1 UNK         0.0600 
    218 H218       -6.7847  -20.5811  -50.4258 H         1 UNK         0.0600 
    219 H219       -7.2558  -21.2097  -52.0024 H         1 UNK         0.0600 
    220 H220       -3.8103  -23.3274  -52.6326 H         1 UNK         0.3000 
    221 H221       -3.0684  -24.0492  -54.5768 H         1 UNK         0.0600 
    222 H222       -2.8090  -21.1157  -55.4075 H         1 UNK         0.0600 
    223 H223       -1.5744  -22.0819  -54.6075 H         1 UNK         0.0600 
    224 H224       -2.0860  -22.4880  -56.2355 H         1 UNK         0.0600 
    225 H225       -5.7983  -24.0399  -54.0862 H         1 UNK         0.3000 
    226 H226       -7.8094  -24.3509  -54.9260 H         1 UNK         0.0600 
    227 H227       -6.7079  -25.8439  -56.6136 H         1 UNK         0.0600 
    228 H228       -8.1534  -25.0745  -57.2480 H         1 UNK         0.0600 
    229 H229       -6.5704  -24.4835  -57.7270 H         1 UNK         0.0600 
    230 H230       -7.0261  -21.8555  -54.2746 H         1 UNK         0.3000 
    231 H231       -7.6373  -19.7589  -54.1671 H         1 UNK         0.0600 
    232 H232       -9.7516  -18.9554  -55.0972 H         1 UNK         0.0600 
    233 H233       -9.9837  -20.5856  -54.4913 H         1 UNK         0.0600 
    234 H234       -9.8350  -20.2989  -56.2254 H         1 UNK         0.0600 
    235 H235       -5.6626  -20.7193  -56.2560 H         1 UNK         0.3000 
    236 H236       -5.6693  -18.5642  -58.2430 H         1 UNK         0.0600 
    237 H237       -3.4986  -20.6171  -57.5982 H         1 UNK         0.0600 
    238 H238       -4.7730  -20.8329  -58.7973 H         1 UNK         0.0600 
    239 H239       -3.5703  -19.5684  -59.0038 H         1 UNK         0.0600 
    240 H240       -4.3127  -19.1391  -55.0111 H         1 UNK         0.3000 
    241 H241       -2.4674  -16.8745  -55.1207 H         1 UNK         0.0600 
    242 H242       -4.4882  -14.1985  -53.9656 H         1 UNK         0.3800 
    243 H243       -2.9291  -14.7089  -54.5461 H         1 UNK         0.3800 
    244 H244       -3.4771  -18.5302  -52.7623 H         1 UNK         0.0800 
    245 H245       -2.3467  -17.2011  -52.6193 H         1 UNK         0.0800 
    246 H246       -0.6192  -20.9950  -52.3534 H         1 UNK         0.0800 
    247 H247       -2.2328  -20.5141  -51.9300 H         1 UNK         0.0800 
@<TRIPOS>BOND
     1    1    2 1    
     2    1  127 1    
     3    1  128 1    
     4    1  129 1    
     5    2    3 2    
     6    2    4 am   BACKBONE|DICT|INTERRES
     7    4    5 1    
     8    4  130 1    
     9    5    6 1    
    10    5   65 1    
    11    5  131 1    
    12    6    7 1    
    13    6  132 1    
    14    6  133 1    
    15    7    8 1    
    16    8    9 1    
    17    8  134 1    
    18    8  135 1    
    19    9   10 ar   
    20    9   14 ar   
    21   10   11 ar   
    22   10  136 1    
    23   11   12 ar   
    24   11  126 1    
    25   12   13 ar   
    26   12  137 1    
    27   13   14 ar   
    28   13   15 1    
    29   14  138 1    
    30   15   16 1    
    31   15  139 1    
    32   15  140 1    
    33   16   17 1    
    34   17   18 1    
    35   17  141 1    
    36   17  142 1    
    37   18   19 1    
    38   18   67 1    
    39   18  143 1    
    40   19   20 am   BACKBONE|DICT|INTERRES
    41   19  144 1    
    42   20   21 2    
    43   20   22 1    
    44   22   23 1    
    45   22   24 1    
    46   22  145 1    
    47   23  146 1    
    48   23  147 1    
    49   23  148 1    
    50   24   25 am   BACKBONE|DICT|INTERRES
    51   24  149 1    
    52   25   26 2    
    53   25   27 1    
    54   27   28 1    
    55   27   29 1    
    56   27  150 1    
    57   28  151 1    
    58   28  152 1    
    59   28  153 1    
    60   29   30 am   BACKBONE|DICT|INTERRES
    61   29  154 1    
    62   30   31 2    
    63   30   32 1    
    64   32   33 1    
    65   32   34 1    
    66   32  155 1    
    67   33  156 1    
    68   33  157 1    
    69   33  158 1    
    70   34   35 am   BACKBONE|DICT|INTERRES
    71   34  159 1    
    72   35   36 2    
    73   35   37 1    
    74   37   38 1    
    75   37   39 1    
    76   37  160 1    
    77   38  161 1    
    78   38  162 1    
    79   38  163 1    
    80   39   40 am   BACKBONE|DICT|INTERRES
    81   39  164 1    
    82   40   41 2    
    83   40   42 1    
    84   42   43 1    
    85   42   44 1    
    86   42  165 1    
    87   43  166 1    
    88   43  167 1    
    89   43  168 1    
    90   44   45 am   BACKBONE|DICT|INTERRES
    91   44  169 1    
    92   45   46 2    
    93   45   47 1    
    94   47   48 1    
    95   47   49 1    
    96   47  170 1    
    97   48  171 1    
    98   48  172 1    
    99   48  173 1    
   100   49   50 am   BACKBONE|DICT|INTERRES
   101   49  174 1    
   102   50   51 2    
   103   50   52 1    
   104   52   53 1    
   105   52   54 1    
   106   52  175 1    
   107   53  176 1    
   108   53  177 1    
   109   53  178 1    
   110   54   55 am   BACKBONE|DICT|INTERRES
   111   54  179 1    
   112   55   56 2    
   113   55   57 1    
   114   57   58 1    
   115   57   59 1    
   116   57  180 1    
   117   58  181 1    
   118   58  182 1    
   119   58  183 1    
   120   59   60 am   BACKBONE|DICT|INTERRES
   121   59  184 1    
   122   60   61 2    
   123   60   62 1    
   124   62   63 1    
   125   62   64 1    
   126   62  185 1    
   127   63  186 1    
   128   63  187 1    
   129   63  188 1    
   130   64   65 am   BACKBONE|DICT|INTERRES
   131   64  189 1    
   132   65   66 2    
   133   67   68 2    
   134   67   69 am   BACKBONE|DICT|INTERRES
   135   69   70 1    
   136   69  190 1    
   137   70   71 1    
   138   70   72 1    
   139   70  191 1    
   140   71  192 1    
   141   71  193 1    
   142   71  194 1    
   143   72   73 2    
   144   72   74 am   BACKBONE|DICT|INTERRES
   145   74   75 1    
   146   74  195 1    
   147   75   76 1    
   148   75   77 1    
   149   75  196 1    
   150   76  197 1    
   151   76  198 1    
   152   76  199 1    
   153   77   78 2    
   154   77   79 am   BACKBONE|DICT|INTERRES
   155   79   80 1    
   156   79  200 1    
   157   80   81 1    
   158   80   82 1    
   159   80  201 1    
   160   81  202 1    
   161   81  203 1    
   162   81  204 1    
   163   82   83 2    
   164   82   84 am   BACKBONE|DICT|INTERRES
   165   84   85 1    
   166   84  205 1    
   167   85   86 1    
   168   85   87 1    
   169   85  206 1    
   170   86  207 1    
   171   86  208 1    
   172   86  209 1    
   173   87   88 2    
   174   87   89 am   BACKBONE|DICT|INTERRES
   175   89   90 1    
   176   89  210 1    
   177   90   91 1    
   178   90   92 1    
   179   90  211 1    
   180   91  212 1    
   181   91  213 1    
   182   91  214 1    
   183   92   93 2    
   184   92   94 am   BACKBONE|DICT|INTERRES
   185   94   95 1    
   186   94  215 1    
   187   95   96 1    
   188   95   97 1    
   189   95  216 1    
   190   96  217 1    
   191   96  218 1    
   192   96  219 1    
   193   97   98 2    
   194   97   99 am   BACKBONE|DICT|INTERRES
   195   99  100 1    
   196   99  220 1    
   197  100  101 1    
   198  100  102 1    
   199  100  221 1    
   200  101  222 1    
   201  101  223 1    
   202  101  224 1    
   203  102  103 2    
   204  102  104 am   BACKBONE|DICT|INTERRES
   205  104  105 1    
   206  104  225 1    
   207  105  106 1    
   208  105  107 1    
   209  105  226 1    
   210  106  227 1    
   211  106  228 1    
   212  106  229 1    
   213  107  108 2    
   214  107  109 am   BACKBONE|DICT|INTERRES
   215  109  110 1    
   216  109  230 1    
   217  110  111 1    
   218  110  112 1    
   219  110  231 1    
   220  111  232 1    
   221  111  233 1    
   222  111  234 1    
   223  112  113 2    
   224  112  114 am   BACKBONE|DICT|INTERRES
   225  114  115 1    
   226  114  235 1    
   227  115  116 1    
   228  115  117 1    
   229  115  236 1    
   230  116  237 1    
   231  116  238 1    
   232  116  239 1    
   233  117  118 2    
   234  117  119 am   BACKBONE|DICT|INTERRES
   235  119  120 1    
   236  119  240 1    
   237  120  121 1    
   238  120  124 1    
   239  120  241 1    
   240  121  122 am   BACKBONE|DICT|INTERRES
   241  121  123 2    
   242  122  242 1    
   243  122  243 1    
   244  124  125 1    
   245  124  244 1    
   246  124  245 1    
   247  125  126 1    
   248  126  246 1    
   249  126  247 1    
@<TRIPOS>SUBSTRUCTURE
     1 UNK         1 GROUP             0       ****    0 ROOT    
