@<TRIPOS>MOLECULE
3R540
247   249    1
SMALL
USER_CHARGES


@<TRIPOS>ATOM
      1 CA         -3.1485  -16.3459  -50.6282 C.3       0 UNK        -0.1800 
      2 C          -2.7892  -15.5127  -49.4071 C.2       0 UNK         0.5000 
      3 O          -3.5955  -14.7038  -48.9476 O.2       0 UNK        -0.5000 
      4 N          -1.5782  -15.7152  -48.8772 N.am      1 UNK        -0.5000 
      5 CA         -0.9881  -15.0524  -47.7065 C.3       1 UNK         0.1400 
      6 C6          0.5639  -15.1553  -47.7354 C.3       23 UNK        -0.0398 
      7 S7          1.1793  -16.8676  -47.9324 S.3       23 UNK        -0.2404 
      8 C8          2.2397  -16.7670  -49.4166 C.3       23 UNK        -0.0205 
      9 C9          2.3639  -18.1006  -50.1526 C.ar      23 UNK        -0.0193 
     10 C10         2.2870  -18.1308  -51.5488 C.ar      23 UNK        -0.1150 
     11 C11         2.3509  -19.3421  -52.2470 C.ar      23 UNK        -0.0193 
     12 C12         2.4898  -20.5361  -51.5312 C.ar      23 UNK        -0.1150 
     13 C13         2.5911  -20.5234  -50.1365 C.ar      23 UNK        -0.0193 
     14 C14         2.5530  -19.3014  -49.4587 C.ar      23 UNK        -0.1150 
     15 C15         2.7005  -21.8279  -49.3577 C.3       23 UNK        -0.0205 
     16 S16         1.0973  -22.2336  -48.6078 S.3       23 UNK        -0.2404 
     17 C17         1.2772  -23.9844  -48.1126 C.3       23 UNK        -0.0398 
     18 CA          0.3181  -24.4203  -46.9628 C.3       11 UNK         0.1400 
     19 N           0.7501  -23.8843  -45.6760 N.am      11 UNK        -0.5000 
     20 C           1.6577  -24.4325  -44.8641 C.2       10 UNK         0.5000 
     21 O           2.1787  -25.5314  -45.0666 O.2       10 UNK        -0.5000 
     22 CA          2.0725  -23.5738  -43.6474 C.3       10 UNK         0.1400 
     23 CB          3.2989  -24.1364  -42.9010 C.3       10 UNK        -0.1800 
     24 N           2.3014  -22.1651  -43.9942 N.am      10 UNK        -0.5000 
     25 C           3.1079  -21.6908  -44.9602 C.2       9 UNK         0.5000 
     26 O           3.7856  -22.3887  -45.7155 O.2       9 UNK        -0.5000 
     27 CA          3.1856  -20.1613  -45.0803 C.3       9 UNK         0.1400 
     28 CB          1.8412  -19.5828  -45.5502 C.3       9 UNK        -0.1800 
     29 N           3.5694  -19.5308  -43.8194 N.am      9 UNK        -0.5000 
     30 C           4.7216  -19.7240  -43.1605 C.2       8 UNK         0.5000 
     31 O           5.6456  -20.4247  -43.5744 O.2       8 UNK        -0.5000 
     32 CA          4.8595  -19.0206  -41.7993 C.3       8 UNK         0.1400 
     33 CB          5.4026  -17.5931  -41.9719 C.3       8 UNK        -0.1800 
     34 N           3.5796  -18.9739  -41.0926 N.am      8 UNK        -0.5000 
     35 C           3.0899  -19.9756  -40.3495 C.2       7 UNK         0.5000 
     36 O           3.7045  -21.0165  -40.1151 O.2       7 UNK        -0.5000 
     37 CA          1.6740  -19.7901  -39.7699 C.3       7 UNK         0.1400 
     38 CB          1.7453  -19.1771  -38.3632 C.3       7 UNK        -0.1800 
     39 N           0.8071  -18.9592  -40.6066 N.am      7 UNK        -0.5000 
     40 C           0.3141  -19.3296  -41.7964 C.2       6 UNK         0.5000 
     41 O           0.5367  -20.4214  -42.3230 O.2       6 UNK        -0.5000 
     42 CA         -0.5457  -18.2834  -42.5349 C.3       6 UNK         0.1400 
     43 CB         -1.9833  -18.3136  -41.9940 C.3       6 UNK        -0.1800 
     44 N          -0.0483  -16.9076  -42.4420 N.am      6 UNK        -0.5000 
     45 C           1.1990  -16.4808  -42.6863 C.2       5 UNK         0.5000 
     46 O           2.1184  -17.2293  -43.0130 O.2       5 UNK        -0.5000 
     47 CA          1.4963  -14.9787  -42.5018 C.3       5 UNK         0.1400 
     48 CB          1.9058  -14.3280  -43.8315 C.3       5 UNK        -0.1800 
     49 N           0.3933  -14.2092  -41.9247 N.am      5 UNK        -0.5000 
     50 C          -0.0433  -14.2719  -40.6626 C.2       4 UNK         0.5000 
     51 O           0.4409  -15.0252  -39.8174 O.2       4 UNK        -0.5000 
     52 CA         -1.2381  -13.3733  -40.2803 C.3       4 UNK         0.1400 
     53 CB         -0.7526  -12.0167  -39.7357 C.3       4 UNK        -0.1800 
     54 N          -2.2542  -13.1930  -41.3312 N.am      4 UNK        -0.5000 
     55 C          -2.1609  -12.5576  -42.5082 C.2       3 UNK         0.5000 
     56 O          -1.1218  -12.0569  -42.9417 O.2       3 UNK        -0.5000 
     57 CA         -3.4406  -12.5182  -43.3637 C.3       3 UNK         0.1400 
     58 CB         -3.5588  -11.2056  -44.1571 C.3       3 UNK        -0.1800 
     59 N          -3.4856  -13.6384  -44.3003 N.am      3 UNK        -0.5000 
     60 C          -3.7123  -14.9176  -43.9736 C.2       2 UNK         0.5000 
     61 O          -3.9169  -15.3003  -42.8213 O.2       2 UNK        -0.5000 
     62 CA         -3.7366  -15.9377  -45.1275 C.3       2 UNK         0.1400 
     63 CB         -5.1843  -16.2046  -45.5669 C.3       2 UNK        -0.1800 
     64 N          -2.9555  -15.5176  -46.2922 N.am      2 UNK        -0.5000 
     65 C          -1.6185  -15.5069  -46.3615 C.2       1 UNK         0.5000 
     66 O          -0.9035  -15.8278  -45.4127 O.2       1 UNK        -0.5000 
     67 C          -1.1543  -24.0140  -47.1911 C.2       11 UNK         0.5000 
     68 O          -1.7543  -23.3597  -46.3338 O.2       11 UNK        -0.5000 
     69 N          -1.6953  -24.3326  -48.3754 N.am      12 UNK        -0.5000 
     70 CA         -3.0374  -23.9479  -48.8306 C.3       12 UNK         0.1400 
     71 CB         -3.2916  -24.5857  -50.2047 C.3       12 UNK        -0.1800 
     72 C          -3.2924  -22.4260  -48.9003 C.2       12 UNK         0.5000 
     73 O          -4.4484  -22.0090  -48.9920 O.2       12 UNK        -0.5000 
     74 N          -2.2323  -21.6055  -48.8684 N.am      13 UNK        -0.5000 
     75 CA         -2.3248  -20.1464  -48.7930 C.3       13 UNK         0.1400 
     76 CB         -0.9752  -19.5123  -49.1442 C.3       13 UNK        -0.1800 
     77 C          -2.8252  -19.6512  -47.4259 C.2       13 UNK         0.5000 
     78 O          -3.3896  -18.5621  -47.3684 O.2       13 UNK        -0.5000 
     79 N          -2.6976  -20.4753  -46.3727 N.am      14 UNK        -0.5000 
     80 CA         -3.2945  -20.2328  -45.0556 C.3       14 UNK         0.1400 
     81 CB         -2.7776  -21.2840  -44.0620 C.3       14 UNK        -0.1800 
     82 C          -4.8367  -20.2433  -45.0882 C.2       14 UNK         0.5000 
     83 O          -5.4672  -19.5524  -44.2892 O.2       14 UNK        -0.5000 
     84 N          -5.4066  -21.0025  -46.0345 N.am      15 UNK        -0.5000 
     85 CA         -6.8378  -21.0613  -46.3340 C.3       15 UNK         0.1400 
     86 CB         -7.1861  -22.5042  -46.7389 C.3       15 UNK        -0.1800 
     87 C          -7.2451  -20.0664  -47.4427 C.2       15 UNK         0.5000 
     88 O          -8.4016  -20.0806  -47.8640 O.2       15 UNK        -0.5000 
     89 N          -6.2907  -19.2488  -47.9163 N.am      16 UNK        -0.5000 
     90 CA         -6.3869  -18.2619  -48.9988 C.3       16 UNK         0.1400 
     91 CB         -7.4534  -17.1909  -48.6898 C.3       16 UNK        -0.1800 
     92 C          -6.5607  -18.8697  -50.4088 C.2       16 UNK         0.5000 
     93 O          -6.7724  -18.1183  -51.3614 O.2       16 UNK        -0.5000 
     94 N          -6.4551  -20.2000  -50.5370 N.am      17 UNK        -0.5000 
     95 CA         -6.5779  -20.9192  -51.8055 C.3       17 UNK         0.1400 
     96 CB         -7.0213  -22.3641  -51.5287 C.3       17 UNK        -0.1800 
     97 C          -5.2602  -20.8978  -52.5949 C.2       17 UNK         0.5000 
     98 O          -5.2754  -20.6895  -53.8093 O.2       17 UNK        -0.5000 
     99 N          -4.1487  -21.1204  -51.8768 N.am      18 UNK        -0.5000 
    100 CA        -2.7567  -21.0802  -52.3449 C.3       18 UNK         0.1400 
    101 CB        -2.3273  -19.6227  -52.5920 C.3       18 UNK        -0.1800 
    102 C         -2.4645  -22.0001  -53.5468 C.2       18 UNK         0.5000 
    103 O         -1.6715  -21.6364  -54.4134 O.2       18 UNK        -0.5000 
    104 N         -3.1281  -23.1663  -53.5869 N.am      19 UNK        -0.5000 
    105 CA        -3.0659  -24.1659  -54.6613 C.3       19 UNK         0.1400 
    106 CB        -1.6869  -24.8587  -54.6788 C.3       19 UNK        -0.1800 
    107 C         -3.4687  -23.5711  -56.0291 C.2       19 UNK         0.5000 
    108 O         -2.7557  -23.7442  -57.0187 O.2       19 UNK        -0.5000 
    109 N         -4.6028  -22.8548  -56.0255 N.am      20 UNK        -0.5000 
    110 CA        -5.1631  -22.0558  -57.1175 C.3       20 UNK         0.1400 
    111 CB        -5.4523  -22.9092  -58.3715 C.3       20 UNK        -0.1800 
    112 C         -4.3015  -20.8105  -57.3998 C.2       20 UNK         0.5000 
    113 O         -3.7624  -20.6559  -58.4982 O.2       20 UNK        -0.5000 
    114 N         -4.1941  -19.9456  -56.3793 N.am      21 UNK        -0.5000 
    115 CA        -3.5738  -18.6143  -56.4074 C.3       21 UNK         0.1400 
    116 CB        -4.4389  -17.6479  -57.2435 C.3       21 UNK        -0.1800 
    117 C         -2.0934  -18.6222  -56.8468 C.2       21 UNK         0.5000 
    118 O         -1.6598  -17.7251  -57.5726 O.2       21 UNK        -0.5000 
    119 N         -1.3534  -19.6485  -56.4104 N.am      22 UNK        -0.5000 
    120 CA         0.0547  -19.9221  -56.7414 C.3       22 UNK         0.1400 
    121 C          0.3046  -20.3160  -58.2306 C.2       22 UNK         0.5000 
    122 N         -0.7154  -20.6344  -59.0207 N.am      22 UNK        -0.7600 
    123 O          1.4481  -20.3672  -58.6761 O.2       22 UNK        -0.5000 
    124 C124        1.0342  -18.8230  -56.2353 C.3       23 UNK        -0.0398 
    125 S125        0.8600  -18.4804  -54.4481 S.3       23 UNK        -0.2404 
    126 C126        2.3024  -19.3644  -53.7718 C.3       23 UNK        -0.0205 
    127 H127       -3.9043  -15.8411  -51.2300 H         1 UNK         0.0600 
    128 H128       -2.2747  -16.5172  -51.2574 H         1 UNK         0.0600 
    129 H129       -3.5451  -17.3118  -50.3197 H         1 UNK         0.0600 
    130 H130       -0.9809  -16.4191  -49.2862 H         1 UNK         0.3000 
    131 H131       -1.2282  -13.9901  -47.7862 H         1 UNK         0.0600 
    132 H132        1.0054  -14.7256  -46.8360 H         1 UNK         0.0800 
    133 H133        0.9427  -14.5434  -48.5544 H         1 UNK         0.0800 
    134 H134        3.2329  -16.4239  -49.1248 H         1 UNK         0.0800 
    135 H135        1.8338  -16.0140  -50.0935 H         1 UNK         0.0800 
    136 H136        2.1688  -17.2081  -52.0994 H         1 UNK         0.1150 
    137 H137        2.5229  -21.4785  -52.0596 H         1 UNK         0.1150 
    138 H138        2.6315  -19.2905  -48.3824 H         1 UNK         0.1150 
    139 H139        3.0152  -22.6410  -50.0134 H         1 UNK         0.0800 
    140 H140        3.4574  -21.7389  -48.5769 H         1 UNK         0.0800 
    141 H141        2.3131  -24.1650  -47.8210 H         1 UNK         0.0800 
    142 H142        1.1108  -24.6026  -48.9956 H         1 UNK         0.0800 
    143 H143        0.3246  -25.5105  -46.9026 H         1 UNK         0.0600 
    144 H144        0.3120  -23.0114  -45.4164 H         1 UNK         0.3000 
    145 H145        1.2277  -23.5886  -42.9574 H         1 UNK         0.0600 
    146 H146        3.5444  -23.5242  -42.0327 H         1 UNK         0.0600 
    147 H147        3.1100  -25.1485  -42.5418 H         1 UNK         0.0600 
    148 H148        4.1795  -24.1734  -43.5432 H         1 UNK         0.0600 
    149 H149        1.7823  -21.4932  -43.4350 H         1 UNK         0.3000 
    150 H150        3.9453  -19.9138  -45.8244 H         1 UNK         0.0600 
    151 H151        1.5509  -19.9947  -46.5160 H         1 UNK         0.0600 
    152 H152        1.8974  -18.4999  -45.6523 H         1 UNK         0.0600 
    153 H153        1.0333  -19.8044  -44.8554 H         1 UNK         0.0600 
    154 H154        2.9093  -18.8610  -43.4336 H         1 UNK         0.3000 
    155 H155        5.5802  -19.5827  -41.2012 H         1 UNK         0.0600 
    156 H156        4.7414  -16.9757  -42.5805 H         1 UNK         0.0600 
    157 H157        6.3778  -17.6057  -42.4600 H         1 UNK         0.0600 
    158 H158        5.5281  -17.1002  -41.0077 H         1 UNK         0.0600 
    159 H159        2.9828  -18.1834  -41.2985 H         1 UNK         0.3000 
    160 H160        1.2198  -20.7800  -39.6882 H         1 UNK         0.0600 
    161 H161        0.7562  -19.1165  -37.9087 H         1 UNK         0.0600 
    162 H162        2.1682  -18.1718  -38.3832 H         1 UNK         0.0600 
    163 H163        2.3682  -19.7829  -37.7037 H         1 UNK         0.0600 
    164 H164        0.5852  -18.0366  -40.2596 H         1 UNK         0.3000 
    165 H165       -0.5667  -18.5548  -43.5917 H         1 UNK         0.0600 
    166 H166       -2.6589  -17.7461  -42.6318 H         1 UNK         0.0600 
    167 H167       -2.3673  -19.3310  -41.9381 H         1 UNK         0.0600 
    168 H168       -2.0431  -17.8936  -40.9891 H         1 UNK         0.0600 
    169 H169       -0.7299  -16.2046  -42.2002 H         1 UNK         0.3000 
    170 H170        2.3463  -14.9126  -41.8199 H         1 UNK         0.0600 
    171 H171        2.6956  -14.8943  -44.3270 H         1 UNK         0.0600 
    172 H172        2.2811  -13.3168  -43.6737 H         1 UNK         0.0600 
    173 H173        1.0625  -14.2651  -44.5179 H         1 UNK         0.0600 
    174 H174       -0.0554  -13.5283  -42.5320 H         1 UNK         0.3000 
    175 H175       -1.7532  -13.8837  -39.4649 H         1 UNK         0.0600 
    176 H176       -1.5889  -11.4062  -39.3950 H         1 UNK         0.0600 
    177 H177       -0.0848  -12.1564  -38.8846 H         1 UNK         0.0600 
    178 H178       -0.2048  -11.4471  -40.4869 H         1 UNK         0.0600 
    179 H179       -3.1357  -13.6509  -41.1379 H         1 UNK         0.3000 
    180 H180       -4.3044  -12.5826  -42.6983 H         1 UNK         0.0600 
    181 H181       -2.7557  -11.0981  -44.8874 H         1 UNK         0.0600 
    182 H182       -3.5149  -10.3427  -43.4914 H         1 UNK         0.0600 
    183 H183       -4.5068  -11.1537  -44.6930 H         1 UNK         0.0600 
    184 H184       -3.3066  -13.4235  -45.2698 H         1 UNK         0.3000 
    185 H185       -3.3156  -16.8726  -44.7557 H         1 UNK         0.0600 
    186 H186       -5.6563  -15.3076  -45.9693 H         1 UNK         0.0600 
    187 H187       -5.2273  -16.9774  -46.3326 H         1 UNK         0.0600 
    188 H188       -5.7902  -16.5507  -44.7284 H         1 UNK         0.0600 
    189 H189       -3.4695  -15.2513  -47.1272 H         1 UNK         0.3000 
    190 H190       -1.1438  -24.8615  -49.0352 H         1 UNK         0.3000 
    191 H191       -3.7596  -24.3570  -48.1214 H         1 UNK         0.0600 
    192 H192       -3.2351  -25.6730  -50.1498 H         1 UNK         0.0600 
    193 H193       -2.5624  -24.2504  -50.9430 H         1 UNK         0.0600 
    194 H194       -4.2847  -24.3357  -50.5799 H         1 UNK         0.0600 
    195 H195       -1.3047  -22.0041  -48.8039 H         1 UNK         0.3000 
    196 H196       -3.0519  -19.8150  -49.5358 H         1 UNK         0.0600 
    197 H197       -1.0819  -18.4392  -49.2907 H         1 UNK         0.0600 
    198 H198       -0.5619  -19.9219  -50.0661 H         1 UNK         0.0600 
    199 H199       -0.2428  -19.6584  -48.3503 H         1 UNK         0.0600 
    200 H200       -2.2484  -21.3762  -46.4995 H         1 UNK         0.3000 
    201 H201       -2.9730  -19.2473  -44.7155 H         1 UNK         0.0600 
    202 H202       -1.6916  -21.2476  -43.9729 H         1 UNK         0.0600 
    203 H203       -3.0587  -22.2932  -44.3627 H         1 UNK         0.0600 
    204 H204       -3.1961  -21.1256  -43.0682 H         1 UNK         0.0600 
    205 H205       -4.8063  -21.5242  -46.6580 H         1 UNK         0.3000 
    206 H206       -7.4131  -20.8088  -45.4411 H         1 UNK         0.0600 
    207 H207       -6.9049  -23.2113  -45.9584 H         1 UNK         0.0600 
    208 H208       -8.2580  -22.6180  -46.9053 H         1 UNK         0.0600 
    209 H209       -6.6793  -22.8003  -47.6580 H         1 UNK         0.0600 
    210 H210       -5.3754  -19.3029  -47.4867 H         1 UNK         0.3000 
    211 H211       -5.4234  -17.7535  -49.0106 H         1 UNK         0.0600 
    212 H212       -8.4650  -17.5903  -48.7638 H         1 UNK         0.0600 
    213 H213       -7.3824  -16.3577  -49.3899 H         1 UNK         0.0600 
    214 H214       -7.3268  -16.7808  -47.6883 H         1 UNK         0.0600 
    215 H215       -6.2396  -20.7510  -49.7166 H         1 UNK         0.3000 
    216 H216       -7.3456  -20.4420  -52.4186 H         1 UNK         0.0600 
    217 H217       -7.1160  -22.9296  -52.4567 H         1 UNK         0.0600 
    218 H218       -7.9929  -22.3865  -51.0349 H         1 UNK         0.0600 
    219 H219       -6.3133  -22.8931  -50.8902 H         1 UNK         0.0600 
    220 H220       -4.2756  -21.3111  -50.8892 H         1 UNK         0.3000 
    221 H221       -2.1372  -21.4670  -51.5377 H         1 UNK         0.0600 
    222 H222       -2.8449  -19.1891  -53.4452 H         1 UNK         0.0600 
    223 H223       -2.5318  -18.9971  -51.7263 H         1 UNK         0.0600 
    224 H224       -1.2566  -19.5609  -52.7836 H         1 UNK         0.0600 
    225 H225       -3.7792  -23.3628  -52.8415 H         1 UNK         0.3000 
    226 H226       -3.8119  -24.9261  -54.4250 H         1 UNK         0.0600 
    227 H227       -1.4468  -25.2818  -53.7035 H         1 UNK         0.0600 
    228 H228       -1.6709  -25.6764  -55.4002 H         1 UNK         0.0600 
    229 H229       -0.8877  -24.1684  -54.9504 H         1 UNK         0.0600 
    230 H230       -5.0669  -22.7332  -55.1359 H         1 UNK         0.3000 
    231 H231       -6.1245  -21.6863  -56.7569 H         1 UNK         0.0600 
    232 H232       -6.0708  -23.7726  -58.1269 H         1 UNK         0.0600 
    233 H233       -4.5404  -23.2722  -58.8455 H         1 UNK         0.0600 
    234 H234       -5.9909  -22.3245  -59.1180 H         1 UNK         0.0600 
    235 H235       -4.6277  -20.2006  -55.4937 H         1 UNK         0.3000 
    236 H236       -3.5844  -18.2468  -55.3817 H         1 UNK         0.0600 
    237 H237       -4.0672  -16.6252  -57.1712 H         1 UNK         0.0600 
    238 H238       -4.4440  -17.9213  -58.2992 H         1 UNK         0.0600 
    239 H239       -5.4713  -17.6405  -56.8938 H         1 UNK         0.0600 
    240 H240       -1.7736  -20.3385  -55.7940 H         1 UNK         0.3000 
    241 H241        0.2952  -20.8302  -56.1880 H         1 UNK         0.0600 
    242 H242       -0.5363  -20.8985  -59.9762 H         1 UNK         0.3800 
    243 H243       -1.6706  -20.6034  -58.6819 H         1 UNK         0.3800 
    244 H244        2.0677  -19.1087  -56.4366 H         1 UNK         0.0800 
    245 H245        0.8747  -17.8910  -56.7785 H         1 UNK         0.0800 
    246 H246        2.2830  -20.3924  -54.1375 H         1 UNK         0.0800 
    247 H247        3.2160  -18.9113  -54.1587 H         1 UNK         0.0800 
@<TRIPOS>BOND
     1    1    2 1    
     2    1  127 1    
     3    1  128 1    
     4    1  129 1    
     5    2    3 2    
     6    2    4 am   BACKBONE|DICT|INTERRES
     7    4    5 1    
     8    4  130 1    
     9    5    6 1    
    10    5   65 1    
    11    5  131 1    
    12    6    7 1    
    13    6  132 1    
    14    6  133 1    
    15    7    8 1    
    16    8    9 1    
    17    8  134 1    
    18    8  135 1    
    19    9   10 ar   
    20    9   14 ar   
    21   10   11 ar   
    22   10  136 1    
    23   11   12 ar   
    24   11  126 1    
    25   12   13 ar   
    26   12  137 1    
    27   13   14 ar   
    28   13   15 1    
    29   14  138 1    
    30   15   16 1    
    31   15  139 1    
    32   15  140 1    
    33   16   17 1    
    34   17   18 1    
    35   17  141 1    
    36   17  142 1    
    37   18   19 1    
    38   18   67 1    
    39   18  143 1    
    40   19   20 am   BACKBONE|DICT|INTERRES
    41   19  144 1    
    42   20   21 2    
    43   20   22 1    
    44   22   23 1    
    45   22   24 1    
    46   22  145 1    
    47   23  146 1    
    48   23  147 1    
    49   23  148 1    
    50   24   25 am   BACKBONE|DICT|INTERRES
    51   24  149 1    
    52   25   26 2    
    53   25   27 1    
    54   27   28 1    
    55   27   29 1    
    56   27  150 1    
    57   28  151 1    
    58   28  152 1    
    59   28  153 1    
    60   29   30 am   BACKBONE|DICT|INTERRES
    61   29  154 1    
    62   30   31 2    
    63   30   32 1    
    64   32   33 1    
    65   32   34 1    
    66   32  155 1    
    67   33  156 1    
    68   33  157 1    
    69   33  158 1    
    70   34   35 am   BACKBONE|DICT|INTERRES
    71   34  159 1    
    72   35   36 2    
    73   35   37 1    
    74   37   38 1    
    75   37   39 1    
    76   37  160 1    
    77   38  161 1    
    78   38  162 1    
    79   38  163 1    
    80   39   40 am   BACKBONE|DICT|INTERRES
    81   39  164 1    
    82   40   41 2    
    83   40   42 1    
    84   42   43 1    
    85   42   44 1    
    86   42  165 1    
    87   43  166 1    
    88   43  167 1    
    89   43  168 1    
    90   44   45 am   BACKBONE|DICT|INTERRES
    91   44  169 1    
    92   45   46 2    
    93   45   47 1    
    94   47   48 1    
    95   47   49 1    
    96   47  170 1    
    97   48  171 1    
    98   48  172 1    
    99   48  173 1    
   100   49   50 am   BACKBONE|DICT|INTERRES
   101   49  174 1    
   102   50   51 2    
   103   50   52 1    
   104   52   53 1    
   105   52   54 1    
   106   52  175 1    
   107   53  176 1    
   108   53  177 1    
   109   53  178 1    
   110   54   55 am   BACKBONE|DICT|INTERRES
   111   54  179 1    
   112   55   56 2    
   113   55   57 1    
   114   57   58 1    
   115   57   59 1    
   116   57  180 1    
   117   58  181 1    
   118   58  182 1    
   119   58  183 1    
   120   59   60 am   BACKBONE|DICT|INTERRES
   121   59  184 1    
   122   60   61 2    
   123   60   62 1    
   124   62   63 1    
   125   62   64 1    
   126   62  185 1    
   127   63  186 1    
   128   63  187 1    
   129   63  188 1    
   130   64   65 am   BACKBONE|DICT|INTERRES
   131   64  189 1    
   132   65   66 2    
   133   67   68 2    
   134   67   69 am   BACKBONE|DICT|INTERRES
   135   69   70 1    
   136   69  190 1    
   137   70   71 1    
   138   70   72 1    
   139   70  191 1    
   140   71  192 1    
   141   71  193 1    
   142   71  194 1    
   143   72   73 2    
   144   72   74 am   BACKBONE|DICT|INTERRES
   145   74   75 1    
   146   74  195 1    
   147   75   76 1    
   148   75   77 1    
   149   75  196 1    
   150   76  197 1    
   151   76  198 1    
   152   76  199 1    
   153   77   78 2    
   154   77   79 am   BACKBONE|DICT|INTERRES
   155   79   80 1    
   156   79  200 1    
   157   80   81 1    
   158   80   82 1    
   159   80  201 1    
   160   81  202 1    
   161   81  203 1    
   162   81  204 1    
   163   82   83 2    
   164   82   84 am   BACKBONE|DICT|INTERRES
   165   84   85 1    
   166   84  205 1    
   167   85   86 1    
   168   85   87 1    
   169   85  206 1    
   170   86  207 1    
   171   86  208 1    
   172   86  209 1    
   173   87   88 2    
   174   87   89 am   BACKBONE|DICT|INTERRES
   175   89   90 1    
   176   89  210 1    
   177   90   91 1    
   178   90   92 1    
   179   90  211 1    
   180   91  212 1    
   181   91  213 1    
   182   91  214 1    
   183   92   93 2    
   184   92   94 am   BACKBONE|DICT|INTERRES
   185   94   95 1    
   186   94  215 1    
   187   95   96 1    
   188   95   97 1    
   189   95  216 1    
   190   96  217 1    
   191   96  218 1    
   192   96  219 1    
   193   97   98 2    
   194   97   99 am   BACKBONE|DICT|INTERRES
   195   99  100 1    
   196   99  220 1    
   197  100  101 1    
   198  100  102 1    
   199  100  221 1    
   200  101  222 1    
   201  101  223 1    
   202  101  224 1    
   203  102  103 2    
   204  102  104 am   BACKBONE|DICT|INTERRES
   205  104  105 1    
   206  104  225 1    
   207  105  106 1    
   208  105  107 1    
   209  105  226 1    
   210  106  227 1    
   211  106  228 1    
   212  106  229 1    
   213  107  108 2    
   214  107  109 am   BACKBONE|DICT|INTERRES
   215  109  110 1    
   216  109  230 1    
   217  110  111 1    
   218  110  112 1    
   219  110  231 1    
   220  111  232 1    
   221  111  233 1    
   222  111  234 1    
   223  112  113 2    
   224  112  114 am   BACKBONE|DICT|INTERRES
   225  114  115 1    
   226  114  235 1    
   227  115  116 1    
   228  115  117 1    
   229  115  236 1    
   230  116  237 1    
   231  116  238 1    
   232  116  239 1    
   233  117  118 2    
   234  117  119 am   BACKBONE|DICT|INTERRES
   235  119  120 1    
   236  119  240 1    
   237  120  121 1    
   238  120  124 1    
   239  120  241 1    
   240  121  122 am   BACKBONE|DICT|INTERRES
   241  121  123 2    
   242  122  242 1    
   243  122  243 1    
   244  124  125 1    
   245  124  244 1    
   246  124  245 1    
   247  125  126 1    
   248  126  246 1    
   249  126  247 1    
@<TRIPOS>SUBSTRUCTURE
     1 UNK         1 GROUP             0       ****    0 ROOT    
