@<TRIPOS>MOLECULE
3R540
247   249    1
SMALL
USER_CHARGES


@<TRIPOS>ATOM
      1 CA         -2.6217   -8.7426  -45.7953 C.3       0 UNK        -0.1800 
      2 C          -2.0921  -10.1675  -45.8758 C.2       0 UNK         0.5000 
      3 O          -1.9520  -10.8243  -44.8440 O.2       0 UNK        -0.5000 
      4 N          -1.8037  -10.6424  -47.0962 N.am      1 UNK        -0.5000 
      5 CA         -1.2310  -11.9593  -47.4059 C.3       1 UNK         0.1400 
      6 C6         -2.1743  -13.1279  -46.9828 C.3       23 UNK        -0.0398 
      7 S7         -1.9679  -14.7717  -47.7732 S.3       23 UNK        -0.2404 
      8 C8         -1.0789  -14.4826  -49.3416 C.3       23 UNK        -0.0205 
      9 C9         -0.7385  -15.7952  -50.0313 C.ar      23 UNK        -0.0193 
     10 C10        -1.2496  -16.0923  -51.2983 C.ar      23 UNK        -0.1150 
     11 C11        -0.9131  -17.2921  -51.9327 C.ar      23 UNK        -0.0193 
     12 C12        -0.0812  -18.2073  -51.2808 C.ar      23 UNK        -0.1150 
     13 C13         0.4278  -17.9300  -50.0087 C.ar      23 UNK        -0.0193 
     14 C14         0.1117  -16.7096  -49.4032 C.ar      23 UNK        -0.1150 
     15 C15         1.3242  -18.9523  -49.3125 C.3       23 UNK        -0.0205 
     16 S16         1.0369  -19.1008  -47.5142 S.3       23 UNK        -0.2404 
     17 C17        -0.7330  -19.5423  -47.4342 C.3       23 UNK        -0.0398 
     18 CA         -0.9833  -20.9642  -46.8833 C.3       11 UNK         0.1400 
     19 N          -0.3693  -21.1938  -45.5660 N.am      11 UNK        -0.5000 
     20 C          -0.3861  -22.3563  -44.8931 C.2       10 UNK         0.5000 
     21 O          -0.9227  -23.3816  -45.3141 O.2       10 UNK        -0.5000 
     22 CA          0.2469  -22.3608  -43.4936 C.3       10 UNK         0.1400 
     23 CB          1.7753  -22.4904  -43.5782 C.3       10 UNK        -0.1800 
     24 N          -0.1201  -21.1495  -42.7614 N.am      10 UNK        -0.5000 
     25 C          -1.2873  -20.9908  -42.1195 C.2       9 UNK         0.5000 
     26 O          -2.1117  -21.8937  -41.9759 O.2       9 UNK        -0.5000 
     27 CA         -1.6087  -19.5899  -41.5614 C.3       9 UNK         0.1400 
     28 CB         -1.2144  -19.4973  -40.0800 C.3       9 UNK        -0.1800 
     29 N          -0.9618  -18.5079  -42.3059 N.am      9 UNK        -0.5000 
     30 C          -1.2677  -18.1710  -43.5687 C.2       8 UNK         0.5000 
     31 O          -2.1621  -18.7141  -44.2159 O.2       8 UNK        -0.5000 
     32 CA         -0.4058  -17.0856  -44.2467 C.3       8 UNK         0.1400 
     33 CB         -1.0643  -15.7088  -44.0787 C.3       8 UNK        -0.1800 
     34 N           0.9742  -17.0229  -43.7620 N.am      8 UNK        -0.5000 
     35 C           1.8380  -18.0457  -43.6992 C.2       7 UNK         0.5000 
     36 O           1.5834  -19.1761  -44.1152 O.2       7 UNK        -0.5000 
     37 CA          3.1739  -17.7905  -42.9733 C.3       7 UNK         0.1400 
     38 CB          4.2890  -17.4574  -43.9730 C.3       7 UNK        -0.1800 
     39 N           3.1174  -16.7436  -41.9467 N.am      7 UNK        -0.5000 
     40 C           2.3019  -16.7387  -40.8797 C.2       6 UNK         0.5000 
     41 O           1.4599  -17.6139  -40.6699 O.2       6 UNK        -0.5000 
     42 CA          2.4373  -15.5537  -39.8969 C.3       6 UNK         0.1400 
     43 CB          1.8790  -15.8715  -38.4944 C.3       6 UNK        -0.1800 
     44 N           3.8013  -15.0233  -39.8045 N.am      6 UNK        -0.5000 
     45 C           4.9160  -15.6879  -39.4563 C.2       5 UNK         0.5000 
     46 O           4.9181  -16.8531  -39.0558 O.2       5 UNK        -0.5000 
     47 CA          6.2573  -14.9269  -39.5860 C.3       5 UNK         0.1400 
     48 CB          7.4144  -15.8531  -40.0161 C.3       5 UNK        -0.1800 
     49 N           6.1969  -13.7440  -40.4570 N.am      5 UNK        -0.5000 
     50 C           5.8746  -13.7107  -41.7582 C.2       4 UNK         0.5000 
     51 O           5.5976  -14.7052  -42.4319 O.2       4 UNK        -0.5000 
     52 CA          5.7727  -12.3111  -42.3913 C.3       4 UNK         0.1400 
     53 CB          6.7204  -12.1797  -43.5937 C.3       4 UNK        -0.1800 
     54 N           4.4060  -12.0201  -42.8245 N.am      4 UNK        -0.5000 
     55 C           3.3140  -12.0247  -42.0451 C.2       3 UNK         0.5000 
     56 O           3.3410  -12.2167  -40.8282 O.2       3 UNK        -0.5000 
     57 CA          1.9590  -11.7970  -42.7438 C.3       3 UNK         0.1400 
     58 CB          1.5348  -10.3246  -42.6399 C.3       3 UNK        -0.1800 
     59 N           1.9566  -12.1938  -44.1534 N.am      3 UNK        -0.5000 
     60 C           2.0671  -13.4521  -44.5944 C.2       2 UNK         0.5000 
     61 O           2.1630  -14.4256  -43.8464 O.2       2 UNK        -0.5000 
     62 CA          2.0152  -13.6372  -46.1237 C.3       2 UNK         0.1400 
     63 CB          2.3814  -15.0612  -46.5753 C.3       2 UNK        -0.1800 
     64 N           0.6874  -13.3114  -46.6389 N.am      2 UNK        -0.5000 
     65 C           0.2200  -12.0793  -46.8702 C.2       1 UNK         0.5000 
     66 O           0.9023  -11.0645  -46.6986 O.2       1 UNK        -0.5000 
     67 C          -2.4966  -21.2671  -46.8869 C.2       11 UNK         0.5000 
     68 O          -2.9970  -21.8363  -47.8570 O.2       11 UNK        -0.5000 
     69 N          -3.1756  -20.9628  -45.7717 N.am      12 UNK        -0.5000 
     70 CA         -4.5812  -21.2754  -45.4969 C.3       12 UNK         0.1400 
     71 CB         -4.9619  -20.6779  -44.1333 C.3       12 UNK        -0.1800 
     72 C          -4.9451  -22.7768  -45.5519 C.2       12 UNK         0.5000 
     73 O          -6.1339  -23.0956  -45.5917 O.2       12 UNK        -0.5000 
     74 N          -3.9409  -23.6624  -45.5750 N.am      13 UNK        -0.5000 
     75 CA         -4.0825  -25.0792  -45.8908 C.3       13 UNK         0.1400 
     76 CB         -3.5441  -25.9190  -44.7208 C.3       13 UNK        -0.1800 
     77 C          -3.3381  -25.4077  -47.1964 C.2       13 UNK         0.5000 
     78 O          -3.9410  -25.9614  -48.1152 O.2       13 UNK        -0.5000 
     79 N          -2.0418  -25.0703  -47.2548 N.am      14 UNK        -0.5000 
     80 CA         -1.1105  -25.4953  -48.3014 C.3       14 UNK         0.1400 
     81 CB          0.3239  -25.1611  -47.8628 C.3       14 UNK        -0.1800 
     82 C          -1.3964  -24.9041  -49.6922 C.2       14 UNK         0.5000 
     83 O          -1.3063  -25.6277  -50.6843 O.2       14 UNK        -0.5000 
     84 N          -1.7291  -23.6090  -49.7438 N.am      15 UNK        -0.5000 
     85 CA         -2.0656  -22.9021  -50.9800 C.3       15 UNK         0.1400 
     86 CB         -1.6575  -21.4271  -50.8611 C.3       15 UNK        -0.1800 
     87 C          -3.5636  -23.0325  -51.2873 C.2       15 UNK         0.5000 
     88 O          -3.9349  -23.1835  -52.4504 O.2       15 UNK        -0.5000 
     89 N          -4.3931  -23.0210  -50.2327 N.am      16 UNK        -0.5000 
     90 CA         -5.8491  -23.1709  -50.2903 C.3       16 UNK         0.1400 
     91 CB         -6.4239  -23.0077  -48.8794 C.3       16 UNK        -0.1800 
     92 C          -6.3221  -24.5013  -50.9088 C.2       16 UNK         0.5000 
     93 O          -7.3997  -24.5428  -51.5025 O.2       16 UNK        -0.5000 
     94 N          -5.4933  -25.5497  -50.8040 N.am      17 UNK        -0.5000 
     95 CA         -5.6874  -26.8549  -51.4404 C.3       17 UNK         0.1400 
     96 CB         -4.5896  -27.8116  -50.9501 C.3       17 UNK        -0.1800 
     97 C          -5.7096  -26.8126  -52.9845 C.2       17 UNK         0.5000 
     98 O          -6.2325  -27.7423  -53.6005 O.2       17 UNK        -0.5000 
     99 N          -5.1592  -25.7481  -53.5819 N.am      18 UNK        -0.5000 
    100 CA        -5.1399  -25.5005  -55.0199 C.3       18 UNK         0.1400 
    101 CB        -3.8118  -26.0096  -55.6112 C.3       18 UNK        -0.1800 
    102 C         -5.3804  -24.0045  -55.2790 C.2       18 UNK         0.5000 
    103 O         -4.6583  -23.3953  -56.0691 O.2       18 UNK        -0.5000 
    104 N         -6.3831  -23.4307  -54.5944 N.am      19 UNK        -0.5000 
    105 CA        -6.6864  -21.9930  -54.5331 C.3       19 UNK         0.1400 
    106 CB        -7.9319  -21.7804  -53.6586 C.3       19 UNK        -0.1800 
    107 C         -6.8841  -21.2875  -55.8898 C.2       19 UNK         0.5000 
    108 O         -6.6473  -20.0827  -55.9807 O.2       19 UNK        -0.5000 
    109 N         -7.2981  -22.0424  -56.9171 N.am      20 UNK        -0.5000 
    110 CA        -7.4324  -21.5739  -58.2982 C.3       20 UNK         0.1400 
    111 CB        -8.1419  -22.6560  -59.1263 C.3       20 UNK        -0.1800 
    112 C         -6.0856  -21.1932  -58.9477 C.2       20 UNK         0.5000 
    113 O         -6.0613  -20.3161  -59.8122 O.2       20 UNK        -0.5000 
    114 N         -4.9992  -21.8467  -58.5156 N.am      21 UNK        -0.5000 
    115 CA        -3.6263  -21.5439  -58.9139 C.3       21 UNK         0.1400 
    116 CB        -2.8787  -22.8584  -59.1904 C.3       21 UNK        -0.1800 
    117 C         -2.9109  -20.7368  -57.8186 C.2       21 UNK         0.5000 
    118 O         -2.2076  -19.7760  -58.1345 O.2       21 UNK        -0.5000 
    119 N         -3.1007  -21.1431  -56.5553 N.am      22 UNK        -0.5000 
    120 CA        -2.5281  -20.5855  -55.3182 C.3       22 UNK         0.1400 
    121 C         -0.9831  -20.7482  -55.1890 C.2       22 UNK         0.5000 
    122 N         -0.2058  -20.4705  -56.2263 N.am      22 UNK        -0.7600 
    123 O         -0.4838  -21.1490  -54.1426 O.2       22 UNK        -0.5000 
    124 C124       -2.9914  -19.1243  -55.0666 C.3       23 UNK        -0.0398 
    125 S125       -2.9098  -18.6314  -53.3108 S.3       23 UNK        -0.2404 
    126 C126       -1.4167  -17.5927  -53.3351 C.3       23 UNK        -0.0205 
    127 H127       -2.7022   -8.2826  -46.7805 H         1 UNK         0.0600 
    128 H128       -1.9561   -8.1298  -45.1873 H         1 UNK         0.0600 
    129 H129       -3.6096   -8.7350  -45.3347 H         1 UNK         0.0600 
    130 H130       -1.9181  -10.0302  -47.8920 H         1 UNK         0.3000 
    131 H131       -1.1507  -11.9558  -48.4918 H         1 UNK         0.0600 
    132 H132       -3.2041  -12.8353  -47.1925 H         1 UNK         0.0800 
    133 H133       -2.1393  -13.2711  -45.9017 H         1 UNK         0.0800 
    134 H134       -0.1447  -13.9494  -49.1704 H         1 UNK         0.0800 
    135 H135       -1.6912  -13.8528  -49.9890 H         1 UNK         0.0800 
    136 H136       -1.8975  -15.3859  -51.7980 H         1 UNK         0.1150 
    137 H137        0.1705  -19.1375  -51.7716 H         1 UNK         0.1150 
    138 H138        0.5095  -16.4761  -48.4266 H         1 UNK         0.1150 
    139 H139        1.2009  -19.9383  -49.7619 H         1 UNK         0.0800 
    140 H140        2.3641  -18.6674  -49.4756 H         1 UNK         0.0800 
    141 H141       -1.1716  -19.4474  -48.4284 H         1 UNK         0.0800 
    142 H142       -1.2405  -18.7981  -46.8205 H         1 UNK         0.0800 
    143 H143       -0.5163  -21.6712  -47.5718 H         1 UNK         0.0600 
    144 H144        0.1322  -20.4108  -45.1625 H         1 UNK         0.3000 
    145 H145       -0.1300  -23.2331  -42.9551 H         1 UNK         0.0600 
    146 H146        2.2279  -22.4746  -42.5867 H         1 UNK         0.0600 
    147 H147        2.2248  -21.6897  -44.1651 H         1 UNK         0.0600 
    148 H148        2.0560  -23.4332  -44.0493 H         1 UNK         0.0600 
    149 H149        0.4855  -20.3465  -42.8909 H         1 UNK         0.3000 
    150 H150       -2.6889  -19.4468  -41.6344 H         1 UNK         0.0600 
    151 H151       -1.7468  -20.2427  -39.4879 H         1 UNK         0.0600 
    152 H152       -1.4563  -18.5184  -39.6657 H         1 UNK         0.0600 
    153 H153       -0.1468  -19.6678  -39.9370 H         1 UNK         0.0600 
    154 H154       -0.1832  -18.0466  -41.8460 H         1 UNK         0.3000 
    155 H155       -0.3610  -17.3123  -45.3118 H         1 UNK         0.0600 
    156 H156       -2.0951  -15.7209  -44.4357 H         1 UNK         0.0600 
    157 H157       -0.5374  -14.9463  -44.6489 H         1 UNK         0.0600 
    158 H158       -1.0793  -15.3953  -43.0341 H         1 UNK         0.0600 
    159 H159        1.3134  -16.1107  -43.4688 H         1 UNK         0.3000 
    160 H160        3.4400  -18.7219  -42.4700 H         1 UNK         0.0600 
    161 H161        4.1513  -16.4670  -44.4051 H         1 UNK         0.0600 
    162 H162        4.3181  -18.1783  -44.7912 H         1 UNK         0.0600 
    163 H163        5.2655  -17.4723  -43.4888 H         1 UNK         0.0600 
    164 H164        3.7665  -15.9741  -42.0632 H         1 UNK         0.3000 
    165 H165        1.8311  -14.7501  -40.3173 H         1 UNK         0.0600 
    166 H166        1.9723  -15.0130  -37.8293 H         1 UNK         0.0600 
    167 H167        0.8202  -16.1285  -38.5430 H         1 UNK         0.0600 
    168 H168        2.3978  -16.7123  -38.0332 H         1 UNK         0.0600 
    169 H169        3.9029  -14.0612  -40.1115 H         1 UNK         0.3000 
    170 H170        6.4870  -14.5555  -38.5864 H         1 UNK         0.0600 
    171 H171        7.2176  -16.3264  -40.9786 H         1 UNK         0.0600 
    172 H172        8.3514  -15.3024  -40.0982 H         1 UNK         0.0600 
    173 H173        7.5721  -16.6494  -39.2878 H         1 UNK         0.0600 
    174 H174        6.3625  -12.8632  -39.9893 H         1 UNK         0.3000 
    175 H175        6.0549  -11.5602  -41.6506 H         1 UNK         0.0600 
    176 H176        6.4611  -12.8790  -44.3898 H         1 UNK         0.0600 
    177 H177        6.6941  -11.1724  -44.0097 H         1 UNK         0.0600 
    178 H178        7.7513  -12.3834  -43.3012 H         1 UNK         0.0600 
    179 H179        4.2722  -11.8780  -43.8140 H         1 UNK         0.3000 
    180 H180        1.2163  -12.4043  -42.2222 H         1 UNK         0.0600 
    181 H181        0.5427  -10.1702  -43.0656 H         1 UNK         0.0600 
    182 H182        2.2307   -9.6675  -43.1629 H         1 UNK         0.0600 
    183 H183        1.4954  -10.0014  -41.5988 H         1 UNK         0.0600 
    184 H184        1.8074  -11.4622  -44.8396 H         1 UNK         0.3000 
    185 H185        2.7478  -12.9562  -46.5622 H         1 UNK         0.0600 
    186 H186        1.6849  -15.8061  -46.1905 H         1 UNK         0.0600 
    187 H187        2.3843  -15.1377  -47.6625 H         1 UNK         0.0600 
    188 H188        3.3808  -15.3310  -46.2362 H         1 UNK         0.0600 
    189 H189        0.0632  -14.0928  -46.7878 H         1 UNK         0.3000 
    190 H190       -2.6935  -20.4304  -45.0538 H         1 UNK         0.3000 
    191 H191       -5.1771  -20.7787  -46.2647 H         1 UNK         0.0600 
    192 H192       -4.3749  -21.1171  -43.3265 H         1 UNK         0.0600 
    193 H193       -6.0144  -20.8527  -43.9065 H         1 UNK         0.0600 
    194 H194       -4.8033  -19.5995  -44.1156 H         1 UNK         0.0600 
    195 H195       -2.9919  -23.3123  -45.5225 H         1 UNK         0.3000 
    196 H196       -5.1318  -25.3420  -46.0398 H         1 UNK         0.0600 
    197 H197       -4.1243  -25.7424  -43.8150 H         1 UNK         0.0600 
    198 H198       -2.5019  -25.6870  -44.4975 H         1 UNK         0.0600 
    199 H199       -3.6050  -26.9848  -44.9441 H         1 UNK         0.0600 
    200 H200       -1.6255  -24.5752  -46.4689 H         1 UNK         0.3000 
    201 H201       -1.1899  -26.5811  -48.3875 H         1 UNK         0.0600 
    202 H202        0.5710  -25.6472  -46.9188 H         1 UNK         0.0600 
    203 H203        0.4659  -24.0876  -47.7322 H         1 UNK         0.0600 
    204 H204        1.0493  -25.5010  -48.6031 H         1 UNK         0.0600 
    205 H205       -1.8778  -23.1019  -48.8797 H         1 UNK         0.3000 
    206 H206       -1.5081  -23.3339  -51.8142 H         1 UNK         0.0600 
    207 H207       -1.7854  -20.9198  -51.8160 H         1 UNK         0.0600 
    208 H208       -2.2583  -20.8859  -50.1316 H         1 UNK         0.0600 
    209 H209       -0.6097  -21.3292  -50.5800 H         1 UNK         0.0600 
    210 H210       -3.9923  -22.8436  -49.3182 H         1 UNK         0.3000 
    211 H211       -6.2314  -22.3601  -50.9118 H         1 UNK         0.0600 
    212 H212       -6.0786  -23.8038  -48.2192 H         1 UNK         0.0600 
    213 H213       -7.5140  -23.0428  -48.8929 H         1 UNK         0.0600 
    214 H214       -6.1340  -22.0530  -48.4404 H         1 UNK         0.0600 
    215 H215       -4.6580  -25.4443  -50.2421 H         1 UNK         0.3000 
    216 H216       -6.6536  -27.2438  -51.1133 H         1 UNK         0.0600 
    217 H217       -4.6940  -28.7976  -51.4047 H         1 UNK         0.0600 
    218 H218       -4.6394  -27.9485  -49.8699 H         1 UNK         0.0600 
    219 H219       -3.5942  -27.4389  -51.1956 H         1 UNK         0.0600 
    220 H220       -4.7660  -25.0059  -53.0107 H         1 UNK         0.3000 
    221 H221       -5.9614  -26.0321  -55.5041 H         1 UNK         0.0600 
    222 H222       -2.9567  -25.4883  -55.1789 H         1 UNK         0.0600 
    223 H223       -3.6819  -27.0762  -55.4278 H         1 UNK         0.0600 
    224 H224       -3.7791  -25.8602  -56.6912 H         1 UNK         0.0600 
    225 H225       -6.9135  -24.0158  -53.9632 H         1 UNK         0.3000 
    226 H226       -5.8378  -21.5104  -54.0437 H         1 UNK         0.0600 
    227 H227       -7.7790  -22.1492  -52.6465 H         1 UNK         0.0600 
    228 H228       -8.1795  -20.7210  -53.5777 H         1 UNK         0.0600 
    229 H229       -8.8029  -22.2905  -54.0717 H         1 UNK         0.0600 
    230 H230       -7.4771  -23.0211  -56.7478 H         1 UNK         0.3000 
    231 H231       -8.0602  -20.6803  -58.2918 H         1 UNK         0.0600 
    232 H232       -8.2820  -22.3292  -60.1576 H         1 UNK         0.0600 
    233 H233       -9.1289  -22.8799  -58.7210 H         1 UNK         0.0600 
    234 H234       -7.5692  -23.5841  -59.1509 H         1 UNK         0.0600 
    235 H235       -5.1061  -22.5198  -57.7638 H         1 UNK         0.3000 
    236 H236       -3.6152  -20.9509  -59.8308 H         1 UNK         0.0600 
    237 H237       -2.8566  -23.5057  -58.3125 H         1 UNK         0.0600 
    238 H238       -3.3493  -23.4134  -60.0020 H         1 UNK         0.0600 
    239 H239       -1.8459  -22.6658  -59.4835 H         1 UNK         0.0600 
    240 H240       -3.6634  -21.9795  -56.4106 H         1 UNK         0.3000 
    241 H241       -2.9617  -21.2031  -54.5294 H         1 UNK         0.0600 
    242 H242        0.7931  -20.5821  -56.1572 H         1 UNK         0.3800 
    243 H243       -0.6312  -20.1383  -57.0859 H         1 UNK         0.3800 
    244 H244       -2.4341  -18.4214  -55.6880 H         1 UNK         0.0800 
    245 H245       -4.0346  -19.0173  -55.3676 H         1 UNK         0.0800 
    246 H246       -1.6318  -16.6659  -53.8693 H         1 UNK         0.0800 
    247 H247       -0.6277  -18.0938  -53.8976 H         1 UNK         0.0800 
@<TRIPOS>BOND
     1    1    2 1    
     2    1  127 1    
     3    1  128 1    
     4    1  129 1    
     5    2    3 2    
     6    2    4 am   BACKBONE|DICT|INTERRES
     7    4    5 1    
     8    4  130 1    
     9    5    6 1    
    10    5   65 1    
    11    5  131 1    
    12    6    7 1    
    13    6  132 1    
    14    6  133 1    
    15    7    8 1    
    16    8    9 1    
    17    8  134 1    
    18    8  135 1    
    19    9   10 ar   
    20    9   14 ar   
    21   10   11 ar   
    22   10  136 1    
    23   11   12 ar   
    24   11  126 1    
    25   12   13 ar   
    26   12  137 1    
    27   13   14 ar   
    28   13   15 1    
    29   14  138 1    
    30   15   16 1    
    31   15  139 1    
    32   15  140 1    
    33   16   17 1    
    34   17   18 1    
    35   17  141 1    
    36   17  142 1    
    37   18   19 1    
    38   18   67 1    
    39   18  143 1    
    40   19   20 am   BACKBONE|DICT|INTERRES
    41   19  144 1    
    42   20   21 2    
    43   20   22 1    
    44   22   23 1    
    45   22   24 1    
    46   22  145 1    
    47   23  146 1    
    48   23  147 1    
    49   23  148 1    
    50   24   25 am   BACKBONE|DICT|INTERRES
    51   24  149 1    
    52   25   26 2    
    53   25   27 1    
    54   27   28 1    
    55   27   29 1    
    56   27  150 1    
    57   28  151 1    
    58   28  152 1    
    59   28  153 1    
    60   29   30 am   BACKBONE|DICT|INTERRES
    61   29  154 1    
    62   30   31 2    
    63   30   32 1    
    64   32   33 1    
    65   32   34 1    
    66   32  155 1    
    67   33  156 1    
    68   33  157 1    
    69   33  158 1    
    70   34   35 am   BACKBONE|DICT|INTERRES
    71   34  159 1    
    72   35   36 2    
    73   35   37 1    
    74   37   38 1    
    75   37   39 1    
    76   37  160 1    
    77   38  161 1    
    78   38  162 1    
    79   38  163 1    
    80   39   40 am   BACKBONE|DICT|INTERRES
    81   39  164 1    
    82   40   41 2    
    83   40   42 1    
    84   42   43 1    
    85   42   44 1    
    86   42  165 1    
    87   43  166 1    
    88   43  167 1    
    89   43  168 1    
    90   44   45 am   BACKBONE|DICT|INTERRES
    91   44  169 1    
    92   45   46 2    
    93   45   47 1    
    94   47   48 1    
    95   47   49 1    
    96   47  170 1    
    97   48  171 1    
    98   48  172 1    
    99   48  173 1    
   100   49   50 am   BACKBONE|DICT|INTERRES
   101   49  174 1    
   102   50   51 2    
   103   50   52 1    
   104   52   53 1    
   105   52   54 1    
   106   52  175 1    
   107   53  176 1    
   108   53  177 1    
   109   53  178 1    
   110   54   55 am   BACKBONE|DICT|INTERRES
   111   54  179 1    
   112   55   56 2    
   113   55   57 1    
   114   57   58 1    
   115   57   59 1    
   116   57  180 1    
   117   58  181 1    
   118   58  182 1    
   119   58  183 1    
   120   59   60 am   BACKBONE|DICT|INTERRES
   121   59  184 1    
   122   60   61 2    
   123   60   62 1    
   124   62   63 1    
   125   62   64 1    
   126   62  185 1    
   127   63  186 1    
   128   63  187 1    
   129   63  188 1    
   130   64   65 am   BACKBONE|DICT|INTERRES
   131   64  189 1    
   132   65   66 2    
   133   67   68 2    
   134   67   69 am   BACKBONE|DICT|INTERRES
   135   69   70 1    
   136   69  190 1    
   137   70   71 1    
   138   70   72 1    
   139   70  191 1    
   140   71  192 1    
   141   71  193 1    
   142   71  194 1    
   143   72   73 2    
   144   72   74 am   BACKBONE|DICT|INTERRES
   145   74   75 1    
   146   74  195 1    
   147   75   76 1    
   148   75   77 1    
   149   75  196 1    
   150   76  197 1    
   151   76  198 1    
   152   76  199 1    
   153   77   78 2    
   154   77   79 am   BACKBONE|DICT|INTERRES
   155   79   80 1    
   156   79  200 1    
   157   80   81 1    
   158   80   82 1    
   159   80  201 1    
   160   81  202 1    
   161   81  203 1    
   162   81  204 1    
   163   82   83 2    
   164   82   84 am   BACKBONE|DICT|INTERRES
   165   84   85 1    
   166   84  205 1    
   167   85   86 1    
   168   85   87 1    
   169   85  206 1    
   170   86  207 1    
   171   86  208 1    
   172   86  209 1    
   173   87   88 2    
   174   87   89 am   BACKBONE|DICT|INTERRES
   175   89   90 1    
   176   89  210 1    
   177   90   91 1    
   178   90   92 1    
   179   90  211 1    
   180   91  212 1    
   181   91  213 1    
   182   91  214 1    
   183   92   93 2    
   184   92   94 am   BACKBONE|DICT|INTERRES
   185   94   95 1    
   186   94  215 1    
   187   95   96 1    
   188   95   97 1    
   189   95  216 1    
   190   96  217 1    
   191   96  218 1    
   192   96  219 1    
   193   97   98 2    
   194   97   99 am   BACKBONE|DICT|INTERRES
   195   99  100 1    
   196   99  220 1    
   197  100  101 1    
   198  100  102 1    
   199  100  221 1    
   200  101  222 1    
   201  101  223 1    
   202  101  224 1    
   203  102  103 2    
   204  102  104 am   BACKBONE|DICT|INTERRES
   205  104  105 1    
   206  104  225 1    
   207  105  106 1    
   208  105  107 1    
   209  105  226 1    
   210  106  227 1    
   211  106  228 1    
   212  106  229 1    
   213  107  108 2    
   214  107  109 am   BACKBONE|DICT|INTERRES
   215  109  110 1    
   216  109  230 1    
   217  110  111 1    
   218  110  112 1    
   219  110  231 1    
   220  111  232 1    
   221  111  233 1    
   222  111  234 1    
   223  112  113 2    
   224  112  114 am   BACKBONE|DICT|INTERRES
   225  114  115 1    
   226  114  235 1    
   227  115  116 1    
   228  115  117 1    
   229  115  236 1    
   230  116  237 1    
   231  116  238 1    
   232  116  239 1    
   233  117  118 2    
   234  117  119 am   BACKBONE|DICT|INTERRES
   235  119  120 1    
   236  119  240 1    
   237  120  121 1    
   238  120  124 1    
   239  120  241 1    
   240  121  122 am   BACKBONE|DICT|INTERRES
   241  121  123 2    
   242  122  242 1    
   243  122  243 1    
   244  124  125 1    
   245  124  244 1    
   246  124  245 1    
   247  125  126 1    
   248  126  246 1    
   249  126  247 1    
@<TRIPOS>SUBSTRUCTURE
     1 UNK         1 GROUP             0       ****    0 ROOT    
