@<TRIPOS>MOLECULE
3R540
247   249    1
SMALL
USER_CHARGES


@<TRIPOS>ATOM
      1 CA          1.1633  -11.4008  -48.5087 C.3       0 UNK        -0.1800 
      2 C           1.9098  -12.6361  -48.0270 C.2       0 UNK         0.5000 
      3 O           2.7059  -12.5460  -47.0924 O.2       0 UNK        -0.5000 
      4 N           1.6428  -13.7934  -48.6482 N.am      1 UNK        -0.5000 
      5 CA          2.2909  -15.0842  -48.3676 C.3       1 UNK         0.1400 
      6 C6          1.9051  -16.1653  -49.4026 C.3       23 UNK        -0.0398 
      7 S7          2.4848  -15.7702  -51.0907 S.3       23 UNK        -0.2404 
      8 C8          0.9336  -15.4948  -52.0162 C.3       23 UNK        -0.0205 
      9 C9         -0.0703  -16.6322  -51.8673 C.ar      23 UNK        -0.0193 
     10 C10        -1.3825  -16.3543  -51.4755 C.ar      23 UNK        -0.1150 
     11 C11        -2.3056  -17.3866  -51.2888 C.ar      23 UNK        -0.0193 
     12 C12        -1.9009  -18.7113  -51.4772 C.ar      23 UNK        -0.1150 
     13 C13        -0.5869  -19.0049  -51.8573 C.ar      23 UNK        -0.0193 
     14 C14         0.3124  -17.9591  -52.0843 C.ar      23 UNK        -0.1150 
     15 C15        -0.1363  -20.4546  -51.9856 C.3       23 UNK        -0.0205 
     16 S16         1.3545  -20.8705  -51.0078 S.3       23 UNK        -0.2404 
     17 C17         1.0551  -20.1040  -49.3752 C.3       23 UNK        -0.0398 
     18 CA          0.4442  -21.0587  -48.3214 C.3       11 UNK         0.1400 
     19 N           0.7293  -20.5715  -46.9663 N.am      11 UNK        -0.5000 
     20 C           0.2816  -21.0605  -45.8010 C.2       10 UNK         0.5000 
     21 O          -0.4708  -22.0324  -45.7072 O.2       10 UNK        -0.5000 
     22 CA          0.7003  -20.3066  -44.5190 C.3       10 UNK         0.1400 
     23 CB          1.6850  -19.1429  -44.7786 C.3       10 UNK        -0.1800 
     24 N          -0.4727  -19.8292  -43.7784 N.am      10 UNK        -0.5000 
     25 C          -1.4506  -19.0391  -44.2484 C.2       9 UNK         0.5000 
     26 O          -1.4664  -18.5674  -45.3867 O.2       9 UNK        -0.5000 
     27 CA         -2.6236  -18.7381  -43.2941 C.3       9 UNK         0.1400 
     28 CB         -3.7429  -19.7729  -43.4849 C.3       9 UNK        -0.1800 
     29 N          -2.2700  -18.7075  -41.8719 N.am      9 UNK        -0.5000 
     30 C          -1.4536  -17.8171  -41.2946 C.2       8 UNK         0.5000 
     31 O          -0.8374  -16.9545  -41.9199 O.2       8 UNK        -0.5000 
     32 CA         -1.3305  -17.9161  -39.7606 C.3       8 UNK         0.1400 
     33 CB         -0.6281  -19.2122  -39.3270 C.3       8 UNK        -0.1800 
     34 N          -0.6204  -16.7716  -39.1866 N.am      8 UNK        -0.5000 
     35 C          -1.1840  -15.5757  -38.9624 C.2       7 UNK         0.5000 
     36 O          -2.3701  -15.3332  -39.1939 O.2       7 UNK        -0.5000 
     37 CA         -0.3087  -14.4661  -38.3479 C.3       7 UNK         0.1400 
     38 CB         -0.6833  -14.2478  -36.8727 C.3       7 UNK        -0.1800 
     39 N           1.1228  -14.7543  -38.4217 N.am      7 UNK        -0.5000 
     40 C           1.9313  -14.3728  -39.4176 C.2       6 UNK         0.5000 
     41 O           1.5588  -13.7146  -40.3891 O.2       6 UNK        -0.5000 
     42 CA          3.4184  -14.7659  -39.2976 C.3       6 UNK         0.1400 
     43 CB          3.9040  -14.9241  -37.8394 C.3       6 UNK        -0.1800 
     44 N           3.7466  -15.9576  -40.0816 N.am      6 UNK        -0.5000 
     45 C           3.2078  -17.1832  -39.9790 C.2       5 UNK         0.5000 
     46 O           2.3348  -17.4795  -39.1607 O.2       5 UNK        -0.5000 
     47 CA          3.7487  -18.2540  -40.9481 C.3       5 UNK         0.1400 
     48 CB          2.7215  -19.3559  -41.2555 C.3       5 UNK        -0.1800 
     49 N           4.1850  -17.6347  -42.1988 N.am      5 UNK        -0.5000 
     50 C           5.3996  -17.7702  -42.7491 C.2       4 UNK         0.5000 
     51 O           6.2675  -18.5252  -42.3094 O.2       4 UNK        -0.5000 
     52 CA          5.7226  -16.8992  -43.9826 C.3       4 UNK         0.1400 
     53 CB          5.6312  -17.7323  -45.2695 C.3       4 UNK        -0.1800 
     54 N           4.8656  -15.7176  -44.1113 N.am      4 UNK        -0.5000 
     55 C           4.8369  -14.6941  -43.2429 C.2       3 UNK         0.5000 
     56 O           5.5842  -14.6128  -42.2672 O.2       3 UNK        -0.5000 
     57 CA          3.7610  -13.6087  -43.4500 C.3       3 UNK         0.1400 
     58 CB          4.3705  -12.3763  -44.1333 C.3       3 UNK        -0.1800 
     59 N           2.5908  -14.0495  -44.2130 N.am      3 UNK        -0.5000 
     60 C           1.7844  -15.0731  -43.8872 C.2       2 UNK         0.5000 
     61 O           1.9629  -15.7951  -42.9071 O.2       2 UNK        -0.5000 
     62 CA          0.6400  -15.3915  -44.8711 C.3       2 UNK         0.1400 
     63 CB         -0.6198  -14.5919  -44.5066 C.3       2 UNK        -0.1800 
     64 N           0.9790  -15.1242  -46.2735 N.am      2 UNK        -0.5000 
     65 C           2.0411  -15.6091  -46.9363 C.2       1 UNK         0.5000 
     66 O           2.8365  -16.4126  -46.4502 O.2       1 UNK        -0.5000 
     67 C          -1.0587  -21.2784  -48.5938 C.2       11 UNK         0.5000 
     68 O          -1.4206  -22.2741  -49.2215 O.2       11 UNK        -0.5000 
     69 N          -1.9078  -20.3791  -48.0742 N.am      12 UNK        -0.5000 
     70 CA         -3.3621  -20.4248  -48.2292 C.3       12 UNK         0.1400 
     71 CB         -3.9694  -19.1291  -47.6726 C.3       12 UNK        -0.1800 
     72 C          -4.0242  -21.6630  -47.5934 C.2       12 UNK         0.5000 
     73 O          -5.0977  -22.0596  -48.0486 O.2       12 UNK        -0.5000 
     74 N          -3.3685  -22.2645  -46.5919 N.am      13 UNK        -0.5000 
     75 CA         -3.7698  -23.5313  -45.9849 C.3       13 UNK         0.1400 
     76 CB         -3.6744  -23.4179  -44.4561 C.3       13 UNK        -0.1800 
     77 C          -2.9005  -24.6923  -46.4947 C.2       13 UNK         0.5000 
     78 O          -3.4387  -25.7569  -46.7967 O.2       13 UNK        -0.5000 
     79 N          -1.5793  -24.4753  -46.5767 N.am      14 UNK        -0.5000 
     80 CA         -0.5831  -25.4970  -46.9048 C.3       14 UNK         0.1400 
     81 CB          0.8239  -24.9526  -46.6140 C.3       14 UNK        -0.1800 
     82 C          -0.6771  -26.0185  -48.3491 C.2       14 UNK         0.5000 
     83 O          -0.6084  -27.2307  -48.5564 O.2       14 UNK        -0.5000 
     84 N          -0.8420  -25.1047  -49.3143 N.am      15 UNK        -0.5000 
     85 CA         -1.0307  -25.4316  -50.7305 C.3       15 UNK         0.1400 
     86 CB         -0.2546  -24.4185  -51.5864 C.3       15 UNK        -0.1800 
     87 C          -2.5195  -25.4400  -51.1246 C.2       15 UNK         0.5000 
     88 O          -2.8420  -25.9440  -52.1998 O.2       15 UNK        -0.5000 
     89 N          -3.3751  -24.8938  -50.2452 N.am      16 UNK        -0.5000 
     90 CA         -4.8094  -24.6329  -50.3838 C.3       16 UNK         0.1400 
     91 CB         -5.6085  -25.9067  -50.7204 C.3       16 UNK        -0.1800 
     92 C          -5.0720  -23.5044  -51.3951 C.2       16 UNK         0.5000 
     93 O          -4.8283  -23.6782  -52.5884 O.2       16 UNK        -0.5000 
     94 N          -5.5765  -22.3662  -50.9013 N.am      17 UNK        -0.5000 
     95 CA         -5.8142  -21.1234  -51.6460 C.3       17 UNK         0.1400 
     96 CB         -6.5324  -20.1264  -50.7245 C.3       17 UNK        -0.1800 
     97 C          -6.5969  -21.2790  -52.9652 C.2       17 UNK         0.5000 
     98 O          -6.2664  -20.6118  -53.9466 O.2       17 UNK        -0.5000 
     99 N          -7.5980  -22.1688  -52.9699 N.am      18 UNK        -0.5000 
    100 CA        -8.4220  -22.4808  -54.1382 C.3       18 UNK         0.1400 
    101 CB        -9.6708  -23.2506  -53.6824 C.3       18 UNK        -0.1800 
    102 C         -7.6649  -23.2737  -55.2207 C.2       18 UNK         0.5000 
    103 O         -7.8996  -23.0483  -56.4080 O.2       18 UNK        -0.5000 
    104 N         -6.7664  -24.1741  -54.7992 N.am      19 UNK        -0.5000 
    105 CA        -5.9263  -24.9824  -55.6858 C.3       19 UNK         0.1400 
    106 CB        -5.4820  -26.2546  -54.9492 C.3       19 UNK        -0.1800 
    107 C         -4.7083  -24.1879  -56.1862 C.2       19 UNK         0.5000 
    108 O         -4.3161  -24.3333  -57.3443 O.2       19 UNK        -0.5000 
    109 N         -4.1576  -23.3363  -55.3111 N.am      20 UNK        -0.5000 
    110 CA        -3.0659  -22.4061  -55.5975 C.3       20 UNK         0.1400 
    111 CB        -2.5282  -21.8605  -54.2663 C.3       20 UNK        -0.1800 
    112 C         -3.4725  -21.2407  -56.5222 C.2       20 UNK         0.5000 
    113 O         -2.5909  -20.5880  -57.0819 O.2       20 UNK        -0.5000 
    114 N         -4.7861  -21.0002  -56.6526 N.am      21 UNK        -0.5000 
    115 CA        -5.4286  -19.9168  -57.4009 C.3       21 UNK         0.1400 
    116 CB        -5.1550  -20.0426  -58.9145 C.3       21 UNK        -0.1800 
    117 C         -5.0740  -18.5331  -56.8203 C.2       21 UNK         0.5000 
    118 O         -4.6744  -17.6268  -57.5542 O.2       21 UNK        -0.5000 
    119 N         -5.2188  -18.4158  -55.4948 N.am      22 UNK        -0.5000 
    120 CA        -5.0464  -17.1858  -54.7111 C.3       22 UNK         0.1400 
    121 C         -6.0200  -16.0569  -55.1635 C.2       22 UNK         0.5000 
    122 N         -5.5315  -14.8383  -55.3515 N.am      22 UNK        -0.7600 
    123 O         -7.2204  -16.2743  -55.3164 O.2       22 UNK        -0.5000 
    124 C124       -5.2085  -17.5067  -53.2047 C.3       23 UNK        -0.0398 
    125 S125       -4.6707  -16.1609  -52.0958 S.3       23 UNK        -0.2404 
    126 C126       -3.7202  -17.0621  -50.8316 C.3       23 UNK        -0.0205 
    127 H127        1.8712  -10.6447  -48.8483 H         1 UNK         0.0600 
    128 H128        0.4885  -11.6302  -49.3337 H         1 UNK         0.0600 
    129 H129        0.5749  -10.9773  -47.6948 H         1 UNK         0.0600 
    130 H130        0.9819  -13.7979  -49.4112 H         1 UNK         0.3000 
    131 H131        3.3681  -14.9201  -48.4428 H         1 UNK         0.0600 
    132 H132        0.8272  -16.3299  -49.3899 H         1 UNK         0.0800 
    133 H133        2.3563  -17.1239  -49.1392 H         1 UNK         0.0800 
    134 H134        1.1718  -15.3739  -53.0736 H         1 UNK         0.0800 
    135 H135        0.4981  -14.5494  -51.6900 H         1 UNK         0.0800 
    136 H136       -1.6901  -15.3319  -51.3057 H         1 UNK         0.1150 
    137 H137       -2.6020  -19.5155  -51.3080 H         1 UNK         0.1150 
    138 H138        1.3283  -18.1825  -52.3786 H         1 UNK         0.1150 
    139 H139       -0.9439  -21.1275  -51.6972 H         1 UNK         0.0800 
    140 H140        0.0790  -20.6625  -53.0335 H         1 UNK         0.0800 
    141 H141        0.4713  -19.1876  -49.4645 H         1 UNK         0.0800 
    142 H142        2.0380  -19.7758  -49.0343 H         1 UNK         0.0800 
    143 H143        0.9364  -22.0285  -48.4086 H         1 UNK         0.0600 
    144 H144        1.3192  -19.7541  -46.9138 H         1 UNK         0.3000 
    145 H145        1.2000  -21.0335  -43.8775 H         1 UNK         0.0600 
    146 H146        1.8934  -18.5823  -43.8696 H         1 UNK         0.0600 
    147 H147        2.6395  -19.5137  -45.1529 H         1 UNK         0.0600 
    148 H148        1.2962  -18.4308  -45.5053 H         1 UNK         0.0600 
    149 H149       -0.5738  -20.1860  -42.8398 H         1 UNK         0.3000 
    150 H150       -3.0138  -17.7547  -43.5646 H         1 UNK         0.0600 
    151 H151       -4.0208  -19.8811  -44.5325 H         1 UNK         0.0600 
    152 H152       -4.6428  -19.4848  -42.9412 H         1 UNK         0.0600 
    153 H153       -3.4358  -20.7552  -43.1264 H         1 UNK         0.0600 
    154 H154       -2.7387  -19.3831  -41.2858 H         1 UNK         0.3000 
    155 H155       -2.3432  -17.9366  -39.3520 H         1 UNK         0.0600 
    156 H156       -0.5799  -19.2870  -38.2405 H         1 UNK         0.0600 
    157 H157       -1.1572  -20.0950  -39.6869 H         1 UNK         0.0600 
    158 H158        0.3891  -19.2627  -39.7062 H         1 UNK         0.0600 
    159 H159        0.3787  -16.8833  -39.0487 H         1 UNK         0.3000 
    160 H160       -0.5252  -13.5428  -38.8895 H         1 UNK         0.0600 
    161 H161       -0.4987  -15.1406  -36.2740 H         1 UNK         0.0600 
    162 H162       -1.7397  -13.9959  -36.7695 H         1 UNK         0.0600 
    163 H163       -0.1118  -13.4275  -36.4381 H         1 UNK         0.0600 
    164 H164        1.5105  -15.3214  -37.6813 H         1 UNK         0.3000 
    165 H165        3.9858  -13.9455  -39.7399 H         1 UNK         0.0600 
    166 H166        3.4553  -15.7825  -37.3390 H         1 UNK         0.0600 
    167 H167        4.9856  -15.0549  -37.8047 H         1 UNK         0.0600 
    168 H168        3.6695  -14.0367  -37.2501 H         1 UNK         0.0600 
    169 H169        4.4405  -15.8116  -40.8043 H         1 UNK         0.3000 
    170 H170        4.5968  -18.7176  -40.4408 H         1 UNK         0.0600 
    171 H171        2.5140  -19.9496  -40.3651 H         1 UNK         0.0600 
    172 H172        1.7781  -18.9352  -41.6045 H         1 UNK         0.0600 
    173 H173        3.0904  -20.0411  -42.0187 H         1 UNK         0.0600 
    174 H174        3.5226  -16.9803  -42.6089 H         1 UNK         0.3000 
    175 H175        6.7521  -16.5517  -43.8752 H         1 UNK         0.0600 
    176 H176        4.6275  -18.1298  -45.4188 H         1 UNK         0.0600 
    177 H177        5.8903  -17.1381  -46.1459 H         1 UNK         0.0600 
    178 H178        6.3170  -18.5798  -45.2360 H         1 UNK         0.0600 
    179 H179        4.1905  -15.7354  -44.8672 H         1 UNK         0.3000 
    180 H180        3.4081  -13.3117  -42.4607 H         1 UNK         0.0600 
    181 H181        4.7322  -12.6119  -45.1350 H         1 UNK         0.0600 
    182 H182        5.2147  -11.9885  -43.5616 H         1 UNK         0.0600 
    183 H183        3.6408  -11.5711  -44.2214 H         1 UNK         0.0600 
    184 H184        2.4069  -13.5475  -45.0733 H         1 UNK         0.3000 
    185 H185        0.4061  -16.4518  -44.7735 H         1 UNK         0.0600 
    186 H186       -0.8922  -14.7458  -43.4618 H         1 UNK         0.0600 
    187 H187       -0.4733  -13.5209  -44.6513 H         1 UNK         0.0600 
    188 H188       -1.4718  -14.9029  -45.1114 H         1 UNK         0.0600 
    189 H189        0.3889  -14.4636  -46.7569 H         1 UNK         0.3000 
    190 H190       -1.5394  -19.6274  -47.5045 H         1 UNK         0.3000 
    191 H191       -3.5734  -20.4664  -49.2990 H         1 UNK         0.0600 
    192 H192       -5.0504  -19.1039  -47.8117 H         1 UNK         0.0600 
    193 H193       -3.5534  -18.2531  -48.1685 H         1 UNK         0.0600 
    194 H194       -3.7788  -19.0201  -46.6072 H         1 UNK         0.0600 
    195 H195       -2.4689  -21.8940  -46.3091 H         1 UNK         0.3000 
    196 H196       -4.8073  -23.7642  -46.2344 H         1 UNK         0.0600 
    197 H197       -3.8877  -24.3745  -43.9773 H         1 UNK         0.0600 
    198 H198       -4.4006  -22.7003  -44.0759 H         1 UNK         0.0600 
    199 H199       -2.6820  -23.1008  -44.1328 H         1 UNK         0.0600 
    200 H200       -1.2103  -23.5734  -46.2836 H         1 UNK         0.3000 
    201 H201       -0.7543  -26.3461  -46.2396 H         1 UNK         0.0600 
    202 H202        0.9243  -24.6586  -45.5690 H         1 UNK         0.0600 
    203 H203        1.0554  -24.0834  -47.2289 H         1 UNK         0.0600 
    204 H204        1.5846  -25.7083  -46.8137 H         1 UNK         0.0600 
    205 H205       -0.9120  -24.1200  -49.0731 H         1 UNK         0.3000 
    206 H206       -0.6288  -26.4238  -50.9454 H         1 UNK         0.0600 
    207 H207        0.7989  -24.3865  -51.3081 H         1 UNK         0.0600 
    208 H208       -0.3058  -24.6805  -52.6438 H         1 UNK         0.0600 
    209 H209       -0.6599  -23.4138  -51.4819 H         1 UNK         0.0600 
    210 H210       -2.9573  -24.5152  -49.4081 H         1 UNK         0.3000 
    211 H211       -5.1455  -24.3016  -49.4012 H         1 UNK         0.0600 
    212 H212       -5.3787  -26.2903  -51.7141 H         1 UNK         0.0600 
    213 H213       -6.6803  -25.7077  -50.6928 H         1 UNK         0.0600 
    214 H214       -5.4056  -26.6993  -50.0001 H         1 UNK         0.0600 
    215 H215       -5.7070  -22.3060  -49.8953 H         1 UNK         0.3000 
    216 H216       -4.8361  -20.7112  -51.8984 H         1 UNK         0.0600 
    217 H217       -6.7444  -19.1881  -51.2357 H         1 UNK         0.0600 
    218 H218       -5.9272  -19.8870  -49.8527 H         1 UNK         0.0600 
    219 H219       -7.4835  -20.5243  -50.3686 H         1 UNK         0.0600 
    220 H220       -7.7970  -22.6745  -52.1194 H         1 UNK         0.3000 
    221 H221       -8.7485  -21.5395  -54.5857 H         1 UNK         0.0600 
    222 H222       -9.4101  -24.1952  -53.2034 H         1 UNK         0.0600 
    223 H223      -10.2581  -22.6654  -52.9745 H         1 UNK         0.0600 
    224 H224      -10.3190  -23.4797  -54.5293 H         1 UNK         0.0600 
    225 H225       -6.5619  -24.2341  -53.8104 H         1 UNK         0.3000 
    226 H226       -6.5143  -25.2839  -56.5554 H         1 UNK         0.0600 
    227 H227       -6.3394  -26.8318  -54.6029 H         1 UNK         0.0600 
    228 H228       -4.8972  -26.9000  -55.6056 H         1 UNK         0.0600 
    229 H229       -4.8613  -26.0221  -54.0836 H         1 UNK         0.0600 
    230 H230       -4.4978  -23.3505  -54.3513 H         1 UNK         0.3000 
    231 H231       -2.2659  -22.9590  -56.0938 H         1 UNK         0.0600 
    232 H232       -2.1651  -22.6643  -53.6252 H         1 UNK         0.0600 
    233 H233       -3.2953  -21.3134  -53.7178 H         1 UNK         0.0600 
    234 H234       -1.6987  -21.1755  -54.4396 H         1 UNK         0.0600 
    235 H235       -5.4102  -21.5762  -56.1050 H         1 UNK         0.3000 
    236 H236       -6.5023  -20.0429  -57.2531 H         1 UNK         0.0600 
    237 H237       -5.7387  -19.3124  -59.4760 H         1 UNK         0.0600 
    238 H238       -4.1054  -19.8748  -59.1566 H         1 UNK         0.0600 
    239 H239       -5.4305  -21.0308  -59.2828 H         1 UNK         0.0600 
    240 H240       -5.5725  -19.2204  -54.9826 H         1 UNK         0.3000 
    241 H241       -4.0211  -16.8503  -54.8796 H         1 UNK         0.0600 
    242 H242       -4.5531  -14.6367  -55.2142 H         1 UNK         0.3800 
    243 H243       -6.1542  -14.0975  -55.6340 H         1 UNK         0.3800 
    244 H244       -4.6298  -18.3990  -52.9630 H         1 UNK         0.0800 
    245 H245       -6.2480  -17.7490  -52.9799 H         1 UNK         0.0800 
    246 H246       -4.2604  -17.9649  -50.5441 H         1 UNK         0.0800 
    247 H247       -3.6636  -16.4429  -49.9352 H         1 UNK         0.0800 
@<TRIPOS>BOND
     1    1    2 1    
     2    1  127 1    
     3    1  128 1    
     4    1  129 1    
     5    2    3 2    
     6    2    4 am   BACKBONE|DICT|INTERRES
     7    4    5 1    
     8    4  130 1    
     9    5    6 1    
    10    5   65 1    
    11    5  131 1    
    12    6    7 1    
    13    6  132 1    
    14    6  133 1    
    15    7    8 1    
    16    8    9 1    
    17    8  134 1    
    18    8  135 1    
    19    9   10 ar   
    20    9   14 ar   
    21   10   11 ar   
    22   10  136 1    
    23   11   12 ar   
    24   11  126 1    
    25   12   13 ar   
    26   12  137 1    
    27   13   14 ar   
    28   13   15 1    
    29   14  138 1    
    30   15   16 1    
    31   15  139 1    
    32   15  140 1    
    33   16   17 1    
    34   17   18 1    
    35   17  141 1    
    36   17  142 1    
    37   18   19 1    
    38   18   67 1    
    39   18  143 1    
    40   19   20 am   BACKBONE|DICT|INTERRES
    41   19  144 1    
    42   20   21 2    
    43   20   22 1    
    44   22   23 1    
    45   22   24 1    
    46   22  145 1    
    47   23  146 1    
    48   23  147 1    
    49   23  148 1    
    50   24   25 am   BACKBONE|DICT|INTERRES
    51   24  149 1    
    52   25   26 2    
    53   25   27 1    
    54   27   28 1    
    55   27   29 1    
    56   27  150 1    
    57   28  151 1    
    58   28  152 1    
    59   28  153 1    
    60   29   30 am   BACKBONE|DICT|INTERRES
    61   29  154 1    
    62   30   31 2    
    63   30   32 1    
    64   32   33 1    
    65   32   34 1    
    66   32  155 1    
    67   33  156 1    
    68   33  157 1    
    69   33  158 1    
    70   34   35 am   BACKBONE|DICT|INTERRES
    71   34  159 1    
    72   35   36 2    
    73   35   37 1    
    74   37   38 1    
    75   37   39 1    
    76   37  160 1    
    77   38  161 1    
    78   38  162 1    
    79   38  163 1    
    80   39   40 am   BACKBONE|DICT|INTERRES
    81   39  164 1    
    82   40   41 2    
    83   40   42 1    
    84   42   43 1    
    85   42   44 1    
    86   42  165 1    
    87   43  166 1    
    88   43  167 1    
    89   43  168 1    
    90   44   45 am   BACKBONE|DICT|INTERRES
    91   44  169 1    
    92   45   46 2    
    93   45   47 1    
    94   47   48 1    
    95   47   49 1    
    96   47  170 1    
    97   48  171 1    
    98   48  172 1    
    99   48  173 1    
   100   49   50 am   BACKBONE|DICT|INTERRES
   101   49  174 1    
   102   50   51 2    
   103   50   52 1    
   104   52   53 1    
   105   52   54 1    
   106   52  175 1    
   107   53  176 1    
   108   53  177 1    
   109   53  178 1    
   110   54   55 am   BACKBONE|DICT|INTERRES
   111   54  179 1    
   112   55   56 2    
   113   55   57 1    
   114   57   58 1    
   115   57   59 1    
   116   57  180 1    
   117   58  181 1    
   118   58  182 1    
   119   58  183 1    
   120   59   60 am   BACKBONE|DICT|INTERRES
   121   59  184 1    
   122   60   61 2    
   123   60   62 1    
   124   62   63 1    
   125   62   64 1    
   126   62  185 1    
   127   63  186 1    
   128   63  187 1    
   129   63  188 1    
   130   64   65 am   BACKBONE|DICT|INTERRES
   131   64  189 1    
   132   65   66 2    
   133   67   68 2    
   134   67   69 am   BACKBONE|DICT|INTERRES
   135   69   70 1    
   136   69  190 1    
   137   70   71 1    
   138   70   72 1    
   139   70  191 1    
   140   71  192 1    
   141   71  193 1    
   142   71  194 1    
   143   72   73 2    
   144   72   74 am   BACKBONE|DICT|INTERRES
   145   74   75 1    
   146   74  195 1    
   147   75   76 1    
   148   75   77 1    
   149   75  196 1    
   150   76  197 1    
   151   76  198 1    
   152   76  199 1    
   153   77   78 2    
   154   77   79 am   BACKBONE|DICT|INTERRES
   155   79   80 1    
   156   79  200 1    
   157   80   81 1    
   158   80   82 1    
   159   80  201 1    
   160   81  202 1    
   161   81  203 1    
   162   81  204 1    
   163   82   83 2    
   164   82   84 am   BACKBONE|DICT|INTERRES
   165   84   85 1    
   166   84  205 1    
   167   85   86 1    
   168   85   87 1    
   169   85  206 1    
   170   86  207 1    
   171   86  208 1    
   172   86  209 1    
   173   87   88 2    
   174   87   89 am   BACKBONE|DICT|INTERRES
   175   89   90 1    
   176   89  210 1    
   177   90   91 1    
   178   90   92 1    
   179   90  211 1    
   180   91  212 1    
   181   91  213 1    
   182   91  214 1    
   183   92   93 2    
   184   92   94 am   BACKBONE|DICT|INTERRES
   185   94   95 1    
   186   94  215 1    
   187   95   96 1    
   188   95   97 1    
   189   95  216 1    
   190   96  217 1    
   191   96  218 1    
   192   96  219 1    
   193   97   98 2    
   194   97   99 am   BACKBONE|DICT|INTERRES
   195   99  100 1    
   196   99  220 1    
   197  100  101 1    
   198  100  102 1    
   199  100  221 1    
   200  101  222 1    
   201  101  223 1    
   202  101  224 1    
   203  102  103 2    
   204  102  104 am   BACKBONE|DICT|INTERRES
   205  104  105 1    
   206  104  225 1    
   207  105  106 1    
   208  105  107 1    
   209  105  226 1    
   210  106  227 1    
   211  106  228 1    
   212  106  229 1    
   213  107  108 2    
   214  107  109 am   BACKBONE|DICT|INTERRES
   215  109  110 1    
   216  109  230 1    
   217  110  111 1    
   218  110  112 1    
   219  110  231 1    
   220  111  232 1    
   221  111  233 1    
   222  111  234 1    
   223  112  113 2    
   224  112  114 am   BACKBONE|DICT|INTERRES
   225  114  115 1    
   226  114  235 1    
   227  115  116 1    
   228  115  117 1    
   229  115  236 1    
   230  116  237 1    
   231  116  238 1    
   232  116  239 1    
   233  117  118 2    
   234  117  119 am   BACKBONE|DICT|INTERRES
   235  119  120 1    
   236  119  240 1    
   237  120  121 1    
   238  120  124 1    
   239  120  241 1    
   240  121  122 am   BACKBONE|DICT|INTERRES
   241  121  123 2    
   242  122  242 1    
   243  122  243 1    
   244  124  125 1    
   245  124  244 1    
   246  124  245 1    
   247  125  126 1    
   248  126  246 1    
   249  126  247 1    
@<TRIPOS>SUBSTRUCTURE
     1 UNK         1 GROUP             0       ****    0 ROOT    
