@<TRIPOS>MOLECULE
3R540
247   249    1
SMALL
USER_CHARGES


@<TRIPOS>ATOM
      1 CA          3.1410  -18.6483  -47.1531 C.3       0 UNK        -0.1800 
      2 C           1.8542  -17.8355  -47.1787 C.2       0 UNK         0.5000 
      3 O           0.8225  -18.2957  -46.6920 O.2       0 UNK        -0.5000 
      4 N           1.9202  -16.6400  -47.7739 N.am      1 UNK        -0.5000 
      5 CA          0.8311  -15.6643  -47.8527 C.3       1 UNK         0.1400 
      6 C6          1.1321  -14.6355  -48.9739 C.3       23 UNK        -0.0398 
      7 S7         -0.3429  -13.7318  -49.5605 S.3       23 UNK        -0.2404 
      8 C8         -0.6493  -14.5145  -51.1737 C.3       23 UNK        -0.0205 
      9 C9         -1.2816  -15.8906  -51.0331 C.ar      23 UNK        -0.0193 
     10 C10        -2.6661  -16.0081  -50.8782 C.ar      23 UNK        -0.1150 
     11 C11        -3.2687  -17.2679  -50.8229 C.ar      23 UNK        -0.0193 
     12 C12        -2.4717  -18.4136  -50.8915 C.ar      23 UNK        -0.1150 
     13 C13        -1.0870  -18.3100  -51.0334 C.ar      23 UNK        -0.0193 
     14 C14        -0.4956  -17.0453  -51.1035 C.ar      23 UNK        -0.1150 
     15 C15        -0.2398  -19.5663  -51.1551 C.3       23 UNK        -0.0205 
     16 S16         0.5033  -20.0474  -49.5661 S.3       23 UNK        -0.2404 
     17 C17        -0.9427  -20.6011  -48.5986 C.3       23 UNK        -0.0398 
     18 CA         -0.5806  -21.8100  -47.7011 C.3       11 UNK         0.1400 
     19 N           0.0922  -21.4278  -46.4533 N.am      11 UNK        -0.5000 
     20 C           0.7434  -22.2992  -45.6677 C.2       10 UNK         0.5000 
     21 O           0.8943  -23.4875  -45.9548 O.2       10 UNK        -0.5000 
     22 CA          1.2508  -21.7842  -44.3075 C.3       10 UNK         0.1400 
     23 CB          2.4993  -20.9072  -44.4568 C.3       10 UNK        -0.1800 
     24 N           0.2227  -21.0508  -43.5708 N.am      10 UNK        -0.5000 
     25 C          -0.8914  -21.6128  -43.0785 C.2       9 UNK         0.5000 
     26 O          -1.1333  -22.8165  -43.1519 O.2       9 UNK        -0.5000 
     27 CA         -1.9337  -20.6812  -42.4290 C.3       9 UNK         0.1400 
     28 CB         -1.6918  -20.5818  -40.9159 C.3       9 UNK        -0.1800 
     29 N          -1.9505  -19.3352  -42.9953 N.am      9 UNK        -0.5000 
     30 C          -2.1324  -19.0194  -44.2854 C.2       8 UNK         0.5000 
     31 O          -2.4202  -19.8414  -45.1564 O.2       8 UNK        -0.5000 
     32 CA         -1.9199  -17.5418  -44.6712 C.3       8 UNK         0.1400 
     33 CB         -3.2659  -16.8625  -44.9613 C.3       8 UNK        -0.1800 
     34 N          -1.1887  -16.7482  -43.6736 N.am      8 UNK        -0.5000 
     35 C           0.0658  -16.9761  -43.2527 C.2       7 UNK         0.5000 
     36 O           0.7399  -17.9403  -43.6224 O.2       7 UNK        -0.5000 
     37 CA          0.6374  -15.9534  -42.2457 C.3       7 UNK         0.1400 
     38 CB         -0.3366  -15.6562  -41.0851 C.3       7 UNK        -0.1800 
     39 N           1.9575  -16.3247  -41.7294 N.am      7 UNK        -0.5000 
     40 C           2.2922  -17.4031  -41.0026 C.2       6 UNK         0.5000 
     41 O           1.4804  -18.2183  -40.5620 O.2       6 UNK        -0.5000 
     42 CA          3.7950  -17.6237  -40.7282 C.3       6 UNK         0.1400 
     43 CB          4.3270  -18.7806  -41.5889 C.3       6 UNK        -0.1800 
     44 N           4.6115  -16.4360  -40.9890 N.am      6 UNK        -0.5000 
     45 C           4.7149  -15.3827  -40.1670 C.2       5 UNK         0.5000 
     46 O           4.1933  -15.3308  -39.0528 O.2       5 UNK        -0.5000 
     47 CA          5.5165  -14.1724  -40.6901 C.3       5 UNK         0.1400 
     48 CB          6.9750  -14.2471  -40.2130 C.3       5 UNK        -0.1800 
     49 N           5.4961  -14.0305  -42.1516 N.am      5 UNK        -0.5000 
     50 C           4.3964  -13.7962  -42.8801 C.2       4 UNK         0.5000 
     51 O           3.2661  -13.7118  -42.3958 O.2       4 UNK        -0.5000 
     52 CA          4.5906  -13.7041  -44.4033 C.3       4 UNK         0.1400 
     53 CB          4.6715  -15.1133  -45.0154 C.3       4 UNK        -0.1800 
     54 N           3.4925  -12.9668  -45.0309 N.am      4 UNK        -0.5000 
     55 C           3.3903  -11.6289  -45.0351 C.2       3 UNK         0.5000 
     56 O           4.2515  -10.8861  -44.5607 O.2       3 UNK        -0.5000 
     57 CA          2.1444  -10.9943  -45.6907 C.3       3 UNK         0.1400 
     58 CB          2.4981  -10.4349  -47.0779 C.3       3 UNK        -0.1800 
     59 N           1.0174  -11.9139  -45.8372 N.am      3 UNK        -0.5000 
     60 C           0.2196  -12.3253  -44.8425 C.2       2 UNK         0.5000 
     61 O           0.2962  -11.9094  -43.6868 O.2       2 UNK        -0.5000 
     62 CA         -0.8367  -13.3960  -45.1953 C.3       2 UNK         0.1400 
     63 CB         -2.2001  -12.7338  -45.4451 C.3       2 UNK        -0.1800 
     64 N          -0.4971  -14.2322  -46.3545 N.am      2 UNK        -0.5000 
     65 C           0.6149  -14.9682  -46.4884 C.2       1 UNK         0.5000 
     66 O           1.4766  -15.0375  -45.6108 O.2       1 UNK        -0.5000 
     67 C          -1.8057  -22.7102  -47.4440 C.2       11 UNK         0.5000 
     68 O          -2.0732  -23.5885  -48.2628 O.2       11 UNK        -0.5000 
     69 N          -2.5131  -22.5229  -46.3205 N.am      12 UNK        -0.5000 
     70 CA         -3.6190  -23.3915  -45.9073 C.3       12 UNK         0.1400 
     71 CB         -4.3722  -22.7733  -44.7223 C.3       12 UNK        -0.1800 
     72 C          -3.1555  -24.8244  -45.5891 C.2       12 UNK         0.5000 
     73 O          -3.7791  -25.7758  -46.0590 O.2       12 UNK        -0.5000 
     74 N          -2.0402  -24.9560  -44.8565 N.am      13 UNK        -0.5000 
     75 CA         -1.3877  -26.2324  -44.5504 C.3       13 UNK         0.1400 
     76 CB         -0.2641  -26.0012  -43.5290 C.3       13 UNK        -0.1800 
     77 C          -0.8457  -26.9480  -45.8031 C.2       13 UNK         0.5000 
     78 O          -0.8977  -28.1763  -45.8723 O.2       13 UNK        -0.5000 
     79 N          -0.3729  -26.1670  -46.7838 N.am      14 UNK        -0.5000 
     80 CA          0.0660  -26.6428  -48.0977 C.3       14 UNK         0.1400 
     81 CB          0.9636  -25.5694  -48.7341 C.3       14 UNK        -0.1800 
     82 C          -1.0972  -26.9984  -49.0500 C.2       14 UNK         0.5000 
     83 O          -0.8406  -27.5601  -50.1155 O.2       14 UNK        -0.5000 
     84 N          -2.3369  -26.6467  -48.6719 N.am      15 UNK        -0.5000 
     85 CA         -3.5791  -26.7573  -49.4472 C.3       15 UNK         0.1400 
     86 CB         -3.9325  -28.2328  -49.7272 C.3       15 UNK        -0.1800 
     87 C          -3.5798  -25.8784  -50.7185 C.2       15 UNK         0.5000 
     88 O          -4.2258  -26.2207  -51.7104 O.2       15 UNK        -0.5000 
     89 N          -2.8556  -24.7551  -50.6571 N.am      16 UNK        -0.5000 
     90 CA         -2.7288  -23.7572  -51.7158 C.3       16 UNK         0.1400 
     91 CB         -1.2646  -23.2937  -51.7682 C.3       16 UNK        -0.1800 
     92 C          -3.6711  -22.5593  -51.4948 C.2       16 UNK         0.5000 
     93 O          -3.9119  -21.8061  -52.4367 O.2       16 UNK        -0.5000 
     94 N          -4.1922  -22.3909  -50.2705 N.am      17 UNK        -0.5000 
     95 CA         -5.2161  -21.3959  -49.9523 C.3       17 UNK         0.1400 
     96 CB         -5.3465  -21.2510  -48.4299 C.3       17 UNK        -0.1800 
     97 C          -6.5699  -21.7675  -50.5845 C.2       17 UNK         0.5000 
     98 O          -6.9064  -22.9522  -50.6522 O.2       17 UNK        -0.5000 
     99 N          -7.3148  -20.7409  -51.0180 N.am      18 UNK        -0.5000 
    100 CA        -8.5851  -20.8192  -51.7498 C.3       18 UNK         0.1400 
    101 CB        -9.7024  -21.4102  -50.8640 C.3       18 UNK        -0.1800 
    102 C         -8.4369  -21.5354  -53.1106 C.2       18 UNK         0.5000 
    103 O         -9.2992  -22.3261  -53.4990 O.2       18 UNK        -0.5000 
    104 N         -7.3347  -21.2399  -53.8073 N.am      19 UNK        -0.5000 
    105 CA        -6.9797  -21.7710  -55.1184 C.3       19 UNK         0.1400 
    106 CB        -6.1444  -23.0538  -54.9431 C.3       19 UNK        -0.1800 
    107 C         -6.2267  -20.6891  -55.9106 C.2       19 UNK         0.5000 
    108 O         -6.0629  -19.5669  -55.4239 O.2       19 UNK        -0.5000 
    109 N         -5.7712  -21.0440  -57.1204 N.am      20 UNK        -0.5000 
    110 CA        -5.0898  -20.1602  -58.0754 C.3       20 UNK         0.1400 
    111 CB        -4.7774  -20.9535  -59.3534 C.3       20 UNK        -0.1800 
    112 C         -3.8122  -19.4802  -57.5410 C.2       20 UNK         0.5000 
    113 O         -3.4656  -18.3952  -58.0111 O.2       20 UNK        -0.5000 
    114 N         -3.1622  -20.0955  -56.5419 N.am      21 UNK        -0.5000 
    115 CA        -2.0088  -19.5481  -55.8221 C.3       21 UNK         0.1400 
    116 CB        -1.4662  -20.6083  -54.8533 C.3       21 UNK        -0.1800 
    117 C         -2.3056  -18.2319  -55.0728 C.2       21 UNK         0.5000 
    118 O         -1.3749  -17.4602  -54.8385 O.2       21 UNK        -0.5000 
    119 N         -3.5823  -17.9783  -54.7490 N.am      22 UNK        -0.5000 
    120 CA        -4.0561  -16.7009  -54.1956 C.3       22 UNK         0.1400 
    121 C         -4.1221  -15.5390  -55.2328 C.2       22 UNK         0.5000 
    122 N         -3.9414  -15.7752  -56.5282 N.am      22 UNK        -0.7600 
    123 O         -4.3370  -14.3914  -54.8524 O.2       22 UNK        -0.5000 
    124 C124       -5.4091  -16.8335  -53.4436 C.3       23 UNK        -0.0398 
    125 S125       -5.4835  -18.1820  -52.2134 S.3       23 UNK        -0.2404 
    126 C126       -4.7806  -17.3984  -50.7249 C.3       23 UNK        -0.0205 
    127 H127        2.9232  -19.7050  -47.3103 H         1 UNK         0.0600 
    128 H128        3.8318  -18.3291  -47.9337 H         1 UNK         0.0600 
    129 H129        3.6376  -18.5343  -46.1898 H         1 UNK         0.0600 
    130 H130        2.8120  -16.3249  -48.1250 H         1 UNK         0.3000 
    131 H131       -0.0825  -16.2078  -48.1050 H         1 UNK         0.0600 
    132 H132        1.8813  -13.9103  -48.6502 H         1 UNK         0.0800 
    133 H133        1.5783  -15.1417  -49.8308 H         1 UNK         0.0800 
    134 H134        0.2784  -14.5711  -51.7453 H         1 UNK         0.0800 
    135 H135       -1.3147  -13.8708  -51.7510 H         1 UNK         0.0800 
    136 H136       -3.2760  -15.1167  -50.8352 H         1 UNK         0.1150 
    137 H137       -2.9337  -19.3891  -50.8678 H         1 UNK         0.1150 
    138 H138        0.5744  -16.9633  -51.2306 H         1 UNK         0.1150 
    139 H139       -0.8345  -20.3892  -51.5517 H         1 UNK         0.0800 
    140 H140        0.5586  -19.3960  -51.8786 H         1 UNK         0.0800 
    141 H141       -1.7347  -20.8612  -49.3028 H         1 UNK         0.0800 
    142 H142       -1.3246  -19.7685  -48.0050 H         1 UNK         0.0800 
    143 H143        0.1193  -22.4339  -48.2605 H         1 UNK         0.0600 
    144 H144        0.0208  -20.4567  -46.1747 H         1 UNK         0.3000 
    145 H145        1.5305  -22.6590  -43.7163 H         1 UNK         0.0600 
    146 H146        2.9808  -20.7501  -43.4924 H         1 UNK         0.0600 
    147 H147        3.2345  -21.3663  -45.1189 H         1 UNK         0.0600 
    148 H148        2.2458  -19.9286  -44.8603 H         1 UNK         0.0600 
    149 H149        0.3427  -20.0455  -43.4972 H         1 UNK         0.3000 
    150 H150       -2.9214  -21.1138  -42.5877 H         1 UNK         0.0600 
    151 H151       -1.6957  -21.5700  -40.4539 H         1 UNK         0.0600 
    152 H152       -2.4692  -19.9932  -40.4285 H         1 UNK         0.0600 
    153 H153       -0.7294  -20.1184  -40.6929 H         1 UNK         0.0600 
    154 H154       -1.7017  -18.5862  -42.3671 H         1 UNK         0.3000 
    155 H155       -1.3378  -17.5316  -45.5925 H         1 UNK         0.0600 
    156 H156       -3.8306  -17.4176  -45.7119 H         1 UNK         0.0600 
    157 H157       -3.1224  -15.8549  -45.3493 H         1 UNK         0.0600 
    158 H158       -3.8853  -16.7965  -44.0661 H         1 UNK         0.0600 
    159 H159       -1.6876  -15.9585  -43.2927 H         1 UNK         0.3000 
    160 H160        0.7921  -15.0274  -42.8012 H         1 UNK         0.0600 
    161 H161       -0.6375  -16.5652  -40.5632 H         1 UNK         0.0600 
    162 H162       -1.2432  -15.1651  -41.4392 H         1 UNK         0.0600 
    163 H163        0.1191  -14.9881  -40.3540 H         1 UNK         0.0600 
    164 H164        2.6993  -15.6941  -42.0066 H         1 UNK         0.3000 
    165 H165        3.9018  -17.9021  -39.6776 H         1 UNK         0.0600 
    166 H166        5.3795  -18.9765  -41.3832 H         1 UNK         0.0600 
    167 H167        3.7803  -19.7015  -41.3822 H         1 UNK         0.0600 
    168 H168        4.2240  -18.5694  -42.6543 H         1 UNK         0.0600 
    169 H169        5.0849  -16.3970  -41.8793 H         1 UNK         0.3000 
    170 H170        5.0640  -13.2747  -40.2634 H         1 UNK         0.0600 
    171 H171        7.0272  -14.3268  -39.1263 H         1 UNK         0.0600 
    172 H172        7.4915  -15.1122  -40.6307 H         1 UNK         0.0600 
    173 H173        7.5303  -13.3532  -40.4981 H         1 UNK         0.0600 
    174 H174        6.3884  -14.1010  -42.6199 H         1 UNK         0.3000 
    175 H175        5.5281  -13.1831  -44.6092 H         1 UNK         0.0600 
    176 H176        3.8174  -15.7299  -44.7330 H         1 UNK         0.0600 
    177 H177        4.7090  -15.0720  -46.1041 H         1 UNK         0.0600 
    178 H178        5.5694  -15.6333  -44.6803 H         1 UNK         0.0600 
    179 H179        2.7102  -13.5289  -45.3503 H         1 UNK         0.3000 
    180 H180        1.8304  -10.1618  -45.0574 H         1 UNK         0.0600 
    181 H181        2.8105  -11.2246  -47.7625 H         1 UNK         0.0600 
    182 H182        3.3147   -9.7145  -47.0133 H         1 UNK         0.0600 
    183 H183        1.6476   -9.9195  -47.5246 H         1 UNK         0.0600 
    184 H184        0.8636  -12.2959  -46.7580 H         1 UNK         0.3000 
    185 H185       -0.9297  -14.0511  -44.3293 H         1 UNK         0.0600 
    186 H186       -2.5038  -12.1285  -44.5899 H         1 UNK         0.0600 
    187 H187       -2.1734  -12.0791  -46.3171 H         1 UNK         0.0600 
    188 H188       -2.9812  -13.4758  -45.6079 H         1 UNK         0.0600 
    189 H189       -1.1345  -14.1839  -47.1378 H         1 UNK         0.3000 
    190 H190       -2.2941  -21.7286  -45.7266 H         1 UNK         0.3000 
    191 H191       -4.3142  -23.4587  -46.7445 H         1 UNK         0.0600 
    192 H192       -4.6394  -21.7343  -44.9167 H         1 UNK         0.0600 
    193 H193       -5.2969  -23.3179  -44.5284 H         1 UNK         0.0600 
    194 H194       -3.7815  -22.8091  -43.8088 H         1 UNK         0.0600 
    195 H195       -1.6112  -24.1241  -44.4593 H         1 UNK         0.3000 
    196 H196       -2.1332  -26.8866  -44.0938 H         1 UNK         0.0600 
    197 H197        0.2323  -26.9382  -43.2735 H         1 UNK         0.0600 
    198 H198       -0.6548  -25.5774  -42.6037 H         1 UNK         0.0600 
    199 H199        0.4954  -25.3198  -43.9135 H         1 UNK         0.0600 
    200 H200       -0.3043  -25.1700  -46.6151 H         1 UNK         0.3000 
    201 H201        0.6631  -27.5461  -47.9572 H         1 UNK         0.0600 
    202 H202        1.7889  -25.2990  -48.0749 H         1 UNK         0.0600 
    203 H203        0.4036  -24.6630  -48.9620 H         1 UNK         0.0600 
    204 H204        1.3978  -25.9265  -49.6686 H         1 UNK         0.0600 
    205 H205       -2.4375  -26.1884  -47.7748 H         1 UNK         0.3000 
    206 H206       -4.3642  -26.3517  -48.8075 H         1 UNK         0.0600 
    207 H207       -3.9220  -28.8209  -48.8095 H         1 UNK         0.0600 
    208 H208       -4.9315  -28.3201  -50.1557 H         1 UNK         0.0600 
    209 H209       -3.2364  -28.6920  -50.4293 H         1 UNK         0.0600 
    210 H210       -2.3973  -24.5276  -49.7768 H         1 UNK         0.3000 
    211 H211       -2.9809  -24.2013  -52.6809 H         1 UNK         0.0600 
    212 H212       -0.5938  -24.1341  -51.9474 H         1 UNK         0.0600 
    213 H213       -0.9578  -22.8171  -50.8368 H         1 UNK         0.0600 
    214 H214       -1.1089  -22.5789  -52.5762 H         1 UNK         0.0600 
    215 H215       -3.9594  -23.0614  -49.5526 H         1 UNK         0.3000 
    216 H216       -4.8911  -20.4382  -50.3572 H         1 UNK         0.0600 
    217 H217       -6.0370  -20.4459  -48.1759 H         1 UNK         0.0600 
    218 H218       -4.3891  -21.0108  -47.9677 H         1 UNK         0.0600 
    219 H219       -5.7320  -22.1624  -47.9735 H         1 UNK         0.0600 
    220 H220       -6.9319  -19.8088  -50.9332 H         1 UNK         0.3000 
    221 H221       -8.8646  -19.7905  -51.9820 H         1 UNK         0.0600 
    222 H222       -9.5320  -22.4637  -50.6408 H         1 UNK         0.0600 
    223 H223       -9.7798  -20.8749  -49.9177 H         1 UNK         0.0600 
    224 H224      -10.6716  -21.3354  -51.3583 H         1 UNK         0.0600 
    225 H225       -6.6984  -20.5348  -53.4565 H         1 UNK         0.3000 
    226 H226       -7.8892  -22.0055  -55.6751 H         1 UNK         0.0600 
    227 H227       -6.6519  -23.7712  -54.2977 H         1 UNK         0.0600 
    228 H228       -5.9710  -23.5504  -55.8980 H         1 UNK         0.0600 
    229 H229       -5.1710  -22.8421  -54.5014 H         1 UNK         0.0600 
    230 H230       -5.9421  -21.9862  -57.4406 H         1 UNK         0.3000 
    231 H231       -5.7898  -19.3627  -58.3325 H         1 UNK         0.0600 
    232 H232       -4.1095  -21.7920  -59.1522 H         1 UNK         0.0600 
    233 H233       -4.2943  -20.3206  -60.0992 H         1 UNK         0.0600 
    234 H234       -5.6871  -21.3482  -59.8063 H         1 UNK         0.0600 
    235 H235       -3.5287  -20.9737  -56.2062 H         1 UNK         0.3000 
    236 H236       -1.2334  -19.3334  -56.5602 H         1 UNK         0.0600 
    237 H237       -1.1995  -21.5274  -55.3751 H         1 UNK         0.0600 
    238 H238       -0.5704  -20.2505  -54.3443 H         1 UNK         0.0600 
    239 H239       -2.1995  -20.8544  -54.0872 H         1 UNK         0.0600 
    240 H240       -4.3030  -18.6562  -54.9734 H         1 UNK         0.3000 
    241 H241       -3.3128  -16.3800  -53.4677 H         1 UNK         0.0600 
    242 H242       -3.9848  -15.0069  -57.1788 H         1 UNK         0.3800 
    243 H243       -3.7556  -16.7097  -56.8738 H         1 UNK         0.3800 
    244 H244       -5.6604  -15.8966  -52.9437 H         1 UNK         0.0800 
    245 H245       -6.2111  -17.0134  -54.1615 H         1 UNK         0.0800 
    246 H246       -5.2521  -16.4279  -50.5632 H         1 UNK         0.0800 
    247 H247       -5.0249  -18.0049  -49.8522 H         1 UNK         0.0800 
@<TRIPOS>BOND
     1    1    2 1    
     2    1  127 1    
     3    1  128 1    
     4    1  129 1    
     5    2    3 2    
     6    2    4 am   BACKBONE|DICT|INTERRES
     7    4    5 1    
     8    4  130 1    
     9    5    6 1    
    10    5   65 1    
    11    5  131 1    
    12    6    7 1    
    13    6  132 1    
    14    6  133 1    
    15    7    8 1    
    16    8    9 1    
    17    8  134 1    
    18    8  135 1    
    19    9   10 ar   
    20    9   14 ar   
    21   10   11 ar   
    22   10  136 1    
    23   11   12 ar   
    24   11  126 1    
    25   12   13 ar   
    26   12  137 1    
    27   13   14 ar   
    28   13   15 1    
    29   14  138 1    
    30   15   16 1    
    31   15  139 1    
    32   15  140 1    
    33   16   17 1    
    34   17   18 1    
    35   17  141 1    
    36   17  142 1    
    37   18   19 1    
    38   18   67 1    
    39   18  143 1    
    40   19   20 am   BACKBONE|DICT|INTERRES
    41   19  144 1    
    42   20   21 2    
    43   20   22 1    
    44   22   23 1    
    45   22   24 1    
    46   22  145 1    
    47   23  146 1    
    48   23  147 1    
    49   23  148 1    
    50   24   25 am   BACKBONE|DICT|INTERRES
    51   24  149 1    
    52   25   26 2    
    53   25   27 1    
    54   27   28 1    
    55   27   29 1    
    56   27  150 1    
    57   28  151 1    
    58   28  152 1    
    59   28  153 1    
    60   29   30 am   BACKBONE|DICT|INTERRES
    61   29  154 1    
    62   30   31 2    
    63   30   32 1    
    64   32   33 1    
    65   32   34 1    
    66   32  155 1    
    67   33  156 1    
    68   33  157 1    
    69   33  158 1    
    70   34   35 am   BACKBONE|DICT|INTERRES
    71   34  159 1    
    72   35   36 2    
    73   35   37 1    
    74   37   38 1    
    75   37   39 1    
    76   37  160 1    
    77   38  161 1    
    78   38  162 1    
    79   38  163 1    
    80   39   40 am   BACKBONE|DICT|INTERRES
    81   39  164 1    
    82   40   41 2    
    83   40   42 1    
    84   42   43 1    
    85   42   44 1    
    86   42  165 1    
    87   43  166 1    
    88   43  167 1    
    89   43  168 1    
    90   44   45 am   BACKBONE|DICT|INTERRES
    91   44  169 1    
    92   45   46 2    
    93   45   47 1    
    94   47   48 1    
    95   47   49 1    
    96   47  170 1    
    97   48  171 1    
    98   48  172 1    
    99   48  173 1    
   100   49   50 am   BACKBONE|DICT|INTERRES
   101   49  174 1    
   102   50   51 2    
   103   50   52 1    
   104   52   53 1    
   105   52   54 1    
   106   52  175 1    
   107   53  176 1    
   108   53  177 1    
   109   53  178 1    
   110   54   55 am   BACKBONE|DICT|INTERRES
   111   54  179 1    
   112   55   56 2    
   113   55   57 1    
   114   57   58 1    
   115   57   59 1    
   116   57  180 1    
   117   58  181 1    
   118   58  182 1    
   119   58  183 1    
   120   59   60 am   BACKBONE|DICT|INTERRES
   121   59  184 1    
   122   60   61 2    
   123   60   62 1    
   124   62   63 1    
   125   62   64 1    
   126   62  185 1    
   127   63  186 1    
   128   63  187 1    
   129   63  188 1    
   130   64   65 am   BACKBONE|DICT|INTERRES
   131   64  189 1    
   132   65   66 2    
   133   67   68 2    
   134   67   69 am   BACKBONE|DICT|INTERRES
   135   69   70 1    
   136   69  190 1    
   137   70   71 1    
   138   70   72 1    
   139   70  191 1    
   140   71  192 1    
   141   71  193 1    
   142   71  194 1    
   143   72   73 2    
   144   72   74 am   BACKBONE|DICT|INTERRES
   145   74   75 1    
   146   74  195 1    
   147   75   76 1    
   148   75   77 1    
   149   75  196 1    
   150   76  197 1    
   151   76  198 1    
   152   76  199 1    
   153   77   78 2    
   154   77   79 am   BACKBONE|DICT|INTERRES
   155   79   80 1    
   156   79  200 1    
   157   80   81 1    
   158   80   82 1    
   159   80  201 1    
   160   81  202 1    
   161   81  203 1    
   162   81  204 1    
   163   82   83 2    
   164   82   84 am   BACKBONE|DICT|INTERRES
   165   84   85 1    
   166   84  205 1    
   167   85   86 1    
   168   85   87 1    
   169   85  206 1    
   170   86  207 1    
   171   86  208 1    
   172   86  209 1    
   173   87   88 2    
   174   87   89 am   BACKBONE|DICT|INTERRES
   175   89   90 1    
   176   89  210 1    
   177   90   91 1    
   178   90   92 1    
   179   90  211 1    
   180   91  212 1    
   181   91  213 1    
   182   91  214 1    
   183   92   93 2    
   184   92   94 am   BACKBONE|DICT|INTERRES
   185   94   95 1    
   186   94  215 1    
   187   95   96 1    
   188   95   97 1    
   189   95  216 1    
   190   96  217 1    
   191   96  218 1    
   192   96  219 1    
   193   97   98 2    
   194   97   99 am   BACKBONE|DICT|INTERRES
   195   99  100 1    
   196   99  220 1    
   197  100  101 1    
   198  100  102 1    
   199  100  221 1    
   200  101  222 1    
   201  101  223 1    
   202  101  224 1    
   203  102  103 2    
   204  102  104 am   BACKBONE|DICT|INTERRES
   205  104  105 1    
   206  104  225 1    
   207  105  106 1    
   208  105  107 1    
   209  105  226 1    
   210  106  227 1    
   211  106  228 1    
   212  106  229 1    
   213  107  108 2    
   214  107  109 am   BACKBONE|DICT|INTERRES
   215  109  110 1    
   216  109  230 1    
   217  110  111 1    
   218  110  112 1    
   219  110  231 1    
   220  111  232 1    
   221  111  233 1    
   222  111  234 1    
   223  112  113 2    
   224  112  114 am   BACKBONE|DICT|INTERRES
   225  114  115 1    
   226  114  235 1    
   227  115  116 1    
   228  115  117 1    
   229  115  236 1    
   230  116  237 1    
   231  116  238 1    
   232  116  239 1    
   233  117  118 2    
   234  117  119 am   BACKBONE|DICT|INTERRES
   235  119  120 1    
   236  119  240 1    
   237  120  121 1    
   238  120  124 1    
   239  120  241 1    
   240  121  122 am   BACKBONE|DICT|INTERRES
   241  121  123 2    
   242  122  242 1    
   243  122  243 1    
   244  124  125 1    
   245  124  244 1    
   246  124  245 1    
   247  125  126 1    
   248  126  246 1    
   249  126  247 1    
@<TRIPOS>SUBSTRUCTURE
     1 UNK         1 GROUP             0       ****    0 ROOT    
