@<TRIPOS>MOLECULE
3R540
247   249    1
SMALL
USER_CHARGES


@<TRIPOS>ATOM
      1 CA          4.6300  -13.2680  -46.4450 C.3       0 UNK        -0.1800 
      2 C           3.5095  -13.9720  -47.1969 C.2       0 UNK         0.5000 
      3 O           2.7281  -14.7006  -46.5906 O.2       0 UNK        -0.5000 
      4 N           3.4192  -13.7402  -48.5125 N.am      1 UNK        -0.5000 
      5 CA          2.4340  -14.3491  -49.4204 C.3       1 UNK         0.1400 
      6 C6          2.8526  -14.1748  -50.9025 C.3       23 UNK        -0.0398 
      7 S7          4.4016  -15.0666  -51.2817 S.3       23 UNK        -0.2404 
      8 C8          3.7840  -16.5543  -52.1373 C.3       23 UNK        -0.0205 
      9 C9          2.8105  -17.3466  -51.2769 C.ar      23 UNK        -0.0193 
     10 C10         1.4353  -17.2640  -51.5185 C.ar      23 UNK        -0.1150 
     11 C11         0.5310  -17.9491  -50.7044 C.ar      23 UNK        -0.0193 
     12 C12         1.0117  -18.7361  -49.6581 C.ar      23 UNK        -0.1150 
     13 C13         2.3810  -18.8243  -49.4008 C.ar      23 UNK        -0.0193 
     14 C14         3.2796  -18.1334  -50.2193 C.ar      23 UNK        -0.1150 
     15 C15         2.8696  -19.6378  -48.2143 C.3       23 UNK        -0.0205 
     16 S16         2.8448  -21.4151  -48.5756 S.3       23 UNK        -0.2404 
     17 C17         2.7540  -22.1135  -46.8837 C.3       23 UNK        -0.0398 
     18 CA          1.4830  -22.9291  -46.4789 C.3       11 UNK         0.1400 
     19 N           0.7671  -22.3616  -45.3290 N.am      11 UNK        -0.5000 
     20 C          -0.0412  -23.0889  -44.5413 C.2       10 UNK         0.5000 
     21 O          -0.2593  -24.2896  -44.7131 O.2       10 UNK        -0.5000 
     22 CA         -0.7439  -22.3604  -43.3835 C.3       10 UNK         0.1400 
     23 CB          0.2480  -22.0485  -42.2531 C.3       10 UNK        -0.1800 
     24 N          -1.4336  -21.1393  -43.8006 N.am      10 UNK        -0.5000 
     25 C          -2.4567  -21.1071  -44.6668 C.2       9 UNK         0.5000 
     26 O          -2.9149  -22.1048  -45.2208 O.2       9 UNK        -0.5000 
     27 CA         -3.0580  -19.7301  -44.9986 C.3       9 UNK         0.1400 
     28 CB         -4.0175  -19.2708  -43.8915 C.3       9 UNK        -0.1800 
     29 N          -2.0469  -18.7009  -45.2327 N.am      9 UNK        -0.5000 
     30 C          -1.1227  -18.7544  -46.2023 C.2       8 UNK         0.5000 
     31 O          -1.0353  -19.6738  -47.0135 O.2       8 UNK        -0.5000 
     32 CA         -0.0735  -17.6304  -46.2158 C.3       8 UNK         0.1400 
     33 CB         -0.6826  -16.2996  -46.6827 C.3       8 UNK        -0.1800 
     34 N           0.5577  -17.4689  -44.9077 N.am      8 UNK        -0.5000 
     35 C           1.2208  -18.4287  -44.2446 C.2       7 UNK         0.5000 
     36 O           1.4475  -19.5541  -44.6934 O.2       7 UNK        -0.5000 
     37 CA          1.6547  -18.0874  -42.8100 C.3       7 UNK         0.1400 
     38 CB          2.9808  -17.3121  -42.8081 C.3       7 UNK        -0.1800 
     39 N           0.6268  -17.3217  -42.1023 N.am      7 UNK        -0.5000 
     40 C          -0.5418  -17.8311  -41.6866 C.2       6 UNK         0.5000 
     41 O          -0.8612  -19.0106  -41.8294 O.2       6 UNK        -0.5000 
     42 CA         -1.5351  -16.8529  -41.0325 C.3       6 UNK         0.1400 
     43 CB         -1.1750  -16.6180  -39.5580 C.3       6 UNK        -0.1800 
     44 N          -1.6016  -15.5671  -41.7275 N.am      6 UNK        -0.5000 
     45 C          -2.0896  -15.4030  -42.9648 C.2       5 UNK         0.5000 
     46 O          -2.5779  -16.3143  -43.6323 O.2       5 UNK        -0.5000 
     47 CA         -1.9714  -13.9941  -43.5791 C.3       5 UNK         0.1400 
     48 CB         -3.1984  -13.1444  -43.2185 C.3       5 UNK        -0.1800 
     49 N          -0.7534  -13.2641  -43.2097 N.am      5 UNK        -0.5000 
     50 C           0.4989  -13.7082  -43.3793 C.2       4 UNK         0.5000 
     51 O           0.7725  -14.8357  -43.7881 O.2       4 UNK        -0.5000 
     52 CA          1.6184  -12.6978  -43.0957 C.3       4 UNK         0.1400 
     53 CB          3.0008  -13.3627  -42.9682 C.3       4 UNK        -0.1800 
     54 N           1.6402  -11.7575  -44.2096 N.am      4 UNK        -0.5000 
     55 C           1.1820  -10.5012  -44.1692 C.2       3 UNK         0.5000 
     56 O           0.7844   -9.9469  -43.1439 O.2       3 UNK        -0.5000 
     57 CA          1.1290   -9.7470  -45.5121 C.3       3 UNK         0.1400 
     58 CB          2.4543   -9.0123  -45.7658 C.3       3 UNK        -0.1800 
     59 N           0.8306  -10.6078  -46.6628 N.am      3 UNK        -0.5000 
     60 C          -0.3187  -11.2813  -46.8397 C.2       2 UNK         0.5000 
     61 O          -1.2517  -11.2640  -46.0372 O.2       2 UNK        -0.5000 
     62 CA         -0.4452  -12.1249  -48.1167 C.3       2 UNK         0.1400 
     63 CB         -1.0172  -11.2903  -49.2760 C.3       2 UNK        -0.1800 
     64 N           0.8405  -12.7103  -48.4952 N.am      2 UNK        -0.5000 
     65 C           0.9918  -13.8379  -49.2001 C.2       1 UNK         0.5000 
     66 O           0.0492  -14.4741  -49.6713 O.2       1 UNK        -0.5000 
     67 C           0.5111  -23.3117  -47.6189 C.2       11 UNK         0.5000 
     68 O           0.7173  -24.3463  -48.2548 O.2       11 UNK        -0.5000 
     69 N          -0.5584  -22.5238  -47.8188 N.am      12 UNK        -0.5000 
     70 CA         -1.6270  -22.8395  -48.7658 C.3       12 UNK         0.1400 
     71 CB         -2.5932  -21.6578  -48.9021 C.3       12 UNK        -0.1800 
     72 C          -2.3855  -24.1203  -48.3819 C.2       12 UNK         0.5000 
     73 O          -2.5854  -24.9752  -49.2418 O.2       12 UNK        -0.5000 
     74 N          -2.7467  -24.2618  -47.0984 N.am      13 UNK        -0.5000 
     75 CA         -3.3990  -25.4530  -46.5517 C.3       13 UNK         0.1400 
     76 CB         -3.8110  -25.2034  -45.0936 C.3       13 UNK        -0.1800 
     77 C          -2.5254  -26.7150  -46.6639 C.2       13 UNK         0.5000 
     78 O          -3.0387  -27.7712  -47.0336 O.2       13 UNK        -0.5000 
     79 N          -1.2169  -26.5760  -46.4038 N.am      14 UNK        -0.5000 
     80 CA         -0.2187  -27.6359  -46.5772 C.3       14 UNK         0.1400 
     81 CB          1.1263  -27.1723  -45.9985 C.3       14 UNK        -0.1800 
     82 C          -0.0575  -28.0834  -48.0450 C.2       14 UNK         0.5000 
     83 O           0.1697  -29.2668  -48.2981 O.2       14 UNK        -0.5000 
     84 N          -0.2163  -27.1404  -48.9829 N.am      15 UNK        -0.5000 
     85 CA         -0.2248  -27.3740  -50.4286 C.3       15 UNK         0.1400 
     86 CB          0.1904  -26.0732  -51.1367 C.3       15 UNK        -0.1800 
     87 C          -1.5833  -27.8784  -50.9657 C.2       15 UNK         0.5000 
     88 O          -1.6822  -28.1542  -52.1622 O.2       15 UNK        -0.5000 
     89 N          -2.5995  -27.9788  -50.0939 N.am      16 UNK        -0.5000 
     90 CA         -3.9941  -28.3395  -50.3770 C.3       16 UNK         0.1400 
     91 CB         -4.1024  -29.7886  -50.8968 C.3       16 UNK        -0.1800 
     92 C          -4.7187  -27.3112  -51.2746 C.2       16 UNK         0.5000 
     93 O          -5.5870  -27.6806  -52.0679 O.2       16 UNK        -0.5000 
     94 N          -4.3522  -26.0357  -51.1179 N.am      17 UNK        -0.5000 
     95 CA         -4.9422  -24.8706  -51.7669 C.3       17 UNK         0.1400 
     96 CB         -3.8193  -24.1179  -52.5095 C.3       17 UNK        -0.1800 
     97 C          -5.6324  -23.9877  -50.7064 C.2       17 UNK         0.5000 
     98 O          -5.9084  -24.4463  -49.5944 O.2       17 UNK        -0.5000 
     99 N          -5.8985  -22.7299  -51.0677 N.am      18 UNK        -0.5000 
    100 CA        -6.4015  -21.6781  -50.1920 C.3       18 UNK         0.1400 
    101 CB        -7.9036  -21.4760  -50.4460 C.3       18 UNK        -0.1800 
    102 C         -5.6196  -20.3984  -50.5095 C.2       18 UNK         0.5000 
    103 O         -5.1531  -20.2407  -51.6411 O.2       18 UNK        -0.5000 
    104 N         -5.5045  -19.4971  -49.5246 N.am      19 UNK        -0.5000 
    105 CA        -4.7338  -18.2508  -49.6255 C.3       19 UNK         0.1400 
    106 CB        -4.7504  -17.5231  -48.2730 C.3       19 UNK        -0.1800 
    107 C         -5.2014  -17.3148  -50.7586 C.2       19 UNK         0.5000 
    108 O         -4.3827  -16.6163  -51.3553 O.2       19 UNK        -0.5000 
    109 N         -6.5042  -17.3580  -51.0661 N.am      20 UNK        -0.5000 
    110 CA        -7.1309  -16.6292  -52.1678 C.3       20 UNK         0.1400 
    111 CB        -8.6566  -16.7005  -51.9997 C.3       20 UNK        -0.1800 
    112 C         -6.7206  -17.1347  -53.5667 C.2       20 UNK         0.5000 
    113 O         -6.8388  -16.3746  -54.5287 O.2       20 UNK        -0.5000 
    114 N         -6.2629  -18.3920  -53.6704 N.am      21 UNK        -0.5000 
    115 CA        -5.8124  -18.9923  -54.9259 C.3       21 UNK         0.1400 
    116 CB        -5.9400  -20.5232  -54.8534 C.3       21 UNK        -0.1800 
    117 C         -4.3723  -18.5729  -55.2619 C.2       21 UNK         0.5000 
    118 O         -4.1054  -18.1866  -56.4008 O.2       21 UNK        -0.5000 
    119 N         -3.4759  -18.6517  -54.2697 N.am      22 UNK        -0.5000 
    120 CA        -2.0676  -18.2394  -54.3935 C.3       22 UNK         0.1400 
    121 C         -1.8291  -16.7074  -54.2736 C.2       22 UNK         0.5000 
    122 N         -2.7026  -15.9411  -53.6327 N.am      22 UNK        -0.7600 
    123 O         -0.8354  -16.2014  -54.7874 O.2       22 UNK        -0.5000 
    124 C124       -1.1209  -19.0521  -53.4697 C.3       23 UNK        -0.0398 
    125 S125       -1.7013  -19.2409  -51.7493 S.3       23 UNK        -0.2404 
    126 C126       -0.9664  -17.8015  -50.9127 C.3       23 UNK        -0.0205 
    127 H127        4.2201  -12.5057  -45.7829 H         1 UNK         0.0600 
    128 H128        5.3331  -12.7865  -47.1249 H         1 UNK         0.0600 
    129 H129        5.1833  -13.9855  -45.8391 H         1 UNK         0.0600 
    130 H130        4.1065  -13.1475  -48.9563 H         1 UNK         0.3000 
    131 H131        2.4048  -15.4179  -49.1982 H         1 UNK         0.0600 
    132 H132        2.0704  -14.5186  -51.5807 H         1 UNK         0.0800 
    133 H133        2.9980  -13.1185  -51.1345 H         1 UNK         0.0800 
    134 H134        3.3157  -16.2603  -53.0781 H         1 UNK         0.0800 
    135 H135        4.6311  -17.1880  -52.4037 H         1 UNK         0.0800 
    136 H136        1.0645  -16.6457  -52.3242 H         1 UNK         0.1150 
    137 H137        0.3146  -19.2759  -49.0363 H         1 UNK         0.1150 
    138 H138        4.3410  -18.1878  -50.0220 H         1 UNK         0.1150 
    139 H139        3.8786  -19.3398  -47.9261 H         1 UNK         0.0800 
    140 H140        2.2326  -19.4383  -47.3541 H         1 UNK         0.0800 
    141 H141        2.9466  -21.3239  -46.1566 H         1 UNK         0.0800 
    142 H142        3.6220  -22.7684  -46.7945 H         1 UNK         0.0800 
    143 H143        1.8719  -23.8870  -46.1251 H         1 UNK         0.0600 
    144 H144        0.8963  -21.3707  -45.1395 H         1 UNK         0.3000 
    145 H145       -1.4996  -23.0397  -42.9835 H         1 UNK         0.0600 
    146 H146       -0.2643  -21.6445  -41.3800 H         1 UNK         0.0600 
    147 H147        0.7714  -22.9500  -41.9322 H         1 UNK         0.0600 
    148 H148        1.0011  -21.3251  -42.5651 H         1 UNK         0.0600 
    149 H149       -1.1393  -20.2771  -43.3531 H         1 UNK         0.3000 
    150 H150       -3.6336  -19.8415  -45.9192 H         1 UNK         0.0600 
    151 H151       -4.7856  -20.0216  -43.7021 H         1 UNK         0.0600 
    152 H152       -4.5263  -18.3479  -44.1707 H         1 UNK         0.0600 
    153 H153       -3.4922  -19.0915  -42.9527 H         1 UNK         0.0600 
    154 H154       -2.0645  -17.8984  -44.6092 H         1 UNK         0.3000 
    155 H155        0.7088  -17.8955  -46.9241 H         1 UNK         0.0600 
    156 H156        0.0553  -15.4975  -46.6600 H         1 UNK         0.0600 
    157 H157       -1.0437  -16.3794  -47.7088 H         1 UNK         0.0600 
    158 H158       -1.5254  -15.9962  -46.0641 H         1 UNK         0.0600 
    159 H159        0.4848  -16.5512  -44.4747 H         1 UNK         0.3000 
    160 H160        1.8121  -19.0244  -42.2724 H         1 UNK         0.0600 
    161 H161        2.9086  -16.3834  -43.3741 H         1 UNK         0.0600 
    162 H162        3.7760  -17.9059  -43.2603 H         1 UNK         0.0600 
    163 H163        3.2947  -17.0654  -41.7938 H         1 UNK         0.0600 
    164 H164        0.7736  -16.3244  -42.0383 H         1 UNK         0.3000 
    165 H165       -2.5259  -17.3109  -41.0717 H         1 UNK         0.0600 
    166 H166       -1.9187  -15.9911  -39.0658 H         1 UNK         0.0600 
    167 H167       -1.1341  -17.5615  -39.0120 H         1 UNK         0.0600 
    168 H168       -0.2034  -16.1342  -39.4508 H         1 UNK         0.0600 
    169 H169       -1.2156  -14.7653  -41.2516 H         1 UNK         0.3000 
    170 H170       -1.9534  -14.1127  -44.6638 H         1 UNK         0.0600 
    171 H171       -4.1220  -13.6512  -43.5016 H         1 UNK         0.0600 
    172 H172       -3.2481  -12.9425  -42.1479 H         1 UNK         0.0600 
    173 H173       -3.1813  -12.1879  -43.7418 H         1 UNK         0.0600 
    174 H174       -0.8832  -12.3106  -42.9024 H         1 UNK         0.3000 
    175 H175        1.3957  -12.1943  -42.1528 H         1 UNK         0.0600 
    176 H176        3.0174  -14.0674  -42.1361 H         1 UNK         0.0600 
    177 H177        3.2733  -13.9130  -43.8690 H         1 UNK         0.0600 
    178 H178        3.7778  -12.6212  -42.7828 H         1 UNK         0.0600 
    179 H179        1.8870  -12.1472  -45.1070 H         1 UNK         0.3000 
    180 H180        0.3340   -9.0019  -45.4384 H         1 UNK         0.0600 
    181 H181        3.2862   -9.7086  -45.8800 H         1 UNK         0.0600 
    182 H182        2.6962   -8.3459  -44.9367 H         1 UNK         0.0600 
    183 H183        2.4010   -8.4004  -46.6664 H         1 UNK         0.0600 
    184 H184        1.5145  -10.6028  -47.4033 H         1 UNK         0.3000 
    185 H185       -1.1447  -12.9331  -47.8908 H         1 UNK         0.0600 
    186 H186       -1.9661  -10.8310  -48.9960 H         1 UNK         0.0600 
    187 H187       -0.3367  -10.4901  -49.5689 H         1 UNK         0.0600 
    188 H188       -1.2045  -11.9086  -50.1540 H         1 UNK         0.0600 
    189 H189        1.6698  -12.2869  -48.1096 H         1 UNK         0.3000 
    190 H190       -0.6609  -21.6659  -47.2860 H         1 UNK         0.3000 
    191 H191       -1.1650  -23.0051  -49.7414 H         1 UNK         0.0600 
    192 H192       -3.1066  -21.4375  -47.9660 H         1 UNK         0.0600 
    193 H193       -3.3484  -21.8761  -49.6552 H         1 UNK         0.0600 
    194 H194       -2.0718  -20.7558  -49.2197 H         1 UNK         0.0600 
    195 H195       -2.5851  -23.4965  -46.4480 H         1 UNK         0.3000 
    196 H196       -4.3060  -25.6270  -47.1348 H         1 UNK         0.0600 
    197 H197       -4.2962  -26.0823  -44.6675 H         1 UNK         0.0600 
    198 H198       -4.5170  -24.3761  -45.0214 H         1 UNK         0.0600 
    199 H199       -2.9511  -24.9647  -44.4669 H         1 UNK         0.0600 
    200 H200       -0.8808  -25.6822  -46.0583 H         1 UNK         0.3000 
    201 H201       -0.5536  -28.5024  -46.0035 H         1 UNK         0.0600 
    202 H202        1.0314  -26.8992  -44.9474 H         1 UNK         0.0600 
    203 H203        1.5188  -26.3087  -46.5350 H         1 UNK         0.0600 
    204 H204        1.8725  -27.9650  -46.0633 H         1 UNK         0.0600 
    205 H205       -0.3527  -26.1806  -48.6858 H         1 UNK         0.3000 
    206 H206        0.5189  -28.1376  -50.6648 H         1 UNK         0.0600 
    207 H207        1.1642  -25.7281  -50.7885 H         1 UNK         0.0600 
    208 H208        0.2646  -26.2179  -52.2150 H         1 UNK         0.0600 
    209 H209       -0.5287  -25.2725  -50.9627 H         1 UNK         0.0600 
    210 H210       -2.4164  -27.7150  -49.1337 H         1 UNK         0.3000 
    211 H211       -4.5083  -28.3030  -49.4156 H         1 UNK         0.0600 
    212 H212       -3.6800  -29.8956  -51.8961 H         1 UNK         0.0600 
    213 H213       -5.1440  -30.1073  -50.9485 H         1 UNK         0.0600 
    214 H214       -3.5843  -30.4837  -50.2362 H         1 UNK         0.0600 
    215 H215       -3.6659  -25.8120  -50.3980 H         1 UNK         0.3000 
    216 H216       -5.7017  -25.1750  -52.4893 H         1 UNK         0.0600 
    217 H217       -3.0948  -23.6894  -51.8152 H         1 UNK         0.0600 
    218 H218       -4.2136  -23.3064  -53.1218 H         1 UNK         0.0600 
    219 H219       -3.2780  -24.7861  -53.1797 H         1 UNK         0.0600 
    220 H220       -5.5826  -22.3936  -51.9682 H         1 UNK         0.3000 
    221 H221       -6.2337  -21.9379  -49.1445 H         1 UNK         0.0600 
    222 H222       -8.4624  -22.3888  -50.2390 H         1 UNK         0.0600 
    223 H223       -8.1023  -21.1899  -51.4800 H         1 UNK         0.0600 
    224 H224       -8.3094  -20.6939  -49.8033 H         1 UNK         0.0600 
    225 H225       -5.9326  -19.6881  -48.6303 H         1 UNK         0.3000 
    226 H226       -3.7023  -18.5290  -49.8370 H         1 UNK         0.0600 
    227 H227       -4.3116  -18.1386  -47.4884 H         1 UNK         0.0600 
    228 H228       -4.1690  -16.6011  -48.3190 H         1 UNK         0.0600 
    229 H229       -5.7639  -17.2590  -47.9692 H         1 UNK         0.0600 
    230 H230       -7.1016  -17.9669  -50.5272 H         1 UNK         0.3000 
    231 H231       -6.8273  -15.5825  -52.0969 H         1 UNK         0.0600 
    232 H232       -9.0181  -17.7288  -52.0433 H         1 UNK         0.0600 
    233 H233       -9.1637  -16.1408  -52.7868 H         1 UNK         0.0600 
    234 H234       -8.9696  -16.2734  -51.0468 H         1 UNK         0.0600 
    235 H235       -6.1299  -18.9468  -52.8323 H         1 UNK         0.3000 
    236 H236       -6.4622  -18.6478  -55.7335 H         1 UNK         0.0600 
    237 H237       -6.9509  -20.8239  -54.5781 H         1 UNK         0.0600 
    238 H238       -5.7185  -20.9738  -55.8215 H         1 UNK         0.0600 
    239 H239       -5.2507  -20.9590  -54.1307 H         1 UNK         0.0600 
    240 H240       -3.7676  -18.9782  -53.3577 H         1 UNK         0.3000 
    241 H241       -1.7549  -18.4837  -55.4110 H         1 UNK         0.0600 
    242 H242       -2.5341  -14.9501  -53.5776 H         1 UNK         0.3800 
    243 H243       -3.4561  -16.3451  -53.0870 H         1 UNK         0.3800 
    244 H244       -0.1073  -18.6496  -53.4825 H         1 UNK         0.0800 
    245 H245       -1.0280  -20.0610  -53.8733 H         1 UNK         0.0800 
    246 H246       -1.1922  -16.8868  -51.4602 H         1 UNK         0.0800 
    247 H247       -1.4443  -17.6849  -49.9393 H         1 UNK         0.0800 
@<TRIPOS>BOND
     1    1    2 1    
     2    1  127 1    
     3    1  128 1    
     4    1  129 1    
     5    2    3 2    
     6    2    4 am   BACKBONE|DICT|INTERRES
     7    4    5 1    
     8    4  130 1    
     9    5    6 1    
    10    5   65 1    
    11    5  131 1    
    12    6    7 1    
    13    6  132 1    
    14    6  133 1    
    15    7    8 1    
    16    8    9 1    
    17    8  134 1    
    18    8  135 1    
    19    9   10 ar   
    20    9   14 ar   
    21   10   11 ar   
    22   10  136 1    
    23   11   12 ar   
    24   11  126 1    
    25   12   13 ar   
    26   12  137 1    
    27   13   14 ar   
    28   13   15 1    
    29   14  138 1    
    30   15   16 1    
    31   15  139 1    
    32   15  140 1    
    33   16   17 1    
    34   17   18 1    
    35   17  141 1    
    36   17  142 1    
    37   18   19 1    
    38   18   67 1    
    39   18  143 1    
    40   19   20 am   BACKBONE|DICT|INTERRES
    41   19  144 1    
    42   20   21 2    
    43   20   22 1    
    44   22   23 1    
    45   22   24 1    
    46   22  145 1    
    47   23  146 1    
    48   23  147 1    
    49   23  148 1    
    50   24   25 am   BACKBONE|DICT|INTERRES
    51   24  149 1    
    52   25   26 2    
    53   25   27 1    
    54   27   28 1    
    55   27   29 1    
    56   27  150 1    
    57   28  151 1    
    58   28  152 1    
    59   28  153 1    
    60   29   30 am   BACKBONE|DICT|INTERRES
    61   29  154 1    
    62   30   31 2    
    63   30   32 1    
    64   32   33 1    
    65   32   34 1    
    66   32  155 1    
    67   33  156 1    
    68   33  157 1    
    69   33  158 1    
    70   34   35 am   BACKBONE|DICT|INTERRES
    71   34  159 1    
    72   35   36 2    
    73   35   37 1    
    74   37   38 1    
    75   37   39 1    
    76   37  160 1    
    77   38  161 1    
    78   38  162 1    
    79   38  163 1    
    80   39   40 am   BACKBONE|DICT|INTERRES
    81   39  164 1    
    82   40   41 2    
    83   40   42 1    
    84   42   43 1    
    85   42   44 1    
    86   42  165 1    
    87   43  166 1    
    88   43  167 1    
    89   43  168 1    
    90   44   45 am   BACKBONE|DICT|INTERRES
    91   44  169 1    
    92   45   46 2    
    93   45   47 1    
    94   47   48 1    
    95   47   49 1    
    96   47  170 1    
    97   48  171 1    
    98   48  172 1    
    99   48  173 1    
   100   49   50 am   BACKBONE|DICT|INTERRES
   101   49  174 1    
   102   50   51 2    
   103   50   52 1    
   104   52   53 1    
   105   52   54 1    
   106   52  175 1    
   107   53  176 1    
   108   53  177 1    
   109   53  178 1    
   110   54   55 am   BACKBONE|DICT|INTERRES
   111   54  179 1    
   112   55   56 2    
   113   55   57 1    
   114   57   58 1    
   115   57   59 1    
   116   57  180 1    
   117   58  181 1    
   118   58  182 1    
   119   58  183 1    
   120   59   60 am   BACKBONE|DICT|INTERRES
   121   59  184 1    
   122   60   61 2    
   123   60   62 1    
   124   62   63 1    
   125   62   64 1    
   126   62  185 1    
   127   63  186 1    
   128   63  187 1    
   129   63  188 1    
   130   64   65 am   BACKBONE|DICT|INTERRES
   131   64  189 1    
   132   65   66 2    
   133   67   68 2    
   134   67   69 am   BACKBONE|DICT|INTERRES
   135   69   70 1    
   136   69  190 1    
   137   70   71 1    
   138   70   72 1    
   139   70  191 1    
   140   71  192 1    
   141   71  193 1    
   142   71  194 1    
   143   72   73 2    
   144   72   74 am   BACKBONE|DICT|INTERRES
   145   74   75 1    
   146   74  195 1    
   147   75   76 1    
   148   75   77 1    
   149   75  196 1    
   150   76  197 1    
   151   76  198 1    
   152   76  199 1    
   153   77   78 2    
   154   77   79 am   BACKBONE|DICT|INTERRES
   155   79   80 1    
   156   79  200 1    
   157   80   81 1    
   158   80   82 1    
   159   80  201 1    
   160   81  202 1    
   161   81  203 1    
   162   81  204 1    
   163   82   83 2    
   164   82   84 am   BACKBONE|DICT|INTERRES
   165   84   85 1    
   166   84  205 1    
   167   85   86 1    
   168   85   87 1    
   169   85  206 1    
   170   86  207 1    
   171   86  208 1    
   172   86  209 1    
   173   87   88 2    
   174   87   89 am   BACKBONE|DICT|INTERRES
   175   89   90 1    
   176   89  210 1    
   177   90   91 1    
   178   90   92 1    
   179   90  211 1    
   180   91  212 1    
   181   91  213 1    
   182   91  214 1    
   183   92   93 2    
   184   92   94 am   BACKBONE|DICT|INTERRES
   185   94   95 1    
   186   94  215 1    
   187   95   96 1    
   188   95   97 1    
   189   95  216 1    
   190   96  217 1    
   191   96  218 1    
   192   96  219 1    
   193   97   98 2    
   194   97   99 am   BACKBONE|DICT|INTERRES
   195   99  100 1    
   196   99  220 1    
   197  100  101 1    
   198  100  102 1    
   199  100  221 1    
   200  101  222 1    
   201  101  223 1    
   202  101  224 1    
   203  102  103 2    
   204  102  104 am   BACKBONE|DICT|INTERRES
   205  104  105 1    
   206  104  225 1    
   207  105  106 1    
   208  105  107 1    
   209  105  226 1    
   210  106  227 1    
   211  106  228 1    
   212  106  229 1    
   213  107  108 2    
   214  107  109 am   BACKBONE|DICT|INTERRES
   215  109  110 1    
   216  109  230 1    
   217  110  111 1    
   218  110  112 1    
   219  110  231 1    
   220  111  232 1    
   221  111  233 1    
   222  111  234 1    
   223  112  113 2    
   224  112  114 am   BACKBONE|DICT|INTERRES
   225  114  115 1    
   226  114  235 1    
   227  115  116 1    
   228  115  117 1    
   229  115  236 1    
   230  116  237 1    
   231  116  238 1    
   232  116  239 1    
   233  117  118 2    
   234  117  119 am   BACKBONE|DICT|INTERRES
   235  119  120 1    
   236  119  240 1    
   237  120  121 1    
   238  120  124 1    
   239  120  241 1    
   240  121  122 am   BACKBONE|DICT|INTERRES
   241  121  123 2    
   242  122  242 1    
   243  122  243 1    
   244  124  125 1    
   245  124  244 1    
   246  124  245 1    
   247  125  126 1    
   248  126  246 1    
   249  126  247 1    
@<TRIPOS>SUBSTRUCTURE
     1 UNK         1 GROUP             0       ****    0 ROOT    
