@<TRIPOS>MOLECULE
3R540
247   249    1
SMALL
USER_CHARGES


@<TRIPOS>ATOM
      1 CA          4.6289  -11.7483  -48.8800 C.3       0 UNK        -0.1800 
      2 C           4.7456  -12.9967  -48.0047 C.2       0 UNK         0.5000 
      3 O           5.2540  -12.8892  -46.8911 O.2       0 UNK        -0.5000 
      4 N           4.2989  -14.1914  -48.4249 N.am      1 UNK        -0.5000 
      5 CA          3.6780  -14.5693  -49.7040 C.3       1 UNK         0.1400 
      6 C6          4.6929  -14.6541  -50.8846 C.3       23 UNK        -0.0398 
      7 S7          5.6457  -16.2104  -50.8565 S.3       23 UNK        -0.2404 
      8 C8          4.7321  -17.2178  -52.0760 C.3       23 UNK        -0.0205 
      9 C9          3.3678  -17.6370  -51.5472 C.ar      23 UNK        -0.0193 
     10 C10         2.2378  -16.8542  -51.8006 C.ar      23 UNK        -0.1150 
     11 C11         1.0052  -17.1779  -51.2275 C.ar      23 UNK        -0.0193 
     12 C12         0.8932  -18.3338  -50.4503 C.ar      23 UNK        -0.1150 
     13 C13         2.0037  -19.1557  -50.2333 C.ar      23 UNK        -0.0193 
     14 C14         3.2411  -18.7931  -50.7733 C.ar      23 UNK        -0.1150 
     15 C15         1.8787  -20.4290  -49.4105 C.3       23 UNK        -0.0205 
     16 S16         1.5914  -20.0647  -47.6518 S.3       23 UNK        -0.2404 
     17 C17        -0.2069  -20.3315  -47.4968 C.3       23 UNK        -0.0398 
     18 CA         -0.5143  -21.5954  -46.6602 C.3       11 UNK         0.1400 
     19 N          -0.0230  -21.4983  -45.2813 N.am      11 UNK        -0.5000 
     20 C           0.0762  -22.5406  -44.4431 C.2       10 UNK         0.5000 
     21 O          -0.3185  -23.6714  -44.7330 O.2       10 UNK        -0.5000 
     22 CA          0.6935  -22.2753  -43.0543 C.3       10 UNK         0.1400 
     23 CB          1.2684  -23.5503  -42.4041 C.3       10 UNK        -0.1800 
     24 N           1.6867  -21.1980  -43.0486 N.am      10 UNK        -0.5000 
     25 C           2.8367  -21.1249  -43.7392 C.2       9 UNK         0.5000 
     26 O           3.2473  -22.0144  -44.4850 O.2       9 UNK        -0.5000 
     27 CA          3.6741  -19.8423  -43.5567 C.3       9 UNK         0.1400 
     28 CB          4.0439  -19.1990  -44.9043 C.3       9 UNK        -0.1800 
     29 N           2.9616  -18.8544  -42.7428 N.am      9 UNK        -0.5000 
     30 C           3.3203  -18.4730  -41.5114 C.2       8 UNK         0.5000 
     31 O           4.3454  -18.8532  -40.9447 O.2       8 UNK        -0.5000 
     32 CA          2.3642  -17.5195  -40.7738 C.3       8 UNK         0.1400 
     33 CB          2.7290  -16.0560  -41.0672 C.3       8 UNK        -0.1800 
     34 N           0.9460  -17.7354  -41.0760 N.am      8 UNK        -0.5000 
     35 C           0.2399  -18.8169  -40.7148 C.2       7 UNK         0.5000 
     36 O           0.7442  -19.8270  -40.2256 O.2       7 UNK        -0.5000 
     37 CA         -1.2802  -18.7684  -40.9378 C.3       7 UNK         0.1400 
     38 CB         -1.9488  -17.8687  -39.8865 C.3       7 UNK        -0.1800 
     39 N          -1.6036  -18.2661  -42.2692 N.am      7 UNK        -0.5000 
     40 C          -2.0074  -19.0271  -43.2942 C.2       6 UNK         0.5000 
     41 O          -2.1762  -20.2450  -43.2310 O.2       6 UNK        -0.5000 
     42 CA         -2.2054  -18.3154  -44.6466 C.3       6 UNK         0.1400 
     43 CB         -3.6031  -17.6856  -44.7240 C.3       6 UNK        -0.1800 
     44 N          -1.2011  -17.2869  -44.9237 N.am      6 UNK        -0.5000 
     45 C           0.1300  -17.4523  -44.8606 C.2       5 UNK         0.5000 
     46 O           0.6728  -18.5365  -44.6437 O.2       5 UNK        -0.5000 
     47 CA          1.0014  -16.1847  -44.9765 C.3       5 UNK         0.1400 
     48 CB          1.4785  -16.0014  -46.4251 C.3       5 UNK        -0.1800 
     49 N           0.3361  -14.9562  -44.5235 N.am      5 UNK        -0.5000 
     50 C          -0.2650  -14.7740  -43.3352 C.2       4 UNK         0.5000 
     51 O          -0.2495  -15.6058  -42.4271 O.2       4 UNK        -0.5000 
     52 CA         -1.0859  -13.4859  -43.1398 C.3       4 UNK         0.1400 
     53 CB         -0.2783  -12.4601  -42.3316 C.3       4 UNK        -0.1800 
     54 N          -1.5481  -12.8590  -44.3801 N.am      4 UNK        -0.5000 
     55 C          -2.2770  -13.4309  -45.3507 C.2       3 UNK         0.5000 
     56 O          -2.6595  -14.6017  -45.3283 O.2       3 UNK        -0.5000 
     57 CA         -2.5950  -12.5552  -46.5779 C.3       3 UNK         0.1400 
     58 CB         -2.6379  -11.0452  -46.2569 C.3       3 UNK        -0.1800 
     59 N          -1.6912  -12.7902  -47.7082 N.am      3 UNK        -0.5000 
     60 C          -0.3514  -12.7974  -47.7140 C.2       2 UNK         0.5000 
     61 O           0.3601  -12.7668  -46.7056 O.2       2 UNK        -0.5000 
     62 CA          0.3100  -12.7850  -49.0962 C.3       2 UNK         0.1400 
     63 CB          0.4478  -11.3321  -49.5949 C.3       2 UNK        -0.1800 
     64 N           1.6165  -13.4267  -48.9984 N.am      2 UNK        -0.5000 
     65 C           2.3846  -13.7844  -50.0329 C.2       1 UNK         0.5000 
     66 O           2.0946  -13.5318  -51.2025 O.2       1 UNK        -0.5000 
     67 C          -2.0018  -22.0006  -46.7581 C.2       11 UNK         0.5000 
     68 O          -2.3993  -22.5376  -47.7915 O.2       11 UNK        -0.5000 
     69 N          -2.7900  -21.8057  -45.6881 N.am      12 UNK        -0.5000 
     70 CA         -4.1628  -22.3077  -45.5843 C.3       12 UNK         0.1400 
     71 CB         -4.8271  -21.7635  -44.3116 C.3       12 UNK        -0.1800 
     72 C          -4.2232  -23.8459  -45.6044 C.2       12 UNK         0.5000 
     73 O          -5.0552  -24.4136  -46.3139 O.2       12 UNK        -0.5000 
     74 N          -3.3052  -24.4841  -44.8627 N.am      13 UNK        -0.5000 
     75 CA         -3.1538  -25.9382  -44.7885 C.3       13 UNK         0.1400 
     76 CB         -2.2569  -26.3026  -43.5957 C.3       13 UNK        -0.1800 
     77 C          -2.6047  -26.5425  -46.0931 C.2       13 UNK         0.5000 
     78 O          -2.9269  -27.6872  -46.4120 O.2       13 UNK        -0.5000 
     79 N          -1.8460  -25.7491  -46.8621 N.am      14 UNK        -0.5000 
     80 CA         -1.3566  -26.0665  -48.2066 C.3       14 UNK         0.1400 
     81 CB         -0.1125  -25.2088  -48.5007 C.3       14 UNK        -0.1800 
     82 C          -2.4540  -25.9008  -49.2840 C.2       14 UNK         0.5000 
     83 O          -2.2025  -25.3107  -50.3365 O.2       14 UNK        -0.5000 
     84 N          -3.6578  -26.4155  -48.9927 N.am      15 UNK        -0.5000 
     85 CA         -4.8658  -26.4158  -49.8226 C.3       15 UNK         0.1400 
     86 CB         -4.6987  -27.4070  -50.9933 C.3       15 UNK        -0.1800 
     87 C          -5.2822  -25.0059  -50.2894 C.2       15 UNK         0.5000 
     88 O          -5.5809  -24.8187  -51.4690 O.2       15 UNK        -0.5000 
     89 N          -5.2602  -24.0339  -49.3637 N.am      16 UNK        -0.5000 
     90 CA         -5.5161  -22.6064  -49.5976 C.3       16 UNK         0.1400 
     91 CB         -7.0059  -22.3625  -49.9170 C.3       16 UNK        -0.1800 
     92 C          -4.5699  -22.0159  -50.6632 C.2       16 UNK         0.5000 
     93 O          -5.0255  -21.4543  -51.6609 O.2       16 UNK        -0.5000 
     94 N          -3.2621  -22.1968  -50.4379 N.am      17 UNK        -0.5000 
     95 CA         -2.1498  -21.8117  -51.3090 C.3       17 UNK         0.1400 
     96 CB         -2.0365  -20.2756  -51.3699 C.3       17 UNK        -0.1800 
     97 C          -2.2493  -22.4620  -52.7044 C.2       17 UNK         0.5000 
     98 O          -2.1371  -21.7712  -53.7168 O.2       17 UNK        -0.5000 
     99 N          -2.5111  -23.7772  -52.7282 N.am      18 UNK        -0.5000 
    100 CA        -2.7898  -24.5951  -53.9154 C.3       18 UNK         0.1400 
    101 CB        -1.5105  -24.7860  -54.7557 C.3       18 UNK        -0.1800 
    102 C         -3.9827  -24.0521  -54.7350 C.2       18 UNK         0.5000 
    103 O         -3.8958  -23.9148  -55.9565 O.2       18 UNK        -0.5000 
    104 N         -5.0665  -23.7280  -54.0178 N.am      19 UNK        -0.5000 
    105 CA        -6.3332  -23.1538  -54.4761 C.3       19 UNK         0.1400 
    106 CB        -7.0490  -24.1085  -55.4542 C.3       19 UNK        -0.1800 
    107 C         -6.2422  -21.7102  -55.0182 C.2       19 UNK         0.5000 
    108 O         -7.2158  -21.2338  -55.6050 O.2       19 UNK        -0.5000 
    109 N         -5.1135  -21.0168  -54.8044 N.am      20 UNK        -0.5000 
    110 CA        -4.9442  -19.6084  -55.1731 C.3       20 UNK         0.1400 
    111 CB        -3.4501  -19.2593  -55.2356 C.3       20 UNK        -0.1800 
    112 C         -5.6744  -18.6526  -54.2113 C.2       20 UNK         0.5000 
    113 O         -6.0961  -17.5782  -54.6411 O.2       20 UNK        -0.5000 
    114 N         -5.8033  -19.0572  -52.9368 N.am      21 UNK        -0.5000 
    115 CA        -6.4570  -18.3459  -51.8314 C.3       21 UNK         0.1400 
    116 CB        -7.9831  -18.3037  -52.0501 C.3       21 UNK        -0.1800 
    117 C         -5.8511  -16.9550  -51.5346 C.2       21 UNK         0.5000 
    118 O         -6.5614  -16.0548  -51.0835 O.2       21 UNK        -0.5000 
    119 N         -4.5474  -16.8027  -51.7988 N.am      22 UNK        -0.5000 
    120 CA        -3.7931  -15.5473  -51.6582 C.3       22 UNK         0.1400 
    121 C         -3.3938  -15.1612  -50.2035 C.2       22 UNK         0.5000 
    122 N         -3.5799  -16.0192  -49.2080 N.am      22 UNK        -0.7600 
    123 O         -2.9124  -14.0547  -49.9742 O.2       22 UNK        -0.5000 
    124 C124       -2.5870  -15.4968  -52.6331 C.3       23 UNK        -0.0398 
    125 S125       -1.4451  -16.9207  -52.5138 S.3       23 UNK        -0.2404 
    126 C126       -0.1842  -16.2447  -51.3940 C.3       23 UNK        -0.0205 
    127 H127        5.4981  -11.1075  -48.7311 H         1 UNK         0.0600 
    128 H128        3.7429  -11.1802  -48.5968 H         1 UNK         0.0600 
    129 H129        4.5670  -11.9645  -49.9437 H         1 UNK         0.0600 
    130 H130        4.4212  -14.9687  -47.7919 H         1 UNK         0.3000 
    131 H131        3.3051  -15.5786  -49.5260 H         1 UNK         0.0600 
    132 H132        4.2125  -14.5830  -51.8604 H         1 UNK         0.0800 
    133 H133        5.4023  -13.8281  -50.8562 H         1 UNK         0.0800 
    134 H134        5.3221  -18.1049  -52.3111 H         1 UNK         0.0800 
    135 H135        4.6288  -16.6676  -53.0125 H         1 UNK         0.0800 
    136 H136        2.3287  -15.9606  -52.4015 H         1 UNK         0.1150 
    137 H137       -0.0571  -18.5837  -50.0038 H         1 UNK         0.1150 
    138 H138        4.1122  -19.4042  -50.5824 H         1 UNK         0.1150 
    139 H139        1.0865  -21.0582  -49.8175 H         1 UNK         0.0800 
    140 H140        2.7934  -21.0187  -49.4870 H         1 UNK         0.0800 
    141 H141       -0.6482  -20.4126  -48.4901 H         1 UNK         0.0800 
    142 H142       -0.6451  -19.4418  -47.0492 H         1 UNK         0.0800 
    143 H143        0.0387  -22.4166  -47.1196 H         1 UNK         0.0600 
    144 H144        0.3332  -20.5942  -44.9895 H         1 UNK         0.3000 
    145 H145       -0.1271  -21.9299  -42.4242 H         1 UNK         0.0600 
    146 H146        1.6830  -23.3370  -41.4189 H         1 UNK         0.0600 
    147 H147        0.4937  -24.3064  -42.2714 H         1 UNK         0.0600 
    148 H148        2.0570  -23.9941  -43.0124 H         1 UNK         0.0600 
    149 H149        1.4738  -20.4243  -42.4352 H         1 UNK         0.3000 
    150 H150        4.6013  -20.1489  -43.0689 H         1 UNK         0.0600 
    151 H151        4.5721  -19.9032  -45.5482 H         1 UNK         0.0600 
    152 H152        4.6972  -18.3385  -44.7609 H         1 UNK         0.0600 
    153 H153        3.1624  -18.8588  -45.4455 H         1 UNK         0.0600 
    154 H154        2.0944  -18.5108  -43.1395 H         1 UNK         0.3000 
    155 H155        2.4997  -17.6892  -39.7035 H         1 UNK         0.0600 
    156 H156        3.7655  -15.8500  -40.7975 H         1 UNK         0.0600 
    157 H157        2.1023  -15.3709  -40.4958 H         1 UNK         0.0600 
    158 H158        2.6112  -15.8137  -42.1232 H         1 UNK         0.0600 
    159 H159        0.4589  -16.9473  -41.4989 H         1 UNK         0.3000 
    160 H160       -1.6690  -19.7806  -40.8071 H         1 UNK         0.0600 
    161 H161       -1.6167  -16.8328  -39.9686 H         1 UNK         0.0600 
    162 H162       -1.7189  -18.2098  -38.8763 H         1 UNK         0.0600 
    163 H163       -3.0335  -17.8804  -39.9944 H         1 UNK         0.0600 
    164 H164       -1.4207  -17.2831  -42.4365 H         1 UNK         0.3000 
    165 H165       -2.1363  -19.0695  -45.4282 H         1 UNK         0.0600 
    166 H166       -3.7918  -17.2671  -45.7127 H         1 UNK         0.0600 
    167 H167       -4.3826  -18.4217  -44.5303 H         1 UNK         0.0600 
    168 H168       -3.7222  -16.8835  -43.9944 H         1 UNK         0.0600 
    169 H169       -1.5608  -16.3523  -45.0887 H         1 UNK         0.3000 
    170 H170        1.8784  -16.3354  -44.3456 H         1 UNK         0.0600 
    171 H171        1.9950  -16.8927  -46.7851 H         1 UNK         0.0600 
    172 H172        0.6447  -15.8108  -47.1021 H         1 UNK         0.0600 
    173 H173        2.1763  -15.1683  -46.5035 H         1 UNK         0.0600 
    174 H174        0.2712  -14.2037  -45.2014 H         1 UNK         0.3000 
    175 H175       -1.9727  -13.7565  -42.5637 H         1 UNK         0.0600 
    176 H176        0.6041  -12.1244  -42.8780 H         1 UNK         0.0600 
    177 H177       -0.8800  -11.5832  -42.0919 H         1 UNK         0.0600 
    178 H178        0.0627  -12.8862  -41.3869 H         1 UNK         0.0600 
    179 H179       -1.2422  -11.9091  -44.5320 H         1 UNK         0.3000 
    180 H180       -3.5912  -12.8493  -46.9118 H         1 UNK         0.0600 
    181 H181       -1.6519  -10.6438  -46.0204 H         1 UNK         0.0600 
    182 H182       -3.2956  -10.8394  -45.4111 H         1 UNK         0.0600 
    183 H183       -3.0236  -10.4811  -47.1062 H         1 UNK         0.0600 
    184 H184       -2.1620  -12.9568  -48.5949 H         1 UNK         0.3000 
    185 H185       -0.3088  -13.3556  -49.7912 H         1 UNK         0.0600 
    186 H186        0.8446  -11.2863  -50.6086 H         1 UNK         0.0600 
    187 H187       -0.5208  -10.8308  -49.6109 H         1 UNK         0.0600 
    188 H188        1.1077  -10.7498  -48.9507 H         1 UNK         0.0600 
    189 H189        1.9089  -13.6331  -48.0516 H         1 UNK         0.3000 
    190 H190       -2.4018  -21.3744  -44.8548 H         1 UNK         0.3000 
    191 H191       -4.7255  -21.9356  -46.4410 H         1 UNK         0.0600 
    192 H192       -4.8716  -20.6761  -44.3239 H         1 UNK         0.0600 
    193 H193       -5.8514  -22.1272  -44.2193 H         1 UNK         0.0600 
    194 H194       -4.2889  -22.0664  -43.4126 H         1 UNK         0.0600 
    195 H195       -2.6085  -23.9378  -44.3747 H         1 UNK         0.3000 
    196 H196       -4.1412  -26.3712  -44.6147 H         1 UNK         0.0600 
    197 H197       -2.1898  -27.3848  -43.4775 H         1 UNK         0.0600 
    198 H198       -2.6536  -25.8985  -42.6642 H         1 UNK         0.0600 
    199 H199       -1.2417  -25.9258  -43.7205 H         1 UNK         0.0600 
    200 H200       -1.6425  -24.8208  -46.5184 H         1 UNK         0.3000 
    201 H201       -1.0473  -27.1134  -48.2233 H         1 UNK         0.0600 
    202 H202        0.6254  -25.2883  -47.7021 H         1 UNK         0.0600 
    203 H203       -0.3688  -24.1569  -48.6211 H         1 UNK         0.0600 
    204 H204        0.3713  -25.5310  -49.4236 H         1 UNK         0.0600 
    205 H205       -3.7414  -26.8860  -48.0983 H         1 UNK         0.3000 
    206 H206       -5.6771  -26.7801  -49.1910 H         1 UNK         0.0600 
    207 H207       -4.4470  -28.4040  -50.6320 H         1 UNK         0.0600 
    208 H208       -5.6212  -27.4953  -51.5684 H         1 UNK         0.0600 
    209 H209       -3.9126  -27.0921  -51.6801 H         1 UNK         0.0600 
    210 H210       -5.0044  -24.2841  -48.4143 H         1 UNK         0.3000 
    211 H211       -5.2898  -22.0884  -48.6665 H         1 UNK         0.0600 
    212 H212       -7.3035  -22.8280  -50.8571 H         1 UNK         0.0600 
    213 H213       -7.2168  -21.2958  -50.0018 H         1 UNK         0.0600 
    214 H214       -7.6467  -22.7587  -49.1294 H         1 UNK         0.0600 
    215 H215       -2.9899  -22.6389  -49.5630 H         1 UNK         0.3000 
    216 H216       -1.2420  -22.1993  -50.8445 H         1 UNK         0.0600 
    217 H217       -1.1306  -19.9743  -51.8968 H         1 UNK         0.0600 
    218 H218       -2.0005  -19.8406  -50.3725 H         1 UNK         0.0600 
    219 H219       -2.8814  -19.8261  -51.8912 H         1 UNK         0.0600 
    220 H220       -2.5588  -24.2686  -51.8370 H         1 UNK         0.3000 
    221 H221       -3.0925  -25.5760  -53.5468 H         1 UNK         0.0600 
    222 H222       -1.1652  -23.8469  -55.1890 H         1 UNK         0.0600 
    223 H223       -0.7006  -25.1943  -54.1512 H         1 UNK         0.0600 
    224 H224       -1.6840  -25.4813  -55.5778 H         1 UNK         0.0600 
    225 H225       -5.0425  -23.9211  -53.0184 H         1 UNK         0.3000 
    226 H226       -6.9521  -23.0857  -53.5802 H         1 UNK         0.0600 
    227 H227       -6.5288  -24.1750  -56.4100 H         1 UNK         0.0600 
    228 H228       -7.1227  -25.1141  -55.0400 H         1 UNK         0.0600 
    229 H229       -8.0651  -23.7703  -55.6600 H         1 UNK         0.0600 
    230 H230       -4.3486  -21.4601  -54.3103 H         1 UNK         0.3000 
    231 H231       -5.3615  -19.4604  -56.1714 H         1 UNK         0.0600 
    232 H232       -2.9127  -19.9327  -55.9035 H         1 UNK         0.0600 
    233 H233       -2.9803  -19.3146  -54.2538 H         1 UNK         0.0600 
    234 H234       -3.3030  -18.2443  -55.6067 H         1 UNK         0.0600 
    235 H235       -5.4301  -19.9712  -52.6844 H         1 UNK         0.3000 
    236 H236       -6.2722  -18.9460  -50.9396 H         1 UNK         0.0600 
    237 H237       -8.3811  -19.3023  -52.2313 H         1 UNK         0.0600 
    238 H238       -8.4956  -17.9063  -51.1734 H         1 UNK         0.0600 
    239 H239       -8.2519  -17.6759  -52.9002 H         1 UNK         0.0600 
    240 H240       -4.0286  -17.5890  -52.1611 H         1 UNK         0.3000 
    241 H241       -4.4636  -14.7450  -51.9724 H         1 UNK         0.0600 
    242 H242       -3.3326  -15.7518  -48.2694 H         1 UNK         0.3800 
    243 H243       -3.9840  -16.9235  -49.3847 H         1 UNK         0.3800 
    244 H244       -2.9660  -15.4817  -53.6558 H         1 UNK         0.0800 
    245 H245       -2.0328  -14.5629  -52.5235 H         1 UNK         0.0800 
    246 H246       -0.6257  -16.0555  -50.4151 H         1 UNK         0.0800 
    247 H247        0.1449  -15.2775  -51.7753 H         1 UNK         0.0800 
@<TRIPOS>BOND
     1    1    2 1    
     2    1  127 1    
     3    1  128 1    
     4    1  129 1    
     5    2    3 2    
     6    2    4 am   BACKBONE|DICT|INTERRES
     7    4    5 1    
     8    4  130 1    
     9    5    6 1    
    10    5   65 1    
    11    5  131 1    
    12    6    7 1    
    13    6  132 1    
    14    6  133 1    
    15    7    8 1    
    16    8    9 1    
    17    8  134 1    
    18    8  135 1    
    19    9   10 ar   
    20    9   14 ar   
    21   10   11 ar   
    22   10  136 1    
    23   11   12 ar   
    24   11  126 1    
    25   12   13 ar   
    26   12  137 1    
    27   13   14 ar   
    28   13   15 1    
    29   14  138 1    
    30   15   16 1    
    31   15  139 1    
    32   15  140 1    
    33   16   17 1    
    34   17   18 1    
    35   17  141 1    
    36   17  142 1    
    37   18   19 1    
    38   18   67 1    
    39   18  143 1    
    40   19   20 am   BACKBONE|DICT|INTERRES
    41   19  144 1    
    42   20   21 2    
    43   20   22 1    
    44   22   23 1    
    45   22   24 1    
    46   22  145 1    
    47   23  146 1    
    48   23  147 1    
    49   23  148 1    
    50   24   25 am   BACKBONE|DICT|INTERRES
    51   24  149 1    
    52   25   26 2    
    53   25   27 1    
    54   27   28 1    
    55   27   29 1    
    56   27  150 1    
    57   28  151 1    
    58   28  152 1    
    59   28  153 1    
    60   29   30 am   BACKBONE|DICT|INTERRES
    61   29  154 1    
    62   30   31 2    
    63   30   32 1    
    64   32   33 1    
    65   32   34 1    
    66   32  155 1    
    67   33  156 1    
    68   33  157 1    
    69   33  158 1    
    70   34   35 am   BACKBONE|DICT|INTERRES
    71   34  159 1    
    72   35   36 2    
    73   35   37 1    
    74   37   38 1    
    75   37   39 1    
    76   37  160 1    
    77   38  161 1    
    78   38  162 1    
    79   38  163 1    
    80   39   40 am   BACKBONE|DICT|INTERRES
    81   39  164 1    
    82   40   41 2    
    83   40   42 1    
    84   42   43 1    
    85   42   44 1    
    86   42  165 1    
    87   43  166 1    
    88   43  167 1    
    89   43  168 1    
    90   44   45 am   BACKBONE|DICT|INTERRES
    91   44  169 1    
    92   45   46 2    
    93   45   47 1    
    94   47   48 1    
    95   47   49 1    
    96   47  170 1    
    97   48  171 1    
    98   48  172 1    
    99   48  173 1    
   100   49   50 am   BACKBONE|DICT|INTERRES
   101   49  174 1    
   102   50   51 2    
   103   50   52 1    
   104   52   53 1    
   105   52   54 1    
   106   52  175 1    
   107   53  176 1    
   108   53  177 1    
   109   53  178 1    
   110   54   55 am   BACKBONE|DICT|INTERRES
   111   54  179 1    
   112   55   56 2    
   113   55   57 1    
   114   57   58 1    
   115   57   59 1    
   116   57  180 1    
   117   58  181 1    
   118   58  182 1    
   119   58  183 1    
   120   59   60 am   BACKBONE|DICT|INTERRES
   121   59  184 1    
   122   60   61 2    
   123   60   62 1    
   124   62   63 1    
   125   62   64 1    
   126   62  185 1    
   127   63  186 1    
   128   63  187 1    
   129   63  188 1    
   130   64   65 am   BACKBONE|DICT|INTERRES
   131   64  189 1    
   132   65   66 2    
   133   67   68 2    
   134   67   69 am   BACKBONE|DICT|INTERRES
   135   69   70 1    
   136   69  190 1    
   137   70   71 1    
   138   70   72 1    
   139   70  191 1    
   140   71  192 1    
   141   71  193 1    
   142   71  194 1    
   143   72   73 2    
   144   72   74 am   BACKBONE|DICT|INTERRES
   145   74   75 1    
   146   74  195 1    
   147   75   76 1    
   148   75   77 1    
   149   75  196 1    
   150   76  197 1    
   151   76  198 1    
   152   76  199 1    
   153   77   78 2    
   154   77   79 am   BACKBONE|DICT|INTERRES
   155   79   80 1    
   156   79  200 1    
   157   80   81 1    
   158   80   82 1    
   159   80  201 1    
   160   81  202 1    
   161   81  203 1    
   162   81  204 1    
   163   82   83 2    
   164   82   84 am   BACKBONE|DICT|INTERRES
   165   84   85 1    
   166   84  205 1    
   167   85   86 1    
   168   85   87 1    
   169   85  206 1    
   170   86  207 1    
   171   86  208 1    
   172   86  209 1    
   173   87   88 2    
   174   87   89 am   BACKBONE|DICT|INTERRES
   175   89   90 1    
   176   89  210 1    
   177   90   91 1    
   178   90   92 1    
   179   90  211 1    
   180   91  212 1    
   181   91  213 1    
   182   91  214 1    
   183   92   93 2    
   184   92   94 am   BACKBONE|DICT|INTERRES
   185   94   95 1    
   186   94  215 1    
   187   95   96 1    
   188   95   97 1    
   189   95  216 1    
   190   96  217 1    
   191   96  218 1    
   192   96  219 1    
   193   97   98 2    
   194   97   99 am   BACKBONE|DICT|INTERRES
   195   99  100 1    
   196   99  220 1    
   197  100  101 1    
   198  100  102 1    
   199  100  221 1    
   200  101  222 1    
   201  101  223 1    
   202  101  224 1    
   203  102  103 2    
   204  102  104 am   BACKBONE|DICT|INTERRES
   205  104  105 1    
   206  104  225 1    
   207  105  106 1    
   208  105  107 1    
   209  105  226 1    
   210  106  227 1    
   211  106  228 1    
   212  106  229 1    
   213  107  108 2    
   214  107  109 am   BACKBONE|DICT|INTERRES
   215  109  110 1    
   216  109  230 1    
   217  110  111 1    
   218  110  112 1    
   219  110  231 1    
   220  111  232 1    
   221  111  233 1    
   222  111  234 1    
   223  112  113 2    
   224  112  114 am   BACKBONE|DICT|INTERRES
   225  114  115 1    
   226  114  235 1    
   227  115  116 1    
   228  115  117 1    
   229  115  236 1    
   230  116  237 1    
   231  116  238 1    
   232  116  239 1    
   233  117  118 2    
   234  117  119 am   BACKBONE|DICT|INTERRES
   235  119  120 1    
   236  119  240 1    
   237  120  121 1    
   238  120  124 1    
   239  120  241 1    
   240  121  122 am   BACKBONE|DICT|INTERRES
   241  121  123 2    
   242  122  242 1    
   243  122  243 1    
   244  124  125 1    
   245  124  244 1    
   246  124  245 1    
   247  125  126 1    
   248  126  246 1    
   249  126  247 1    
@<TRIPOS>SUBSTRUCTURE
     1 UNK         1 GROUP             0       ****    0 ROOT    
