@<TRIPOS>MOLECULE
3R540
247   249    1
SMALL
USER_CHARGES


@<TRIPOS>ATOM
      1 CA          3.0162  -20.7094  -48.1725 C.3       0 UNK        -0.1800 
      2 C           2.3623  -19.3948  -48.5728 C.2       0 UNK         0.5000 
      3 O           1.7428  -19.3172  -49.6325 O.2       0 UNK        -0.5000 
      4 N           2.5066  -18.3634  -47.7358 N.am      1 UNK        -0.5000 
      5 CA          1.9516  -17.0305  -47.9411 C.3       1 UNK         0.1400 
      6 C6          2.8681  -16.1613  -48.8522 C.3       23 UNK        -0.0398 
      7 S7          2.4244  -14.3864  -48.9664 S.3       23 UNK        -0.2404 
      8 C8          1.6997  -14.2413  -50.6350 C.3       23 UNK        -0.0205 
      9 C9          0.4948  -15.1457  -50.8718 C.ar      23 UNK        -0.0193 
     10 C10         0.3529  -15.7923  -52.1018 C.ar      23 UNK        -0.1150 
     11 C11        -0.7313  -16.6399  -52.3407 C.ar      23 UNK        -0.0193 
     12 C12        -1.6571  -16.8776  -51.3192 C.ar      23 UNK        -0.1150 
     13 C13        -1.5438  -16.2164  -50.0947 C.ar      23 UNK        -0.0193 
     14 C14        -0.4848  -15.3283  -49.8901 C.ar      23 UNK        -0.1150 
     15 C15        -2.5617  -16.4482  -48.9904 C.3       23 UNK        -0.0205 
     16 S16        -1.9365  -17.6332  -47.7597 S.3       23 UNK        -0.2404 
     17 C17        -2.8039  -19.1792  -48.2109 C.3       23 UNK        -0.0398 
     18 CA         -1.9818  -20.4626  -47.9177 C.3       11 UNK         0.1400 
     19 N          -1.3646  -20.4418  -46.5880 N.am      11 UNK        -0.5000 
     20 C          -0.4448  -21.3131  -46.1508 C.2       10 UNK         0.5000 
     21 O          -0.0174  -22.2523  -46.8210 O.2       10 UNK        -0.5000 
     22 CA          0.0407  -21.1325  -44.7004 C.3       10 UNK         0.1400 
     23 CB          1.2571  -20.1961  -44.6618 C.3       10 UNK        -0.1800 
     24 N          -1.0026  -20.6305  -43.8006 N.am      10 UNK        -0.5000 
     25 C          -2.1623  -21.2623  -43.5492 C.2       9 UNK         0.5000 
     26 O          -2.4534  -22.3527  -44.0383 O.2       9 UNK        -0.5000 
     27 CA         -3.1962  -20.5597  -42.6456 C.3       9 UNK         0.1400 
     28 CB         -3.1192  -21.1155  -41.2163 C.3       9 UNK        -0.1800 
     29 N          -3.0474  -19.1062  -42.5997 N.am      9 UNK        -0.5000 
     30 C          -3.1478  -18.2805  -43.6507 C.2       8 UNK         0.5000 
     31 O          -3.5009  -18.6477  -44.7713 O.2       8 UNK        -0.5000 
     32 CA         -2.7154  -16.8164  -43.4266 C.3       8 UNK         0.1400 
     33 CB         -3.9374  -15.8982  -43.2876 C.3       8 UNK        -0.1800 
     34 N          -1.8283  -16.6178  -42.2717 N.am      8 UNK        -0.5000 
     35 C          -0.6254  -17.1850  -42.1105 C.2       7 UNK         0.5000 
     36 O          -0.1164  -17.9235  -42.9528 O.2       7 UNK        -0.5000 
     37 CA          0.1013  -16.9048  -40.7816 C.3       7 UNK         0.1400 
     38 CB          1.3133  -17.8312  -40.5754 C.3       7 UNK        -0.1800 
     39 N           0.5369  -15.5129  -40.6714 N.am      7 UNK        -0.5000 
     40 C          -0.2608  -14.4750  -40.3738 C.2       6 UNK         0.5000 
     41 O          -1.4777  -14.5924  -40.2140 O.2       6 UNK        -0.5000 
     42 CA          0.4013  -13.0946  -40.1905 C.3       6 UNK         0.1400 
     43 CB         -0.3022  -12.2365  -39.1217 C.3       6 UNK        -0.1800 
     44 N           1.8142  -13.2402  -39.8487 N.am      6 UNK        -0.5000 
     45 C           2.7955  -12.4222  -40.2396 C.2       5 UNK         0.5000 
     46 O           2.6134  -11.3702  -40.8540 O.2       5 UNK        -0.5000 
     47 CA          4.2360  -12.8717  -39.9248 C.3       5 UNK         0.1400 
     48 CB          4.3741  -13.6547  -38.5997 C.3       5 UNK        -0.1800 
     49 N           4.7983  -13.6177  -41.0539 N.am      5 UNK        -0.5000 
     50 C           4.3519  -14.7705  -41.5728 C.2       4 UNK         0.5000 
     51 O           3.4482  -15.4442  -41.0759 O.2       4 UNK        -0.5000 
     52 CA          4.9732  -15.1907  -42.9201 C.3       4 UNK         0.1400 
     53 CB          4.8789  -16.7086  -43.1541 C.3       4 UNK        -0.1800 
     54 N           4.2901  -14.5034  -44.0147 N.am      4 UNK        -0.5000 
     55 C           4.3710  -13.1889  -44.2725 C.2       3 UNK         0.5000 
     56 O           5.1936  -12.4452  -43.7352 O.2       3 UNK        -0.5000 
     57 CA          3.3674  -12.5893  -45.2798 C.3       3 UNK         0.1400 
     58 CB          4.0807  -12.2109  -46.5867 C.3       3 UNK        -0.1800 
     59 N           2.2353  -13.4653  -45.5915 N.am      3 UNK        -0.5000 
     60 C           1.2802  -13.8502  -44.7315 C.2       2 UNK         0.5000 
     61 O           1.2045  -13.4480  -43.5715 O.2       2 UNK        -0.5000 
     62 CA          0.2415  -14.8702  -45.2406 C.3       2 UNK         0.1400 
     63 CB         -1.0882  -14.1607  -45.5425 C.3       2 UNK        -0.1800 
     64 N           0.6480  -15.6170  -46.4332 N.am      2 UNK        -0.5000 
     65 C           1.7123  -16.4221  -46.5474 C.2       1 UNK         0.5000 
     66 O           2.5063  -16.6514  -45.6315 O.2       1 UNK        -0.5000 
     67 C          -2.8616  -21.7198  -48.1128 C.2       11 UNK         0.5000 
     68 O          -2.9380  -22.2555  -49.2202 O.2       11 UNK        -0.5000 
     69 N          -3.5022  -22.1687  -47.0233 N.am      12 UNK        -0.5000 
     70 CA         -4.2988  -23.3910  -46.9686 C.3       12 UNK         0.1400 
     71 CB         -5.3533  -23.2667  -45.8588 C.3       12 UNK        -0.1800 
     72 C          -3.4152  -24.6310  -46.7505 C.2       12 UNK         0.5000 
     73 O          -3.6501  -25.6578  -47.3859 O.2       12 UNK        -0.5000 
     74 N          -2.4028  -24.5145  -45.8778 N.am      13 UNK        -0.5000 
     75 CA         -1.4577  -25.5826  -45.5362 C.3       13 UNK         0.1400 
     76 CB         -0.5487  -25.1222  -44.3886 C.3       13 UNK        -0.1800 
     77 C          -0.6107  -26.0654  -46.7279 C.2       13 UNK         0.5000 
     78 O          -0.2521  -27.2430  -46.7755 O.2       13 UNK        -0.5000 
     79 N          -0.3507  -25.1743  -47.6947 N.am      14 UNK        -0.5000 
     80 CA          0.2969  -25.4501  -48.9800 C.3       14 UNK         0.1400 
     81 CB          0.7772  -24.1140  -49.5762 C.3       14 UNK        -0.1800 
     82 C          -0.6146  -26.2356  -49.9538 C.2       14 UNK         0.5000 
     83 O          -0.8146  -25.8088  -51.0922 O.2       14 UNK        -0.5000 
     84 N          -1.1865  -27.3521  -49.4762 N.am      15 UNK        -0.5000 
     85 CA         -2.0998  -28.2783  -50.1635 C.3       15 UNK         0.1400 
     86 CB         -1.3248  -29.0794  -51.2298 C.3       15 UNK        -0.1800 
     87 C          -3.3644  -27.6043  -50.7452 C.2       15 UNK         0.5000 
     88 O          -3.9284  -28.0968  -51.7235 O.2       15 UNK        -0.5000 
     89 N          -3.7514  -26.4607  -50.1603 N.am      16 UNK        -0.5000 
     90 CA         -4.7562  -25.4950  -50.6157 C.3       16 UNK         0.1400 
     91 CB         -6.1722  -26.0971  -50.5288 C.3       16 UNK        -0.1800 
     92 C          -4.4703  -24.8710  -51.9999 C.2       16 UNK         0.5000 
     93 O          -5.3428  -24.1909  -52.5394 O.2       16 UNK        -0.5000 
     94 N          -3.2679  -25.0830  -52.5548 N.am      17 UNK        -0.5000 
     95 CA         -2.8898  -24.6499  -53.8975 C.3       17 UNK         0.1400 
     96 CB         -1.6013  -25.3645  -54.3310 C.3       17 UNK        -0.1800 
     97 C          -2.7312  -23.1275  -53.9841 C.2       17 UNK         0.5000 
     98 O          -3.2175  -22.5236  -54.9382 O.2       17 UNK        -0.5000 
     99 N          -2.0977  -22.5304  -52.9654 N.am      18 UNK        -0.5000 
    100 CA        -1.9477  -21.0820  -52.8396 C.3       18 UNK         0.1400 
    101 CB        -0.9210  -20.7581  -51.7452 C.3       18 UNK        -0.1800 
    102 C         -3.2976  -20.3854  -52.5917 C.2       18 UNK         0.5000 
    103 O         -3.5858  -19.3781  -53.2373 O.2       18 UNK        -0.5000 
    104 N         -4.1280  -20.9653  -51.7134 N.am      19 UNK        -0.5000 
    105 CA        -5.4985  -20.5173  -51.4566 C.3       19 UNK         0.1400 
    106 CB        -6.1169  -21.3564  -50.3272 C.3       19 UNK        -0.1800 
    107 C         -6.3867  -20.5432  -52.7170 C.2       19 UNK         0.5000 
    108 O         -7.1101  -19.5788  -52.9664 O.2       19 UNK        -0.5000 
    109 N         -6.2889  -21.6207  -53.5078 N.am      20 UNK        -0.5000 
    110 CA        -6.9896  -21.7734  -54.7826 C.3       20 UNK         0.1400 
    111 CB        -6.8774  -23.2294  -55.2603 C.3       20 UNK        -0.1800 
    112 C         -6.4861  -20.8048  -55.8696 C.2       20 UNK         0.5000 
    113 O         -7.3041  -20.2392  -56.5961 O.2       20 UNK        -0.5000 
    114 N         -5.1600  -20.6374  -55.9694 N.am      21 UNK        -0.5000 
    115 CA        -4.5054  -19.7920  -56.9675 C.3       21 UNK         0.1400 
    116 CB        -3.0006  -20.1035  -57.0090 C.3       21 UNK        -0.1800 
    117 C         -4.7372  -18.2904  -56.7350 C.2       21 UNK         0.5000 
    118 O         -5.1284  -17.5883  -57.6692 O.2       21 UNK        -0.5000 
    119 N         -4.4743  -17.8254  -55.5085 N.am      22 UNK        -0.5000 
    120 CA        -4.5502  -16.4037  -55.1363 C.3       22 UNK         0.1400 
    121 C         -5.9376  -15.9639  -54.5886 C.2       22 UNK         0.5000 
    122 N         -6.8478  -16.8665  -54.2463 N.am      22 UNK        -0.7600 
    123 O         -6.2025  -14.7691  -54.4863 O.2       22 UNK        -0.5000 
    124 C124       -3.4188  -16.0101  -54.1562 C.3       23 UNK        -0.0398 
    125 S125       -1.7494  -16.1875  -54.8855 S.3       23 UNK        -0.2404 
    126 C126       -0.8973  -17.2871  -53.7073 C.3       23 UNK        -0.0205 
    127 H127        3.6751  -21.0581  -48.9677 H         1 UNK         0.0600 
    128 H128        2.2553  -21.4699  -48.0036 H         1 UNK         0.0600 
    129 H129        3.6076  -20.6088  -47.2622 H         1 UNK         0.0600 
    130 H130        2.9941  -18.4706  -46.8548 H         1 UNK         0.3000 
    131 H131        0.9793  -17.1390  -48.4235 H         1 UNK         0.0600 
    132 H132        2.8928  -16.5872  -49.8562 H         1 UNK         0.0800 
    133 H133        3.8955  -16.2088  -48.4878 H         1 UNK         0.0800 
    134 H134        2.4826  -14.4479  -51.3665 H         1 UNK         0.0800 
    135 H135        1.3935  -13.2068  -50.7945 H         1 UNK         0.0800 
    136 H136        1.0815  -15.6280  -52.8835 H         1 UNK         0.1150 
    137 H137       -2.4787  -17.5600  -51.4821 H         1 UNK         0.1150 
    138 H138       -0.4096  -14.7973  -48.9534 H         1 UNK         0.1150 
    139 H139       -2.7719  -15.5026  -48.4884 H         1 UNK         0.0800 
    140 H140       -3.5139  -16.7870  -49.4012 H         1 UNK         0.0800 
    141 H141       -3.0670  -19.1483  -49.2697 H         1 UNK         0.0800 
    142 H142       -3.7462  -19.1889  -47.6594 H         1 UNK         0.0800 
    143 H143       -1.1663  -20.5110  -48.6411 H         1 UNK         0.0600 
    144 H144       -1.6782  -19.7068  -45.9676 H         1 UNK         0.3000 
    145 H145        0.3558  -22.1059  -44.3247 H         1 UNK         0.0600 
    146 H146        1.6286  -20.0697  -43.6447 H         1 UNK         0.0600 
    147 H147        2.0764  -20.5973  -45.2584 H         1 UNK         0.0600 
    148 H148        1.0168  -19.2075  -45.0551 H         1 UNK         0.0600 
    149 H149       -0.8300  -19.7194  -43.3864 H         1 UNK         0.3000 
    150 H150       -4.1862  -20.7815  -43.0496 H         1 UNK         0.0600 
    151 H151       -3.2535  -22.1982  -41.2105 H         1 UNK         0.0600 
    152 H152       -3.8988  -20.6899  -40.5841 H         1 UNK         0.0600 
    153 H153       -2.1551  -20.9018  -40.7530 H         1 UNK         0.0600 
    154 H154       -2.7574  -18.7111  -41.7179 H         1 UNK         0.3000 
    155 H155       -2.1645  -16.5229  -44.3197 H         1 UNK         0.0600 
    156 H156       -4.5152  -16.1319  -42.3927 H         1 UNK         0.0600 
    157 H157       -4.6028  -15.9999  -44.1461 H         1 UNK         0.0600 
    158 H158       -3.6387  -14.8512  -43.2319 H         1 UNK         0.0600 
    159 H159       -2.1453  -15.9791  -41.5492 H         1 UNK         0.3000 
    160 H160       -0.6050  -17.1123  -39.9750 H         1 UNK         0.0600 
    161 H161        2.0558  -17.7068  -41.3645 H         1 UNK         0.0600 
    162 H162        1.0087  -18.8785  -40.5771 H         1 UNK         0.0600 
    163 H163        1.8036  -17.6360  -39.6216 H         1 UNK         0.0600 
    164 H164        1.5225  -15.3465  -40.8591 H         1 UNK         0.3000 
    165 H165        0.3124  -12.5870  -41.1528 H         1 UNK         0.0600 
    166 H166        0.1672  -11.2570  -39.0299 H         1 UNK         0.0600 
    167 H167       -1.3491  -12.0679  -39.3768 H         1 UNK         0.0600 
    168 H168       -0.2730  -12.7156  -38.1426 H         1 UNK         0.0600 
    169 H169        2.0677  -14.0974  -39.3767 H         1 UNK         0.3000 
    170 H170        4.8307  -11.9620  -39.8281 H         1 UNK         0.0600 
    171 H171        3.9607  -13.0837  -37.7674 H         1 UNK         0.0600 
    172 H172        3.8661  -14.6187  -38.6198 H         1 UNK         0.0600 
    173 H173        5.4228  -13.8434  -38.3705 H         1 UNK         0.0600 
    174 H174        5.4629  -13.0988  -41.6152 H         1 UNK         0.3000 
    175 H175        6.0284  -14.9101  -42.9220 H         1 UNK         0.0600 
    176 H176        3.8430  -17.0486  -43.1982 H         1 UNK         0.0600 
    177 H177        5.3611  -16.9934  -44.0892 H         1 UNK         0.0600 
    178 H178        5.3711  -17.2583  -42.3511 H         1 UNK         0.0600 
    179 H179        3.5911  -15.0467  -44.5069 H         1 UNK         0.3000 
    180 H180        2.9676  -11.6777  -44.8311 H         1 UNK         0.0600 
    181 H181        3.3953  -11.7372  -47.2897 H         1 UNK         0.0600 
    182 H182        4.5141  -13.0848  -47.0745 H         1 UNK         0.0600 
    183 H183        4.8911  -11.5051  -46.4001 H         1 UNK         0.0600 
    184 H184        2.2092  -13.8423  -46.5288 H         1 UNK         0.3000 
    185 H185        0.0828  -15.5942  -44.4421 H         1 UNK         0.0600 
    186 H186       -1.8427  -14.8566  -45.9089 H         1 UNK         0.0600 
    187 H187       -1.4899  -13.6882  -44.6450 H         1 UNK         0.0600 
    188 H188       -0.9639  -13.3823  -46.2964 H         1 UNK         0.0600 
    189 H189        0.0493  -15.5080  -47.2372 H         1 UNK         0.3000 
    190 H190       -3.3493  -21.6923  -46.1454 H         1 UNK         0.3000 
    191 H191       -4.8286  -23.5111  -47.9147 H         1 UNK         0.0600 
    192 H192       -5.9822  -24.1570  -45.8193 H         1 UNK         0.0600 
    193 H193       -6.0090  -22.4136  -46.0336 H         1 UNK         0.0600 
    194 H194       -4.8986  -23.1435  -44.8755 H         1 UNK         0.0600 
    195 H195       -2.3188  -23.6529  -45.3441 H         1 UNK         0.3000 
    196 H196       -2.0440  -26.4336  -45.1840 H         1 UNK         0.0600 
    197 H197        0.1140  -24.3186  -44.7062 H         1 UNK         0.0600 
    198 H198       -1.1284  -24.7698  -43.5353 H         1 UNK         0.0600 
    199 H199        0.0799  -25.9420  -44.0388 H         1 UNK         0.0600 
    200 H200       -0.6389  -24.2152  -47.5395 H         1 UNK         0.3000 
    201 H201        1.1766  -26.0701  -48.7973 H         1 UNK         0.0600 
    202 H202       -0.0559  -23.4338  -49.7593 H         1 UNK         0.0600 
    203 H203        1.2962  -24.2657  -50.5234 H         1 UNK         0.0600 
    204 H204        1.4738  -23.6135  -48.9040 H         1 UNK         0.0600 
    205 H205       -0.9666  -27.5891  -48.5124 H         1 UNK         0.3000 
    206 H206       -2.4514  -28.9807  -49.4067 H         1 UNK         0.0600 
    207 H207       -0.4450  -29.5588  -50.8007 H         1 UNK         0.0600 
    208 H208       -1.9441  -29.8683  -51.6583 H         1 UNK         0.0600 
    209 H209       -0.9928  -28.4413  -52.0496 H         1 UNK         0.0600 
    210 H210       -3.2705  -26.1901  -49.3089 H         1 UNK         0.3000 
    211 H211       -4.7081  -24.6647  -49.9124 H         1 UNK         0.0600 
    212 H212       -6.9332  -25.3411  -50.7260 H         1 UNK         0.0600 
    213 H213       -6.3674  -26.4994  -49.5348 H         1 UNK         0.0600 
    214 H214       -6.3154  -26.9004  -51.2518 H         1 UNK         0.0600 
    215 H215       -2.5613  -25.5843  -52.0256 H         1 UNK         0.3000 
    216 H216       -3.6865  -24.9438  -54.5843 H         1 UNK         0.0600 
    217 H217       -0.7548  -25.0935  -53.6990 H         1 UNK         0.0600 
    218 H218       -1.3397  -25.1049  -55.3575 H         1 UNK         0.0600 
    219 H219       -1.7176  -26.4476  -54.2875 H         1 UNK         0.0600 
    220 H220       -1.7470  -23.1024  -52.2104 H         1 UNK         0.3000 
    221 H221       -1.5558  -20.7005  -53.7846 H         1 UNK         0.0600 
    222 H222        0.0794  -21.0722  -52.0431 H         1 UNK         0.0600 
    223 H223       -1.1560  -21.2636  -50.8118 H         1 UNK         0.0600 
    224 H224       -0.8748  -19.6883  -51.5402 H         1 UNK         0.0600 
    225 H225       -3.8019  -21.7673  -51.1890 H         1 UNK         0.3000 
    226 H226       -5.4459  -19.4810  -51.1165 H         1 UNK         0.0600 
    227 H227       -6.1241  -22.4193  -50.5692 H         1 UNK         0.0600 
    228 H228       -5.5693  -21.2279  -49.3943 H         1 UNK         0.0600 
    229 H229       -7.1484  -21.0564  -50.1381 H         1 UNK         0.0600 
    230 H230       -5.7176  -22.4054  -53.2075 H         1 UNK         0.3000 
    231 H231       -8.0464  -21.5576  -54.6117 H         1 UNK         0.0600 
    232 H232       -5.8383  -23.5262  -55.4068 H         1 UNK         0.0600 
    233 H233       -7.3979  -23.3722  -56.2081 H         1 UNK         0.0600 
    234 H234       -7.3217  -23.9153  -54.5389 H         1 UNK         0.0600 
    235 H235       -4.5480  -21.1830  -55.3694 H         1 UNK         0.3000 
    236 H236       -4.9230  -20.0434  -57.9448 H         1 UNK         0.0600 
    237 H237       -2.8213  -21.1405  -57.2929 H         1 UNK         0.0600 
    238 H238       -2.4900  -19.4746  -57.7393 H         1 UNK         0.0600 
    239 H239       -2.5270  -19.9340  -56.0413 H         1 UNK         0.0600 
    240 H240       -4.1682  -18.4651  -54.7791 H         1 UNK         0.3000 
    241 H241       -4.3993  -15.8033  -56.0356 H         1 UNK         0.0600 
    242 H242       -7.7410  -16.5552  -53.9000 H         1 UNK         0.3800 
    243 H243       -6.6453  -17.8569  -54.2609 H         1 UNK         0.3800 
    244 H244       -3.5073  -16.6086  -53.2521 H         1 UNK         0.0800 
    245 H245       -3.5208  -14.9698  -53.8422 H         1 UNK         0.0800 
    246 H246        0.0838  -17.5386  -54.1124 H         1 UNK         0.0800 
    247 H247       -1.4328  -18.2281  -53.6294 H         1 UNK         0.0800 
@<TRIPOS>BOND
     1    1    2 1    
     2    1  127 1    
     3    1  128 1    
     4    1  129 1    
     5    2    3 2    
     6    2    4 am   BACKBONE|DICT|INTERRES
     7    4    5 1    
     8    4  130 1    
     9    5    6 1    
    10    5   65 1    
    11    5  131 1    
    12    6    7 1    
    13    6  132 1    
    14    6  133 1    
    15    7    8 1    
    16    8    9 1    
    17    8  134 1    
    18    8  135 1    
    19    9   10 ar   
    20    9   14 ar   
    21   10   11 ar   
    22   10  136 1    
    23   11   12 ar   
    24   11  126 1    
    25   12   13 ar   
    26   12  137 1    
    27   13   14 ar   
    28   13   15 1    
    29   14  138 1    
    30   15   16 1    
    31   15  139 1    
    32   15  140 1    
    33   16   17 1    
    34   17   18 1    
    35   17  141 1    
    36   17  142 1    
    37   18   19 1    
    38   18   67 1    
    39   18  143 1    
    40   19   20 am   BACKBONE|DICT|INTERRES
    41   19  144 1    
    42   20   21 2    
    43   20   22 1    
    44   22   23 1    
    45   22   24 1    
    46   22  145 1    
    47   23  146 1    
    48   23  147 1    
    49   23  148 1    
    50   24   25 am   BACKBONE|DICT|INTERRES
    51   24  149 1    
    52   25   26 2    
    53   25   27 1    
    54   27   28 1    
    55   27   29 1    
    56   27  150 1    
    57   28  151 1    
    58   28  152 1    
    59   28  153 1    
    60   29   30 am   BACKBONE|DICT|INTERRES
    61   29  154 1    
    62   30   31 2    
    63   30   32 1    
    64   32   33 1    
    65   32   34 1    
    66   32  155 1    
    67   33  156 1    
    68   33  157 1    
    69   33  158 1    
    70   34   35 am   BACKBONE|DICT|INTERRES
    71   34  159 1    
    72   35   36 2    
    73   35   37 1    
    74   37   38 1    
    75   37   39 1    
    76   37  160 1    
    77   38  161 1    
    78   38  162 1    
    79   38  163 1    
    80   39   40 am   BACKBONE|DICT|INTERRES
    81   39  164 1    
    82   40   41 2    
    83   40   42 1    
    84   42   43 1    
    85   42   44 1    
    86   42  165 1    
    87   43  166 1    
    88   43  167 1    
    89   43  168 1    
    90   44   45 am   BACKBONE|DICT|INTERRES
    91   44  169 1    
    92   45   46 2    
    93   45   47 1    
    94   47   48 1    
    95   47   49 1    
    96   47  170 1    
    97   48  171 1    
    98   48  172 1    
    99   48  173 1    
   100   49   50 am   BACKBONE|DICT|INTERRES
   101   49  174 1    
   102   50   51 2    
   103   50   52 1    
   104   52   53 1    
   105   52   54 1    
   106   52  175 1    
   107   53  176 1    
   108   53  177 1    
   109   53  178 1    
   110   54   55 am   BACKBONE|DICT|INTERRES
   111   54  179 1    
   112   55   56 2    
   113   55   57 1    
   114   57   58 1    
   115   57   59 1    
   116   57  180 1    
   117   58  181 1    
   118   58  182 1    
   119   58  183 1    
   120   59   60 am   BACKBONE|DICT|INTERRES
   121   59  184 1    
   122   60   61 2    
   123   60   62 1    
   124   62   63 1    
   125   62   64 1    
   126   62  185 1    
   127   63  186 1    
   128   63  187 1    
   129   63  188 1    
   130   64   65 am   BACKBONE|DICT|INTERRES
   131   64  189 1    
   132   65   66 2    
   133   67   68 2    
   134   67   69 am   BACKBONE|DICT|INTERRES
   135   69   70 1    
   136   69  190 1    
   137   70   71 1    
   138   70   72 1    
   139   70  191 1    
   140   71  192 1    
   141   71  193 1    
   142   71  194 1    
   143   72   73 2    
   144   72   74 am   BACKBONE|DICT|INTERRES
   145   74   75 1    
   146   74  195 1    
   147   75   76 1    
   148   75   77 1    
   149   75  196 1    
   150   76  197 1    
   151   76  198 1    
   152   76  199 1    
   153   77   78 2    
   154   77   79 am   BACKBONE|DICT|INTERRES
   155   79   80 1    
   156   79  200 1    
   157   80   81 1    
   158   80   82 1    
   159   80  201 1    
   160   81  202 1    
   161   81  203 1    
   162   81  204 1    
   163   82   83 2    
   164   82   84 am   BACKBONE|DICT|INTERRES
   165   84   85 1    
   166   84  205 1    
   167   85   86 1    
   168   85   87 1    
   169   85  206 1    
   170   86  207 1    
   171   86  208 1    
   172   86  209 1    
   173   87   88 2    
   174   87   89 am   BACKBONE|DICT|INTERRES
   175   89   90 1    
   176   89  210 1    
   177   90   91 1    
   178   90   92 1    
   179   90  211 1    
   180   91  212 1    
   181   91  213 1    
   182   91  214 1    
   183   92   93 2    
   184   92   94 am   BACKBONE|DICT|INTERRES
   185   94   95 1    
   186   94  215 1    
   187   95   96 1    
   188   95   97 1    
   189   95  216 1    
   190   96  217 1    
   191   96  218 1    
   192   96  219 1    
   193   97   98 2    
   194   97   99 am   BACKBONE|DICT|INTERRES
   195   99  100 1    
   196   99  220 1    
   197  100  101 1    
   198  100  102 1    
   199  100  221 1    
   200  101  222 1    
   201  101  223 1    
   202  101  224 1    
   203  102  103 2    
   204  102  104 am   BACKBONE|DICT|INTERRES
   205  104  105 1    
   206  104  225 1    
   207  105  106 1    
   208  105  107 1    
   209  105  226 1    
   210  106  227 1    
   211  106  228 1    
   212  106  229 1    
   213  107  108 2    
   214  107  109 am   BACKBONE|DICT|INTERRES
   215  109  110 1    
   216  109  230 1    
   217  110  111 1    
   218  110  112 1    
   219  110  231 1    
   220  111  232 1    
   221  111  233 1    
   222  111  234 1    
   223  112  113 2    
   224  112  114 am   BACKBONE|DICT|INTERRES
   225  114  115 1    
   226  114  235 1    
   227  115  116 1    
   228  115  117 1    
   229  115  236 1    
   230  116  237 1    
   231  116  238 1    
   232  116  239 1    
   233  117  118 2    
   234  117  119 am   BACKBONE|DICT|INTERRES
   235  119  120 1    
   236  119  240 1    
   237  120  121 1    
   238  120  124 1    
   239  120  241 1    
   240  121  122 am   BACKBONE|DICT|INTERRES
   241  121  123 2    
   242  122  242 1    
   243  122  243 1    
   244  124  125 1    
   245  124  244 1    
   246  124  245 1    
   247  125  126 1    
   248  126  246 1    
   249  126  247 1    
@<TRIPOS>SUBSTRUCTURE
     1 UNK         1 GROUP             0       ****    0 ROOT    
