@<TRIPOS>MOLECULE
3R540
247   249    1
SMALL
USER_CHARGES


@<TRIPOS>ATOM
      1 CA          5.0799  -14.1367  -44.8220 C.3       0 UNK        -0.1800 
      2 C           3.7830  -13.4786  -45.2656 C.2       0 UNK         0.5000 
      3 O           3.1025  -12.8547  -44.4514 O.2       0 UNK        -0.5000 
      4 N           3.4449  -13.5984  -46.5556 N.am      1 UNK        -0.5000 
      5 CA          2.2244  -13.0535  -47.1675 C.3       1 UNK         0.1400 
      6 C6          2.0056  -13.5885  -48.6024 C.3       23 UNK        -0.0398 
      7 S7          1.7831  -15.3976  -48.6226 S.3       23 UNK        -0.2404 
      8 C8          1.1418  -15.6528  -50.3044 C.3       23 UNK        -0.0205 
      9 C9          0.3743  -16.9610  -50.3917 C.ar      23 UNK        -0.0193 
     10 C10        -1.0182  -16.9643  -50.2715 C.ar      23 UNK        -0.1150 
     11 C11        -1.7416  -18.1587  -50.3339 C.ar      23 UNK        -0.0193 
     12 C12        -1.0421  -19.3629  -50.4864 C.ar      23 UNK        -0.1150 
     13 C13         0.3488  -19.3748  -50.6236 C.ar      23 UNK        -0.0193 
     14 C14         1.0517  -18.1674  -50.5851 C.ar      23 UNK        -0.1150 
     15 C15         1.0788  -20.6968  -50.8278 C.3       23 UNK        -0.0205 
     16 S16         2.3930  -21.0149  -49.6004 S.3       23 UNK        -0.2404 
     17 C17         1.5583  -20.7393  -48.0002 C.3       23 UNK        -0.0398 
     18 CA          0.9125  -22.0145  -47.4057 C.3       11 UNK         0.1400 
     19 N           0.8257  -21.9546  -45.9436 N.am      11 UNK        -0.5000 
     20 C           0.4292  -22.9623  -45.1523 C.2       10 UNK         0.5000 
     21 O           0.1579  -24.0898  -45.5643 O.2       10 UNK        -0.5000 
     22 CA          0.2491  -22.6410  -43.6563 C.3       10 UNK         0.1400 
     23 CB          1.5949  -22.6774  -42.9180 C.3       10 UNK        -0.1800 
     24 N          -0.4004  -21.3471  -43.4398 N.am      10 UNK        -0.5000 
     25 C          -1.6500  -21.0540  -43.8280 C.2       9 UNK         0.5000 
     26 O          -2.4141  -21.8716  -44.3391 O.2       9 UNK        -0.5000 
     27 CA         -2.1026  -19.5911  -43.6744 C.3       9 UNK         0.1400 
     28 CB         -2.6165  -19.3136  -42.2537 C.3       9 UNK        -0.1800 
     29 N          -1.0367  -18.6472  -44.0120 N.am      9 UNK        -0.5000 
     30 C          -0.5384  -18.4798  -45.2458 C.2       8 UNK         0.5000 
     31 O          -0.9572  -19.0740  -46.2381 O.2       8 UNK        -0.5000 
     32 CA          0.6646  -17.5309  -45.3779 C.3       8 UNK         0.1400 
     33 CB          0.1970  -16.0705  -45.4532 C.3       8 UNK        -0.1800 
     34 N           1.6024  -17.6900  -44.2649 N.am      8 UNK        -0.5000 
     35 C           2.3768  -18.7717  -44.0873 C.2       7 UNK         0.5000 
     36 O           2.4015  -19.7210  -44.8687 O.2       7 UNK        -0.5000 
     37 CA          3.2312  -18.8369  -42.8051 C.3       7 UNK         0.1400 
     38 CB          4.6131  -18.2134  -43.0463 C.3       7 UNK        -0.1800 
     39 N           2.6031  -18.1823  -41.6583 N.am      7 UNK        -0.5000 
     40 C           1.4274  -18.5353  -41.1206 C.2       6 UNK         0.5000 
     41 O           0.7914  -19.5275  -41.4756 O.2       6 UNK        -0.5000 
     42 CA          0.8337  -17.5941  -40.0516 C.3       6 UNK         0.1400 
     43 CB          1.0872  -18.1553  -38.6449 C.3       6 UNK        -0.1800 
     44 N           1.3317  -16.2130  -40.1156 N.am      6 UNK        -0.5000 
     45 C           1.2161  -15.3940  -41.1708 C.2       5 UNK         0.5000 
     46 O           0.6883  -15.7276  -42.2342 O.2       5 UNK        -0.5000 
     47 CA          1.8705  -14.0082  -41.0279 C.3       5 UNK         0.1400 
     48 CB          3.4008  -14.1275  -41.1167 C.3       5 UNK        -0.1800 
     49 N           1.4246  -13.0787  -42.0624 N.am      5 UNK        -0.5000 
     50 C           0.2306  -12.4728  -42.0989 C.2       4 UNK         0.5000 
     51 O          -0.6389  -12.6214  -41.2375 O.2       4 UNK        -0.5000 
     52 CA          0.0010  -11.5177  -43.2912 C.3       4 UNK         0.1400 
     53 CB         -1.2324  -10.6063  -43.1233 C.3       4 UNK        -0.1800 
     54 N           1.2032  -10.7357  -43.6009 N.am      4 UNK        -0.5000 
     55 C           1.8432   -9.8653  -42.8041 C.2       3 UNK         0.5000 
     56 O           1.4059   -9.4679  -41.7236 O.2       3 UNK        -0.5000 
     57 CA          3.2306   -9.3835  -43.2715 C.3       3 UNK         0.1400 
     58 CB          4.3313  -10.0489  -42.4287 C.3       3 UNK        -0.1800 
     59 N           3.4859   -9.6868  -44.6804 N.am      3 UNK        -0.5000 
     60 C           3.2104   -8.8675  -45.7038 C.2       2 UNK         0.5000 
     61 O           2.7414   -7.7368  -45.5703 O.2       2 UNK        -0.5000 
     62 CA          3.4999   -9.4088  -47.1183 C.3       2 UNK         0.1400 
     63 CB          4.9176   -9.0188  -47.5637 C.3       2 UNK        -0.1800 
     64 N           3.3510  -10.8634  -47.2151 N.am      2 UNK        -0.5000 
     65 C           2.1791  -11.5117  -47.1486 C.2       1 UNK         0.5000 
     66 O           1.0930  -10.9433  -47.0368 O.2       1 UNK        -0.5000 
     67 C          -0.4633  -22.2990  -48.0414 C.2       11 UNK         0.5000 
     68 O          -0.5703  -23.1980  -48.8748 O.2       11 UNK        -0.5000 
     69 N          -1.4971  -21.5656  -47.6020 N.am      12 UNK        -0.5000 
     70 CA         -2.8852  -21.7443  -48.0287 C.3       12 UNK         0.1400 
     71 CB         -3.7696  -20.6607  -47.3957 C.3       12 UNK        -0.1800 
     72 C          -3.4298  -23.1456  -47.7085 C.2       12 UNK         0.5000 
     73 O          -4.0649  -23.7527  -48.5690 O.2       12 UNK        -0.5000 
     74 N          -3.1381  -23.6493  -46.5013 N.am      13 UNK        -0.5000 
     75 CA         -3.4864  -24.9983  -46.0573 C.3       13 UNK         0.1400 
     76 CB         -3.1707  -25.1512  -44.5620 C.3       13 UNK        -0.1800 
     77 C          -2.7894  -26.0938  -46.8842 C.2       13 UNK         0.5000 
     78 O          -3.4508  -27.0454  -47.2995 O.2       13 UNK        -0.5000 
     79 N          -1.4857  -25.9223  -47.1485 N.am      14 UNK        -0.5000 
     80 CA         -0.6789  -26.8177  -47.9831 C.3       14 UNK         0.1400 
     81 CB          0.8004  -26.4148  -47.8865 C.3       14 UNK        -0.1800 
     82 C          -1.1411  -26.8502  -49.4529 C.2       14 UNK         0.5000 
     83 O          -1.1544  -27.9183  -50.0655 O.2       14 UNK        -0.5000 
     84 N          -1.5463  -25.6866  -49.9764 N.am      15 UNK        -0.5000 
     85 CA         -2.1252  -25.5125  -51.3093 C.3       15 UNK         0.1400 
     86 CB         -2.0117  -24.0277  -51.6916 C.3       15 UNK        -0.1800 
     87 C          -3.5943  -25.9730  -51.4148 C.2       15 UNK         0.5000 
     88 O          -4.1355  -25.9938  -52.5224 O.2       15 UNK        -0.5000 
     89 N          -4.2300  -26.2713  -50.2695 N.am      16 UNK        -0.5000 
     90 CA         -5.6584  -26.5602  -50.0887 C.3       16 UNK         0.1400 
     91 CB         -6.0094  -27.9364  -50.6893 C.3       16 UNK        -0.1800 
     92 C          -6.5565  -25.4231  -50.6246 C.2       16 UNK         0.5000 
     93 O          -7.6175  -25.6838  -51.1954 O.2       16 UNK        -0.5000 
     94 N          -6.0646  -24.1826  -50.4880 N.am      17 UNK        -0.5000 
     95 CA         -6.5123  -22.9141  -51.0710 C.3       17 UNK         0.1400 
     96 CB         -7.9044  -22.5169  -50.5479 C.3       17 UNK        -0.1800 
     97 C          -6.4635  -22.8588  -52.6123 C.2       17 UNK         0.5000 
     98 O          -6.0105  -21.8575  -53.1664 O.2       17 UNK        -0.5000 
     99 N          -6.9424  -23.9166  -53.2743 N.am      18 UNK        -0.5000 
    100 CA        -7.1569  -24.0180  -54.7141 C.3       18 UNK         0.1400 
    101 CB        -7.8848  -25.3361  -55.0177 C.3       18 UNK        -0.1800 
    102 C         -5.8827  -23.9002  -55.5658 C.2       18 UNK         0.5000 
    103 O         -5.9190  -23.2236  -56.5939 O.2       18 UNK        -0.5000 
    104 N         -4.7833  -24.5433  -55.1426 N.am      19 UNK        -0.5000 
    105 CA        -3.5444  -24.6105  -55.9292 C.3       19 UNK         0.1400 
    106 CB        -2.6380  -25.7248  -55.3852 C.3       19 UNK        -0.1800 
    107 C         -2.7814  -23.2737  -55.9983 C.2       19 UNK         0.5000 
    108 O         -2.0406  -23.0510  -56.9565 O.2       19 UNK        -0.5000 
    109 N         -2.9844  -22.4126  -54.9941 N.am      20 UNK        -0.5000 
    110 CA        -2.3967  -21.0750  -54.9016 C.3       20 UNK         0.1400 
    111 CB        -1.7950  -20.9073  -53.4988 C.3       20 UNK        -0.1800 
    112 C         -3.4173  -19.9621  -55.2174 C.2       20 UNK         0.5000 
    113 O         -3.0345  -18.7920  -55.2484 O.2       20 UNK        -0.5000 
    114 N         -4.6821  -20.3418  -55.4606 N.am      21 UNK        -0.5000 
    115 CA        -5.8384  -19.4876  -55.7477 C.3       21 UNK         0.1400 
    116 CB        -5.6876  -18.8120  -57.1266 C.3       21 UNK        -0.1800 
    117 C         -6.1427  -18.4915  -54.6080 C.2       21 UNK         0.5000 
    118 O         -6.3451  -17.3012  -54.8575 O.2       21 UNK        -0.5000 
    119 N         -6.1605  -19.0027  -53.3707 N.am      22 UNK        -0.5000 
    120 CA        -6.3968  -18.2230  -52.1417 C.3       22 UNK         0.1400 
    121 C         -7.8701  -17.7624  -51.9333 C.2       22 UNK         0.5000 
    122 N         -8.8428  -18.2754  -52.6771 N.am      22 UNK        -0.7600 
    123 O         -8.1346  -16.9191  -51.0808 O.2       22 UNK        -0.5000 
    124 C124       -5.8789  -18.9480  -50.8717 C.3       23 UNK        -0.0398 
    125 S125       -4.1453  -19.4933  -51.0061 S.3       23 UNK        -0.2404 
    126 C126       -3.2662  -18.0997  -50.2208 C.3       23 UNK        -0.0205 
    127 H127        5.6932  -13.4231  -44.2718 H         1 UNK         0.0600 
    128 H128        5.6595  -14.5015  -45.6701 H         1 UNK         0.0600 
    129 H129        4.8656  -14.9796  -44.1674 H         1 UNK         0.0600 
    130 H130        4.0345  -14.1390  -47.1725 H         1 UNK         0.3000 
    131 H131        1.3814  -13.3833  -46.5576 H         1 UNK         0.0600 
    132 H132        1.1167  -13.1322  -49.0425 H         1 UNK         0.0800 
    133 H133        2.8439  -13.3263  -49.2503 H         1 UNK         0.0800 
    134 H134        0.4916  -14.8240  -50.5885 H         1 UNK         0.0800 
    135 H135        1.9707  -15.6526  -51.0137 H         1 UNK         0.0800 
    136 H136       -1.5421  -16.0295  -50.1289 H         1 UNK         0.1150 
    137 H137       -1.5770  -20.2998  -50.5161 H         1 UNK         0.1150 
    138 H138        2.1282  -18.1691  -50.6841 H         1 UNK         0.1150 
    139 H139        0.3776  -21.5321  -50.8167 H         1 UNK         0.0800 
    140 H140        1.5255  -20.6959  -51.8227 H         1 UNK         0.0800 
    141 H141        0.8505  -19.9119  -48.0607 H         1 UNK         0.0800 
    142 H142        2.3454  -20.3887  -47.3338 H         1 UNK         0.0800 
    143 H143        1.5598  -22.8635  -47.6356 H         1 UNK         0.0600 
    144 H144        1.0886  -21.0742  -45.5128 H         1 UNK         0.3000 
    145 H145       -0.3940  -23.4108  -43.2251 H         1 UNK         0.0600 
    146 H146        2.0593  -23.6602  -43.0062 H         1 UNK         0.0600 
    147 H147        2.2968  -21.9477  -43.3202 H         1 UNK         0.0600 
    148 H148        1.4684  -22.4701  -41.8551 H         1 UNK         0.0600 
    149 H149        0.1388  -20.6336  -42.9588 H         1 UNK         0.3000 
    150 H150       -2.9288  -19.4252  -44.3689 H         1 UNK         0.0600 
    151 H151       -2.9740  -18.2884  -42.1567 H         1 UNK         0.0600 
    152 H152       -1.8443  -19.4723  -41.5014 H         1 UNK         0.0600 
    153 H153       -3.4500  -19.9729  -42.0085 H         1 UNK         0.0600 
    154 H154       -0.6122  -18.1421  -43.2478 H         1 UNK         0.3000 
    155 H155        1.1890  -17.7692  -46.3061 H         1 UNK         0.0600 
    156 H156       -0.4419  -15.8008  -44.6120 H         1 UNK         0.0600 
    157 H157       -0.3732  -15.8933  -46.3659 H         1 UNK         0.0600 
    158 H158        1.0471  -15.3898  -45.4570 H         1 UNK         0.0600 
    159 H159        1.5739  -16.9715  -43.5489 H         1 UNK         0.3000 
    160 H160        3.3704  -19.8897  -42.5525 H         1 UNK         0.0600 
    161 H161        5.1132  -18.6859  -43.8928 H         1 UNK         0.0600 
    162 H162        4.5395  -17.1474  -43.2607 H         1 UNK         0.0600 
    163 H163        5.2595  -18.3376  -42.1773 H         1 UNK         0.0600 
    164 H164        3.0598  -17.3573  -41.3003 H         1 UNK         0.3000 
    165 H165       -0.2450  -17.5619  -40.2178 H         1 UNK         0.0600 
    166 H166        0.5890  -17.5544  -37.8839 H         1 UNK         0.0600 
    167 H167        0.7038  -19.1727  -38.5549 H         1 UNK         0.0600 
    168 H168        2.1517  -18.1835  -38.4090 H         1 UNK         0.0600 
    169 H169        1.7939  -15.8709  -39.2852 H         1 UNK         0.3000 
    170 H170        1.6035  -13.5977  -40.0520 H         1 UNK         0.0600 
    171 H171        3.8781  -13.1522  -41.0198 H         1 UNK         0.0600 
    172 H172        3.7978  -14.7598  -40.3219 H         1 UNK         0.0600 
    173 H173        3.7139  -14.5588  -42.0677 H         1 UNK         0.0600 
    174 H174        2.0570  -12.9390  -42.8458 H         1 UNK         0.3000 
    175 H175       -0.1769  -12.1550  -44.1587 H         1 UNK         0.0600 
    176 H176       -1.1604   -9.9814  -42.2329 H         1 UNK         0.0600 
    177 H177       -1.3568   -9.9506  -43.9850 H         1 UNK         0.0600 
    178 H178       -2.1436  -11.1986  -43.0322 H         1 UNK         0.0600 
    179 H179        1.6839  -11.0129  -44.4455 H         1 UNK         0.3000 
    180 H180        3.2803   -8.3049  -43.1083 H         1 UNK         0.0600 
    181 H181        4.1968   -9.8352  -41.3675 H         1 UNK         0.0600 
    182 H182        5.3187   -9.6828  -42.7102 H         1 UNK         0.0600 
    183 H183        4.3291  -11.1332  -42.5475 H         1 UNK         0.0600 
    184 H184        3.8464  -10.6092  -44.8806 H         1 UNK         0.3000 
    185 H185        2.7870   -8.9443  -47.8031 H         1 UNK         0.0600 
    186 H186        5.0547   -7.9373  -47.5263 H         1 UNK         0.0600 
    187 H187        5.6791   -9.4685  -46.9252 H         1 UNK         0.0600 
    188 H188        5.1095   -9.3339  -48.5896 H         1 UNK         0.0600 
    189 H189        4.1985  -11.4055  -47.3017 H         1 UNK         0.3000 
    190 H190       -1.3184  -20.8069  -46.9491 H         1 UNK         0.3000 
    191 H191       -2.9137  -21.6181  -49.1119 H         1 UNK         0.0600 
    192 H192       -3.8678  -20.7935  -46.3187 H         1 UNK         0.0600 
    193 H193       -4.7729  -20.6813  -47.8229 H         1 UNK         0.0600 
    194 H194       -3.3598  -19.6669  -47.5679 H         1 UNK         0.0600 
    195 H195       -2.6575  -23.0574  -45.8289 H         1 UNK         0.3000 
    196 H196       -4.5636  -25.1205  -46.1883 H         1 UNK         0.0600 
    197 H197       -3.4466  -26.1438  -44.2040 H         1 UNK         0.0600 
    198 H198       -3.7244  -24.4248  -43.9668 H         1 UNK         0.0600 
    199 H199       -2.1096  -25.0108  -44.3562 H         1 UNK         0.0600 
    200 H200       -1.0028  -25.1272  -46.7387 H         1 UNK         0.3000 
    201 H201       -0.7819  -27.8281  -47.5821 H         1 UNK         0.0600 
    202 H202        1.1566  -26.4686  -46.8576 H         1 UNK         0.0600 
    203 H203        0.9652  -25.3979  -48.2437 H         1 UNK         0.0600 
    204 H204        1.4268  -27.0789  -48.4832 H         1 UNK         0.0600 
    205 H205       -1.4278  -24.8407  -49.4244 H         1 UNK         0.3000 
    206 H206       -1.5447  -26.0997  -52.0234 H         1 UNK         0.0600 
    207 H207       -2.4161  -23.8439  -52.6853 H         1 UNK         0.0600 
    208 H208       -2.5580  -23.3901  -50.9956 H         1 UNK         0.0600 
    209 H209       -0.9721  -23.7001  -51.6988 H         1 UNK         0.0600 
    210 H210       -3.6977  -26.1987  -49.4119 H         1 UNK         0.3000 
    211 H211       -5.8304  -26.6082  -49.0126 H         1 UNK         0.0600 
    212 H212       -5.9097  -27.9413  -51.7752 H         1 UNK         0.0600 
    213 H213       -7.0367  -28.2161  -50.4532 H         1 UNK         0.0600 
    214 H214       -5.3613  -28.7161  -50.2894 H         1 UNK         0.0600 
    215 H215       -5.2079  -24.1041  -49.9416 H         1 UNK         0.3000 
    216 H216       -5.7999  -22.1695  -50.7137 H         1 UNK         0.0600 
    217 H217       -8.2093  -21.5470  -50.9425 H         1 UNK         0.0600 
    218 H218       -7.9076  -22.4420  -49.4605 H         1 UNK         0.0600 
    219 H219       -8.6699  -23.2373  -50.8367 H         1 UNK         0.0600 
    220 H220       -7.2787  -24.6920  -52.7085 H         1 UNK         0.3000 
    221 H221       -7.8155  -23.1954  -55.0002 H         1 UNK         0.0600 
    222 H222       -7.2976  -26.2000  -54.7032 H         1 UNK         0.0600 
    223 H223       -8.8465  -25.3819  -54.5063 H         1 UNK         0.0600 
    224 H224       -8.0797  -25.4405  -56.0859 H         1 UNK         0.0600 
    225 H225       -4.8048  -25.0633  -54.2702 H         1 UNK         0.3000 
    226 H226       -3.8157  -24.8798  -56.9524 H         1 UNK         0.0600 
    227 H227       -3.1690  -26.6751  -55.3251 H         1 UNK         0.0600 
    228 H228       -1.7753  -25.8746  -56.0353 H         1 UNK         0.0600 
    229 H229       -2.2571  -25.4889  -54.3929 H         1 UNK         0.0600 
    230 H230       -3.6267  -22.6757  -54.2600 H         1 UNK         0.3000 
    231 H231       -1.5855  -20.9632  -55.6237 H         1 UNK         0.0600 
    232 H232       -2.5291  -21.1204  -52.7234 H         1 UNK         0.0600 
    233 H233       -0.9523  -21.5825  -53.3513 H         1 UNK         0.0600 
    234 H234       -1.4275  -19.8926  -53.3410 H         1 UNK         0.0600 
    235 H235       -4.8878  -21.3294  -55.4063 H         1 UNK         0.3000 
    236 H236       -6.6994  -20.1554  -55.8036 H         1 UNK         0.0600 
    237 H237       -4.8640  -18.0976  -57.1417 H         1 UNK         0.0600 
    238 H238       -5.5058  -19.5501  -57.9079 H         1 UNK         0.0600 
    239 H239       -6.5948  -18.2708  -57.3973 H         1 UNK         0.0600 
    240 H240       -5.9854  -19.9978  -53.2504 H         1 UNK         0.3000 
    241 H241       -5.8156  -17.3039  -52.2381 H         1 UNK         0.0600 
    242 H242       -9.7918  -17.9660  -52.5366 H         1 UNK         0.3800 
    243 H243       -8.6386  -18.9648  -53.3822 H         1 UNK         0.3800 
    244 H244       -5.9780  -18.3072  -49.9936 H         1 UNK         0.0800 
    245 H245       -6.4889  -19.8277  -50.6686 H         1 UNK         0.0800 
    246 H246       -3.5410  -18.0414  -49.1682 H         1 UNK         0.0800 
    247 H247       -3.6218  -17.1783  -50.6846 H         1 UNK         0.0800 
@<TRIPOS>BOND
     1    1    2 1    
     2    1  127 1    
     3    1  128 1    
     4    1  129 1    
     5    2    3 2    
     6    2    4 am   BACKBONE|DICT|INTERRES
     7    4    5 1    
     8    4  130 1    
     9    5    6 1    
    10    5   65 1    
    11    5  131 1    
    12    6    7 1    
    13    6  132 1    
    14    6  133 1    
    15    7    8 1    
    16    8    9 1    
    17    8  134 1    
    18    8  135 1    
    19    9   10 ar   
    20    9   14 ar   
    21   10   11 ar   
    22   10  136 1    
    23   11   12 ar   
    24   11  126 1    
    25   12   13 ar   
    26   12  137 1    
    27   13   14 ar   
    28   13   15 1    
    29   14  138 1    
    30   15   16 1    
    31   15  139 1    
    32   15  140 1    
    33   16   17 1    
    34   17   18 1    
    35   17  141 1    
    36   17  142 1    
    37   18   19 1    
    38   18   67 1    
    39   18  143 1    
    40   19   20 am   BACKBONE|DICT|INTERRES
    41   19  144 1    
    42   20   21 2    
    43   20   22 1    
    44   22   23 1    
    45   22   24 1    
    46   22  145 1    
    47   23  146 1    
    48   23  147 1    
    49   23  148 1    
    50   24   25 am   BACKBONE|DICT|INTERRES
    51   24  149 1    
    52   25   26 2    
    53   25   27 1    
    54   27   28 1    
    55   27   29 1    
    56   27  150 1    
    57   28  151 1    
    58   28  152 1    
    59   28  153 1    
    60   29   30 am   BACKBONE|DICT|INTERRES
    61   29  154 1    
    62   30   31 2    
    63   30   32 1    
    64   32   33 1    
    65   32   34 1    
    66   32  155 1    
    67   33  156 1    
    68   33  157 1    
    69   33  158 1    
    70   34   35 am   BACKBONE|DICT|INTERRES
    71   34  159 1    
    72   35   36 2    
    73   35   37 1    
    74   37   38 1    
    75   37   39 1    
    76   37  160 1    
    77   38  161 1    
    78   38  162 1    
    79   38  163 1    
    80   39   40 am   BACKBONE|DICT|INTERRES
    81   39  164 1    
    82   40   41 2    
    83   40   42 1    
    84   42   43 1    
    85   42   44 1    
    86   42  165 1    
    87   43  166 1    
    88   43  167 1    
    89   43  168 1    
    90   44   45 am   BACKBONE|DICT|INTERRES
    91   44  169 1    
    92   45   46 2    
    93   45   47 1    
    94   47   48 1    
    95   47   49 1    
    96   47  170 1    
    97   48  171 1    
    98   48  172 1    
    99   48  173 1    
   100   49   50 am   BACKBONE|DICT|INTERRES
   101   49  174 1    
   102   50   51 2    
   103   50   52 1    
   104   52   53 1    
   105   52   54 1    
   106   52  175 1    
   107   53  176 1    
   108   53  177 1    
   109   53  178 1    
   110   54   55 am   BACKBONE|DICT|INTERRES
   111   54  179 1    
   112   55   56 2    
   113   55   57 1    
   114   57   58 1    
   115   57   59 1    
   116   57  180 1    
   117   58  181 1    
   118   58  182 1    
   119   58  183 1    
   120   59   60 am   BACKBONE|DICT|INTERRES
   121   59  184 1    
   122   60   61 2    
   123   60   62 1    
   124   62   63 1    
   125   62   64 1    
   126   62  185 1    
   127   63  186 1    
   128   63  187 1    
   129   63  188 1    
   130   64   65 am   BACKBONE|DICT|INTERRES
   131   64  189 1    
   132   65   66 2    
   133   67   68 2    
   134   67   69 am   BACKBONE|DICT|INTERRES
   135   69   70 1    
   136   69  190 1    
   137   70   71 1    
   138   70   72 1    
   139   70  191 1    
   140   71  192 1    
   141   71  193 1    
   142   71  194 1    
   143   72   73 2    
   144   72   74 am   BACKBONE|DICT|INTERRES
   145   74   75 1    
   146   74  195 1    
   147   75   76 1    
   148   75   77 1    
   149   75  196 1    
   150   76  197 1    
   151   76  198 1    
   152   76  199 1    
   153   77   78 2    
   154   77   79 am   BACKBONE|DICT|INTERRES
   155   79   80 1    
   156   79  200 1    
   157   80   81 1    
   158   80   82 1    
   159   80  201 1    
   160   81  202 1    
   161   81  203 1    
   162   81  204 1    
   163   82   83 2    
   164   82   84 am   BACKBONE|DICT|INTERRES
   165   84   85 1    
   166   84  205 1    
   167   85   86 1    
   168   85   87 1    
   169   85  206 1    
   170   86  207 1    
   171   86  208 1    
   172   86  209 1    
   173   87   88 2    
   174   87   89 am   BACKBONE|DICT|INTERRES
   175   89   90 1    
   176   89  210 1    
   177   90   91 1    
   178   90   92 1    
   179   90  211 1    
   180   91  212 1    
   181   91  213 1    
   182   91  214 1    
   183   92   93 2    
   184   92   94 am   BACKBONE|DICT|INTERRES
   185   94   95 1    
   186   94  215 1    
   187   95   96 1    
   188   95   97 1    
   189   95  216 1    
   190   96  217 1    
   191   96  218 1    
   192   96  219 1    
   193   97   98 2    
   194   97   99 am   BACKBONE|DICT|INTERRES
   195   99  100 1    
   196   99  220 1    
   197  100  101 1    
   198  100  102 1    
   199  100  221 1    
   200  101  222 1    
   201  101  223 1    
   202  101  224 1    
   203  102  103 2    
   204  102  104 am   BACKBONE|DICT|INTERRES
   205  104  105 1    
   206  104  225 1    
   207  105  106 1    
   208  105  107 1    
   209  105  226 1    
   210  106  227 1    
   211  106  228 1    
   212  106  229 1    
   213  107  108 2    
   214  107  109 am   BACKBONE|DICT|INTERRES
   215  109  110 1    
   216  109  230 1    
   217  110  111 1    
   218  110  112 1    
   219  110  231 1    
   220  111  232 1    
   221  111  233 1    
   222  111  234 1    
   223  112  113 2    
   224  112  114 am   BACKBONE|DICT|INTERRES
   225  114  115 1    
   226  114  235 1    
   227  115  116 1    
   228  115  117 1    
   229  115  236 1    
   230  116  237 1    
   231  116  238 1    
   232  116  239 1    
   233  117  118 2    
   234  117  119 am   BACKBONE|DICT|INTERRES
   235  119  120 1    
   236  119  240 1    
   237  120  121 1    
   238  120  124 1    
   239  120  241 1    
   240  121  122 am   BACKBONE|DICT|INTERRES
   241  121  123 2    
   242  122  242 1    
   243  122  243 1    
   244  124  125 1    
   245  124  244 1    
   246  124  245 1    
   247  125  126 1    
   248  126  246 1    
   249  126  247 1    
@<TRIPOS>SUBSTRUCTURE
     1 UNK         1 GROUP             0       ****    0 ROOT    
