@<TRIPOS>MOLECULE
3R540
247   249    1
SMALL
USER_CHARGES


@<TRIPOS>ATOM
      1 CA         -1.0927  -11.4265  -47.1540 C.3       0 UNK        -0.1800 
      2 C          -0.9178  -12.9289  -47.3217 C.2       0 UNK         0.5000 
      3 O          -0.8776  -13.6591  -46.3304 O.2       0 UNK        -0.5000 
      4 N          -0.8246  -13.3887  -48.5776 N.am      1 UNK        -0.5000 
      5 CA         -0.6190  -14.7910  -48.9631 C.3       1 UNK         0.1400 
      6 C6         -0.4196  -14.9285  -50.4927 C.3       23 UNK        -0.0398 
      7 S7          0.4101  -16.4828  -50.9674 S.3       23 UNK        -0.2404 
      8 C8          2.1194  -15.9190  -51.1992 C.3       23 UNK        -0.0205 
      9 C9          2.9947  -17.0630  -51.6782 C.ar      23 UNK        -0.0193 
     10 C10         3.1240  -17.3194  -53.0465 C.ar      23 UNK        -0.1150 
     11 C11         3.9175  -18.3771  -53.4977 C.ar      23 UNK        -0.0193 
     12 C12         4.5939  -19.1714  -52.5675 C.ar      23 UNK        -0.1150 
     13 C13         4.4735  -18.9236  -51.1973 C.ar      23 UNK        -0.0193 
     14 C14         3.6698  -17.8690  -50.7564 C.ar      23 UNK        -0.1150 
     15 C15         5.2269  -19.7928  -50.2043 C.3       23 UNK        -0.0205 
     16 S16         4.3327  -21.3380  -49.8628 S.3       23 UNK        -0.2404 
     17 C17         3.2686  -20.8419  -48.4679 C.3       23 UNK        -0.0398 
     18 CA          2.5353  -22.0621  -47.8515 C.3       11 UNK         0.1400 
     19 N           2.4220  -21.9624  -46.3951 N.am      11 UNK        -0.5000 
     20 C           2.2701  -23.0120  -45.5753 C.2       10 UNK         0.5000 
     21 O           2.2315  -24.1812  -45.9593 O.2       10 UNK        -0.5000 
     22 CA          2.1258  -22.7094  -44.0713 C.3       10 UNK         0.1400 
     23 CB          3.5055  -22.6328  -43.4004 C.3       10 UNK        -0.1800 
     24 N           1.3864  -21.4765  -43.8017 N.am      10 UNK        -0.5000 
     25 C           0.0980  -21.2839  -44.1145 C.2       9 UNK         0.5000 
     26 O          -0.6180  -22.1466  -44.6192 O.2       9 UNK        -0.5000 
     27 CA         -0.4728  -19.8773  -43.8730 C.3       9 UNK         0.1400 
     28 CB         -0.8814  -19.7050  -42.4022 C.3       9 UNK        -0.1800 
     29 N           0.4561  -18.8119  -44.2515 N.am      9 UNK        -0.5000 
     30 C           0.9519  -18.6185  -45.4823 C.2       8 UNK         0.5000 
     31 O           0.6815  -19.3262  -46.4507 O.2       8 UNK        -0.5000 
     32 CA          1.9765  -17.4840  -45.6381 C.3       8 UNK         0.1400 
     33 CB          1.2884  -16.1123  -45.6690 C.3       8 UNK        -0.1800 
     34 N           2.9702  -17.5110  -44.5676 N.am      8 UNK        -0.5000 
     35 C           3.9041  -18.4615  -44.4256 C.2       7 UNK         0.5000 
     36 O           4.0703  -19.3844  -45.2233 O.2       7 UNK        -0.5000 
     37 CA          4.7690  -18.3841  -43.1542 C.3       7 UNK         0.1400 
     38 CB          5.9576  -17.4344  -43.3640 C.3       7 UNK        -0.1800 
     39 N           4.0039  -17.9534  -41.9812 N.am      7 UNK        -0.5000 
     40 C           3.0359  -18.6804  -41.4054 C.2       6 UNK         0.5000 
     41 O           2.7036  -19.8010  -41.7903 O.2       6 UNK        -0.5000 
     42 CA          2.2826  -18.0262  -40.2320 C.3       6 UNK         0.1400 
     43 CB          3.0486  -18.2318  -38.9167 C.3       6 UNK        -0.1800 
     44 N           2.0193  -16.5961  -40.4253 N.am      6 UNK        -0.5000 
     45 C           1.2715  -16.0895  -41.4136 C.2       5 UNK         0.5000 
     46 O           0.7673  -16.7735  -42.3083 O.2       5 UNK        -0.5000 
     47 CA          1.0820  -14.5670  -41.4283 C.3       5 UNK         0.1400 
     48 CB          2.3089  -13.8715  -42.0404 C.3       5 UNK        -0.1800 
     49 N          -0.0914  -14.2627  -42.2378 N.am      5 UNK        -0.5000 
     50 C          -1.0385  -13.3610  -41.9606 C.2       4 UNK         0.5000 
     51 O          -0.9918  -12.5959  -40.9963 O.2       4 UNK        -0.5000 
     52 CA         -2.2465  -13.3007  -42.9197 C.3       4 UNK         0.1400 
     53 CB         -2.1741  -12.0393  -43.7907 C.3       4 UNK        -0.1800 
     54 N          -2.3582  -14.4900  -43.7767 N.am      4 UNK        -0.5000 
     55 C          -2.8623  -15.6570  -43.3454 C.2       3 UNK         0.5000 
     56 O          -3.3213  -15.8075  -42.2114 O.2       3 UNK        -0.5000 
     57 CA         -2.8191  -16.8590  -44.3136 C.3       3 UNK         0.1400 
     58 CB         -3.7587  -18.0080  -43.8871 C.3       3 UNK        -0.1800 
     59 N          -3.0440  -16.5282  -45.7218 N.am      3 UNK        -0.5000 
     60 C          -4.1307  -15.9748  -46.2758 C.2       2 UNK         0.5000 
     61 O          -5.0880  -15.5448  -45.6307 O.2       2 UNK        -0.5000 
     62 CA         -4.1411  -15.9148  -47.8206 C.3       2 UNK         0.1400 
     63 CB         -5.4136  -15.2632  -48.3895 C.3       2 UNK        -0.1800 
     64 N          -2.9708  -15.2233  -48.3653 N.am      2 UNK        -0.5000 
     65 C          -1.7310  -15.7286  -48.4393 C.2       1 UNK         0.5000 
     66 O          -1.4435  -16.8637  -48.0606 O.2       1 UNK        -0.5000 
     67 C           1.1643  -22.3047  -48.5166 C.2       11 UNK         0.5000 
     68 O           1.0709  -23.1256  -49.4308 O.2       11 UNK        -0.5000 
     69 N           0.1296  -21.5892  -48.0535 N.am      12 UNK        -0.5000 
     70 CA         -1.2465  -21.6979  -48.5432 C.3       12 UNK         0.1400 
     71 CB         -2.0542  -20.4918  -48.0402 C.3       12 UNK        -0.1800 
     72 C          -1.9324  -23.0135  -48.1280 C.2       12 UNK         0.5000 
     73 O          -2.7491  -23.5319  -48.8895 O.2       12 UNK        -0.5000 
     74 N          -1.5772  -23.5214  -46.9383 N.am      13 UNK        -0.5000 
     75 CA         -2.1101  -24.7119  -46.2732 C.3       13 UNK         0.1400 
     76 CB         -1.8013  -25.9856  -47.0921 C.3       13 UNK        -0.1800 
     77 C          -3.5992  -24.5546  -45.8917 C.2       13 UNK         0.5000 
     78 O          -4.0716  -23.4306  -45.6990 O.2       13 UNK        -0.5000 
     79 N          -4.3074  -25.6829  -45.7438 N.am      14 UNK        -0.5000 
     80 CA         -5.7451  -25.7355  -45.4741 C.3       14 UNK         0.1400 
     81 CB         -6.1470  -27.1862  -45.1667 C.3       14 UNK        -0.1800 
     82 C          -6.5557  -25.1844  -46.6619 C.2       14 UNK         0.5000 
     83 O          -6.1931  -25.4474  -47.8107 O.2       14 UNK        -0.5000 
     84 N          -7.6310  -24.4445  -46.3511 N.am      15 UNK        -0.5000 
     85 CA         -8.4509  -23.6503  -47.2741 C.3       15 UNK         0.1400 
     86 CB         -9.1810  -24.5417  -48.3015 C.3       15 UNK        -0.1800 
     87 C          -7.6010  -22.5419  -47.9256 C.2       15 UNK         0.5000 
     88 O          -7.2530  -22.6308  -49.1033 O.2       15 UNK        -0.5000 
     89 N          -7.2591  -21.5275  -47.1165 N.am      16 UNK        -0.5000 
     90 CA         -6.3051  -20.4480  -47.4080 C.3       16 UNK         0.1400 
     91 CB         -6.2334  -19.5049  -46.1980 C.3       16 UNK        -0.1800 
     92 C          -6.5530  -19.6404  -48.6991 C.2       16 UNK         0.5000 
     93 O          -5.6200  -19.0131  -49.1965 O.2       16 UNK        -0.5000 
     94 N          -7.7706  -19.7056  -49.2564 N.am      17 UNK        -0.5000 
     95 CA         -8.1223  -19.1997  -50.5879 C.3       17 UNK         0.1400 
     96 CB         -9.6266  -19.4085  -50.8166 C.3       17 UNK        -0.1800 
     97 C          -7.3074  -19.8398  -51.7358 C.2       17 UNK         0.5000 
     98 O          -7.1691  -19.2250  -52.7943 O.2       17 UNK        -0.5000 
     99 N          -6.7384  -21.0322  -51.4953 N.am      18 UNK        -0.5000 
    100 CA        -5.7978  -21.7296  -52.3760 C.3       18 UNK         0.1400 
    101 CB        -5.5180  -23.1272  -51.8033 C.3       18 UNK        -0.1800 
    102 C         -4.4719  -20.9765  -52.6167 C.2       18 UNK         0.5000 
    103 O         -3.7671  -21.3130  -53.5675 O.2       18 UNK        -0.5000 
    104 N         -4.1738  -19.9512  -51.8007 N.am      19 UNK        -0.5000 
    105 CA        -3.0204  -19.0504  -51.9077 C.3       19 UNK         0.1400 
    106 CB        -3.1507  -17.9636  -50.8358 C.3       19 UNK        -0.1800 
    107 C         -2.8343  -18.3854  -53.2859 C.2       19 UNK         0.5000 
    108 O         -1.7060  -18.0539  -53.6486 O.2       19 UNK        -0.5000 
    109 N         -3.9249  -18.2480  -54.0542 N.am      20 UNK        -0.5000 
    110 CA        -3.9237  -17.8083  -55.4522 C.3       20 UNK         0.1400 
    111 CB        -5.3784  -17.6942  -55.9321 C.3       20 UNK        -0.1800 
    112 C         -3.1132  -18.7246  -56.3973 C.2       20 UNK         0.5000 
    113 O         -2.6684  -18.2608  -57.4477 O.2       20 UNK        -0.5000 
    114 N         -2.9193  -19.9899  -56.0019 N.am      21 UNK        -0.5000 
    115 CA        -2.0916  -20.9861  -56.6790 C.3       21 UNK         0.1400 
    116 CB        -2.9492  -22.2395  -56.9307 C.3       21 UNK        -0.1800 
    117 C         -0.8196  -21.3131  -55.8652 C.2       21 UNK         0.5000 
    118 O         -0.2228  -22.3681  -56.0880 O.2       21 UNK        -0.5000 
    119 N         -0.4216  -20.4113  -54.9539 N.am      22 UNK        -0.5000 
    120 CA         0.7142  -20.5273  -54.0195 C.3       22 UNK         0.1400 
    121 C          0.4905  -21.5704  -52.8824 C.2       22 UNK         0.5000 
    122 N          1.4217  -21.6841  -51.9452 N.am      22 UNK        -0.7600 
    123 O         -0.5268  -22.2539  -52.8052 O.2       22 UNK        -0.5000 
    124 C124        2.0842  -20.6990  -54.7420 C.3       23 UNK        -0.0398 
    125 S125        2.5018  -19.2344  -55.7516 S.3       23 UNK        -0.2404 
    126 C126        4.0553  -18.6592  -54.9883 C.3       23 UNK        -0.0205 
    127 H127       -0.3345  -11.0338  -46.4767 H         1 UNK         0.0600 
    128 H128       -2.0748  -11.2069  -46.7362 H         1 UNK         0.0600 
    129 H129       -1.0024  -10.8991  -48.1039 H         1 UNK         0.0600 
    130 H130       -0.8747  -12.7277  -49.3398 H         1 UNK         0.3000 
    131 H131        0.3118  -15.0969  -48.4827 H         1 UNK         0.0600 
    132 H132        0.1785  -14.0976  -50.8693 H         1 UNK         0.0800 
    133 H133       -1.3732  -14.8633  -51.0198 H         1 UNK         0.0800 
    134 H134        2.1437  -15.1042  -51.9245 H         1 UNK         0.0800 
    135 H135        2.5020  -15.5150  -50.2607 H         1 UNK         0.0800 
    136 H136        2.5965  -16.7037  -53.7617 H         1 UNK         0.1150 
    137 H137        5.2150  -19.9885  -52.9076 H         1 UNK         0.1150 
    138 H138        3.5682  -17.6755  -49.6977 H         1 UNK         0.1150 
    139 H139        6.2077  -20.0405  -50.6131 H         1 UNK         0.0800 
    140 H140        5.4163  -19.2499  -49.2770 H         1 UNK         0.0800 
    141 H141        2.5774  -20.0574  -48.7835 H         1 UNK         0.0800 
    142 H142        3.9192  -20.3819  -47.7231 H         1 UNK         0.0800 
    143 H143        3.1392  -22.9511  -48.0486 H         1 UNK         0.0600 
    144 H144        2.4440  -21.0323  -45.9978 H         1 UNK         0.3000 
    145 H145        1.5730  -23.5357  -43.6196 H         1 UNK         0.0600 
    146 H146        3.4123  -22.5069  -42.3216 H         1 UNK         0.0600 
    147 H147        4.0763  -23.5461  -43.5730 H         1 UNK         0.0600 
    148 H148        4.0937  -21.7989  -43.7846 H         1 UNK         0.0600 
    149 H149        1.8911  -20.7361  -43.3232 H         1 UNK         0.3000 
    150 H150       -1.3630  -19.7713  -44.4951 H         1 UNK         0.0600 
    151 H151       -1.6641  -20.4144  -42.1312 H         1 UNK         0.0600 
    152 H152       -1.2647  -18.7040  -42.2068 H         1 UNK         0.0600 
    153 H153       -0.0409  -19.8722  -41.7290 H         1 UNK         0.0600 
    154 H154        0.7212  -18.1630  -43.5141 H         1 UNK         0.3000 
    155 H155        2.4896  -17.6277  -46.5916 H         1 UNK         0.0600 
    156 H156        1.9946  -15.3189  -45.9133 H         1 UNK         0.0600 
    157 H157        0.8190  -15.8612  -44.7197 H         1 UNK         0.0600 
    158 H158        0.5051  -16.0946  -46.4229 H         1 UNK         0.0600 
    159 H159        2.8739  -16.8187  -43.8406 H         1 UNK         0.3000 
    160 H160        5.1607  -19.3845  -42.9577 H         1 UNK         0.0600 
    161 H161        5.6299  -16.4093  -43.5414 H         1 UNK         0.0600 
    162 H162        6.5549  -17.7417  -44.2235 H         1 UNK         0.0600 
    163 H163        6.6172  -17.4310  -42.4961 H         1 UNK         0.0600 
    164 H164        4.2153  -17.0422  -41.6023 H         1 UNK         0.3000 
    165 H165        1.3177  -18.5293  -40.1426 H         1 UNK         0.0600 
    166 H166        2.4776  -17.8605  -38.0655 H         1 UNK         0.0600 
    167 H167        3.2419  -19.2906  -38.7391 H         1 UNK         0.0600 
    168 H168        4.0112  -17.7192  -38.9255 H         1 UNK         0.0600 
    169 H169        2.4096  -15.9704  -39.7352 H         1 UNK         0.3000 
    170 H170        0.9354  -14.2268  -40.4011 H         1 UNK         0.0600 
    171 H171        3.2094  -14.0760  -41.4604 H         1 UNK         0.0600 
    172 H172        2.4916  -14.2036  -43.0634 H         1 UNK         0.0600 
    173 H173        2.1757  -12.7897  -42.0609 H         1 UNK         0.0600 
    174 H174       -0.2455  -14.9002  -43.0065 H         1 UNK         0.3000 
    175 H175       -3.1484  -13.2255  -42.3083 H         1 UNK         0.0600 
    176 H176       -1.2221  -11.9730  -44.3162 H         1 UNK         0.0600 
    177 H177       -2.9768  -12.0172  -44.5278 H         1 UNK         0.0600 
    178 H178       -2.2674  -11.1409  -43.1796 H         1 UNK         0.0600 
    179 H179       -1.9833  -14.4118  -44.7173 H         1 UNK         0.3000 
    180 H180       -1.7973  -17.2316  -44.2588 H         1 UNK         0.0600 
    181 H181       -3.6522  -18.8693  -44.5462 H         1 UNK         0.0600 
    182 H182       -4.8046  -17.7005  -43.9050 H         1 UNK         0.0600 
    183 H183       -3.5402  -18.3489  -42.8751 H         1 UNK         0.0600 
    184 H184       -2.3095  -16.8096  -46.3669 H         1 UNK         0.3000 
    185 H185       -4.1240  -16.9489  -48.1694 H         1 UNK         0.0600 
    186 H186       -6.3065  -15.7895  -48.0494 H         1 UNK         0.0600 
    187 H187       -5.5053  -14.2208  -48.0824 H         1 UNK         0.0600 
    188 H188       -5.4182  -15.2966  -49.4791 H         1 UNK         0.0600 
    189 H189       -3.1087  -14.2626  -48.6421 H         1 UNK         0.3000 
    190 H190        0.3020  -20.8799  -47.3435 H         1 UNK         0.3000 
    191 H191       -1.2228  -21.6606  -49.6348 H         1 UNK         0.0600 
    192 H192       -3.0644  -20.5000  -48.4506 H         1 UNK         0.0600 
    193 H193       -1.5862  -19.5550  -48.3417 H         1 UNK         0.0600 
    194 H194       -2.1375  -20.4870  -46.9526 H         1 UNK         0.0600 
    195 H195       -0.9748  -22.9555  -46.3481 H         1 UNK         0.3000 
    196 H196       -1.5653  -24.7872  -45.3312 H         1 UNK         0.0600 
    197 H197       -2.4179  -26.0515  -47.9893 H         1 UNK         0.0600 
    198 H198       -0.7570  -26.0051  -47.4046 H         1 UNK         0.0600 
    199 H199       -1.9725  -26.8881  -46.5048 H         1 UNK         0.0600 
    200 H200       -3.8579  -26.5638  -45.9437 H         1 UNK         0.3000 
    201 H201       -5.9457  -25.1245  -44.5914 H         1 UNK         0.0600 
    202 H202       -5.9500  -27.8463  -46.0125 H         1 UNK         0.0600 
    203 H203       -7.2112  -27.2559  -44.9376 H         1 UNK         0.0600 
    204 H204       -5.6037  -27.5729  -44.3043 H         1 UNK         0.0600 
    205 H205       -7.8418  -24.3112  -45.3718 H         1 UNK         0.3000 
    206 H206       -9.2166  -23.1584  -46.6721 H         1 UNK         0.0600 
    207 H207       -9.7790  -25.3056  -47.8047 H         1 UNK         0.0600 
    208 H208       -9.8576  -23.9461  -48.9152 H         1 UNK         0.0600 
    209 H209       -8.4917  -25.0452  -48.9796 H         1 UNK         0.0600 
    210 H210       -7.6015  -21.5513  -46.1671 H         1 UNK         0.3000 
    211 H211       -5.3282  -20.9217  -47.5226 H         1 UNK         0.0600 
    212 H212       -5.5077  -18.7085  -46.3660 H         1 UNK         0.0600 
    213 H213       -5.9232  -20.0378  -45.2989 H         1 UNK         0.0600 
    214 H214       -7.1963  -19.0340  -45.9972 H         1 UNK         0.0600 
    215 H215       -8.4733  -20.2551  -48.7849 H         1 UNK         0.3000 
    216 H216       -7.9154  -18.1277  -50.6007 H         1 UNK         0.0600 
    217 H217       -9.8937  -20.4657  -50.7879 H         1 UNK         0.0600 
    218 H218       -9.9322  -19.0185  -51.7884 H         1 UNK         0.0600 
    219 H219      -10.2169  -18.8910  -50.0602 H         1 UNK         0.0600 
    220 H220       -6.9246  -21.4870  -50.6044 H         1 UNK         0.3000 
    221 H221       -6.2816  -21.8484  -53.3474 H         1 UNK         0.0600 
    222 H222       -4.8561  -23.6953  -52.4581 H         1 UNK         0.0600 
    223 H223       -6.4380  -23.7016  -51.6931 H         1 UNK         0.0600 
    224 H224       -5.0403  -23.0701  -50.8239 H         1 UNK         0.0600 
    225 H225       -4.8113  -19.7494  -51.0390 H         1 UNK         0.3000 
    226 H226       -2.1223  -19.6372  -51.7047 H         1 UNK         0.0600 
    227 H227       -3.0863  -18.3878  -49.8356 H         1 UNK         0.0600 
    228 H228       -2.3547  -17.2279  -50.9248 H         1 UNK         0.0600 
    229 H229       -4.0970  -17.4273  -50.9155 H         1 UNK         0.0600 
    230 H230       -4.8139  -18.5480  -53.6771 H         1 UNK         0.3000 
    231 H231       -3.4686  -16.8166  -55.4885 H         1 UNK         0.0600 
    232 H232       -5.8918  -18.6557  -55.8870 H         1 UNK         0.0600 
    233 H233       -5.4246  -17.3439  -56.9641 H         1 UNK         0.0600 
    234 H234       -5.9407  -16.9856  -55.3236 H         1 UNK         0.0600 
    235 H235       -3.3040  -20.2934  -55.1099 H         1 UNK         0.3000 
    236 H236       -1.7557  -20.6079  -57.6463 H         1 UNK         0.0600 
    237 H237       -3.8462  -21.9952  -57.4998 H         1 UNK         0.0600 
    238 H238       -2.3983  -22.9872  -57.5024 H         1 UNK         0.0600 
    239 H239       -3.2620  -22.7041  -55.9947 H         1 UNK         0.0600 
    240 H240       -0.9882  -19.5819  -54.8209 H         1 UNK         0.3000 
    241 H241        0.7376  -19.5685  -53.4991 H         1 UNK         0.0600 
    242 H242        1.2669  -22.3401  -51.1856 H         1 UNK         0.3800 
    243 H243        2.2567  -21.1205  -51.9456 H         1 UNK         0.3800 
    244 H244        2.0862  -21.5785  -55.3851 H         1 UNK         0.0800 
    245 H245        2.8876  -20.8746  -54.0281 H         1 UNK         0.0800 
    246 H246        4.8334  -19.4020  -55.1713 H         1 UNK         0.0800 
    247 H247        4.3797  -17.7488  -55.4939 H         1 UNK         0.0800 
@<TRIPOS>BOND
     1    1    2 1    
     2    1  127 1    
     3    1  128 1    
     4    1  129 1    
     5    2    3 2    
     6    2    4 am   BACKBONE|DICT|INTERRES
     7    4    5 1    
     8    4  130 1    
     9    5    6 1    
    10    5   65 1    
    11    5  131 1    
    12    6    7 1    
    13    6  132 1    
    14    6  133 1    
    15    7    8 1    
    16    8    9 1    
    17    8  134 1    
    18    8  135 1    
    19    9   10 ar   
    20    9   14 ar   
    21   10   11 ar   
    22   10  136 1    
    23   11   12 ar   
    24   11  126 1    
    25   12   13 ar   
    26   12  137 1    
    27   13   14 ar   
    28   13   15 1    
    29   14  138 1    
    30   15   16 1    
    31   15  139 1    
    32   15  140 1    
    33   16   17 1    
    34   17   18 1    
    35   17  141 1    
    36   17  142 1    
    37   18   19 1    
    38   18   67 1    
    39   18  143 1    
    40   19   20 am   BACKBONE|DICT|INTERRES
    41   19  144 1    
    42   20   21 2    
    43   20   22 1    
    44   22   23 1    
    45   22   24 1    
    46   22  145 1    
    47   23  146 1    
    48   23  147 1    
    49   23  148 1    
    50   24   25 am   BACKBONE|DICT|INTERRES
    51   24  149 1    
    52   25   26 2    
    53   25   27 1    
    54   27   28 1    
    55   27   29 1    
    56   27  150 1    
    57   28  151 1    
    58   28  152 1    
    59   28  153 1    
    60   29   30 am   BACKBONE|DICT|INTERRES
    61   29  154 1    
    62   30   31 2    
    63   30   32 1    
    64   32   33 1    
    65   32   34 1    
    66   32  155 1    
    67   33  156 1    
    68   33  157 1    
    69   33  158 1    
    70   34   35 am   BACKBONE|DICT|INTERRES
    71   34  159 1    
    72   35   36 2    
    73   35   37 1    
    74   37   38 1    
    75   37   39 1    
    76   37  160 1    
    77   38  161 1    
    78   38  162 1    
    79   38  163 1    
    80   39   40 am   BACKBONE|DICT|INTERRES
    81   39  164 1    
    82   40   41 2    
    83   40   42 1    
    84   42   43 1    
    85   42   44 1    
    86   42  165 1    
    87   43  166 1    
    88   43  167 1    
    89   43  168 1    
    90   44   45 am   BACKBONE|DICT|INTERRES
    91   44  169 1    
    92   45   46 2    
    93   45   47 1    
    94   47   48 1    
    95   47   49 1    
    96   47  170 1    
    97   48  171 1    
    98   48  172 1    
    99   48  173 1    
   100   49   50 am   BACKBONE|DICT|INTERRES
   101   49  174 1    
   102   50   51 2    
   103   50   52 1    
   104   52   53 1    
   105   52   54 1    
   106   52  175 1    
   107   53  176 1    
   108   53  177 1    
   109   53  178 1    
   110   54   55 am   BACKBONE|DICT|INTERRES
   111   54  179 1    
   112   55   56 2    
   113   55   57 1    
   114   57   58 1    
   115   57   59 1    
   116   57  180 1    
   117   58  181 1    
   118   58  182 1    
   119   58  183 1    
   120   59   60 am   BACKBONE|DICT|INTERRES
   121   59  184 1    
   122   60   61 2    
   123   60   62 1    
   124   62   63 1    
   125   62   64 1    
   126   62  185 1    
   127   63  186 1    
   128   63  187 1    
   129   63  188 1    
   130   64   65 am   BACKBONE|DICT|INTERRES
   131   64  189 1    
   132   65   66 2    
   133   67   68 2    
   134   67   69 am   BACKBONE|DICT|INTERRES
   135   69   70 1    
   136   69  190 1    
   137   70   71 1    
   138   70   72 1    
   139   70  191 1    
   140   71  192 1    
   141   71  193 1    
   142   71  194 1    
   143   72   73 2    
   144   72   74 am   BACKBONE|DICT|INTERRES
   145   74   75 1    
   146   74  195 1    
   147   75   76 1    
   148   75   77 1    
   149   75  196 1    
   150   76  197 1    
   151   76  198 1    
   152   76  199 1    
   153   77   78 2    
   154   77   79 am   BACKBONE|DICT|INTERRES
   155   79   80 1    
   156   79  200 1    
   157   80   81 1    
   158   80   82 1    
   159   80  201 1    
   160   81  202 1    
   161   81  203 1    
   162   81  204 1    
   163   82   83 2    
   164   82   84 am   BACKBONE|DICT|INTERRES
   165   84   85 1    
   166   84  205 1    
   167   85   86 1    
   168   85   87 1    
   169   85  206 1    
   170   86  207 1    
   171   86  208 1    
   172   86  209 1    
   173   87   88 2    
   174   87   89 am   BACKBONE|DICT|INTERRES
   175   89   90 1    
   176   89  210 1    
   177   90   91 1    
   178   90   92 1    
   179   90  211 1    
   180   91  212 1    
   181   91  213 1    
   182   91  214 1    
   183   92   93 2    
   184   92   94 am   BACKBONE|DICT|INTERRES
   185   94   95 1    
   186   94  215 1    
   187   95   96 1    
   188   95   97 1    
   189   95  216 1    
   190   96  217 1    
   191   96  218 1    
   192   96  219 1    
   193   97   98 2    
   194   97   99 am   BACKBONE|DICT|INTERRES
   195   99  100 1    
   196   99  220 1    
   197  100  101 1    
   198  100  102 1    
   199  100  221 1    
   200  101  222 1    
   201  101  223 1    
   202  101  224 1    
   203  102  103 2    
   204  102  104 am   BACKBONE|DICT|INTERRES
   205  104  105 1    
   206  104  225 1    
   207  105  106 1    
   208  105  107 1    
   209  105  226 1    
   210  106  227 1    
   211  106  228 1    
   212  106  229 1    
   213  107  108 2    
   214  107  109 am   BACKBONE|DICT|INTERRES
   215  109  110 1    
   216  109  230 1    
   217  110  111 1    
   218  110  112 1    
   219  110  231 1    
   220  111  232 1    
   221  111  233 1    
   222  111  234 1    
   223  112  113 2    
   224  112  114 am   BACKBONE|DICT|INTERRES
   225  114  115 1    
   226  114  235 1    
   227  115  116 1    
   228  115  117 1    
   229  115  236 1    
   230  116  237 1    
   231  116  238 1    
   232  116  239 1    
   233  117  118 2    
   234  117  119 am   BACKBONE|DICT|INTERRES
   235  119  120 1    
   236  119  240 1    
   237  120  121 1    
   238  120  124 1    
   239  120  241 1    
   240  121  122 am   BACKBONE|DICT|INTERRES
   241  121  123 2    
   242  122  242 1    
   243  122  243 1    
   244  124  125 1    
   245  124  244 1    
   246  124  245 1    
   247  125  126 1    
   248  126  246 1    
   249  126  247 1    
@<TRIPOS>SUBSTRUCTURE
     1 UNK         1 GROUP             0       ****    0 ROOT    
