@<TRIPOS>MOLECULE
3R540
247   249    1
SMALL
USER_CHARGES


@<TRIPOS>ATOM
      1 CA         -3.4254   -9.6647  -44.6586 C.3       0 UNK        -0.1800 
      2 C          -2.4953  -10.8126  -45.0214 C.2       0 UNK         0.5000 
      3 O          -1.2789  -10.6299  -45.0517 O.2       0 UNK        -0.5000 
      4 N          -3.0569  -12.0018  -45.2776 N.am      1 UNK        -0.5000 
      5 CA         -2.3374  -13.2162  -45.6972 C.3       1 UNK         0.1400 
      6 C6         -3.3032  -14.3565  -46.1059 C.3       23 UNK        -0.0398 
      7 S7         -4.4830  -13.8234  -47.3935 S.3       23 UNK        -0.2404 
      8 C8         -5.2904  -15.3965  -47.8432 C.3       23 UNK        -0.0205 
      9 C9         -4.3883  -16.3645  -48.6036 C.ar      23 UNK        -0.0193 
     10 C10        -3.5373  -15.9144  -49.6185 C.ar      23 UNK        -0.1150 
     11 C11        -2.7164  -16.8091  -50.3061 C.ar      23 UNK        -0.0193 
     12 C12        -2.7733  -18.1693  -49.9964 C.ar      23 UNK        -0.1150 
     13 C13        -3.6312  -18.6461  -49.0003 C.ar      23 UNK        -0.0193 
     14 C14        -4.4318  -17.7300  -48.3042 C.ar      23 UNK        -0.1150 
     15 C15        -3.6281  -20.1492  -48.7132 C.3       23 UNK        -0.0205 
     16 S16        -4.9525  -20.7769  -47.6241 S.3       23 UNK        -0.2404 
     17 C17        -4.2163  -20.5330  -45.9730 C.3       23 UNK        -0.0398 
     18 CA         -3.2081  -21.6370  -45.5657 C.3       11 UNK         0.1400 
     19 N          -2.3763  -21.2036  -44.4349 N.am      11 UNK        -0.5000 
     20 C          -1.3295  -21.8787  -43.9394 C.2       10 UNK         0.5000 
     21 O          -0.9682  -22.9757  -44.3686 O.2       10 UNK        -0.5000 
     22 CA         -0.5845  -21.2164  -42.7665 C.3       10 UNK         0.1400 
     23 CB          0.6232  -22.0391  -42.2841 C.3       10 UNK        -0.1800 
     24 N          -0.1266  -19.8880  -43.1619 N.am      10 UNK        -0.5000 
     25 C          -0.7292  -18.7354  -42.8464 C.2       9 UNK         0.5000 
     26 O          -1.7385  -18.6602  -42.1453 O.2       9 UNK        -0.5000 
     27 CA         -0.1319  -17.4579  -43.4607 C.3       9 UNK         0.1400 
     28 CB          1.1629  -17.0449  -42.7445 C.3       9 UNK        -0.1800 
     29 N           0.1311  -17.6088  -44.8884 N.am      9 UNK        -0.5000 
     30 C          -0.8159  -17.7434  -45.8258 C.2       8 UNK         0.5000 
     31 O          -2.0222  -17.7060  -45.5874 O.2       8 UNK        -0.5000 
     32 CA         -0.3317  -17.9882  -47.2631 C.3       8 UNK         0.1400 
     33 CB         -0.0111  -16.6644  -47.9733 C.3       8 UNK        -0.1800 
     34 N           0.8435  -18.8581  -47.2827 N.am      8 UNK        -0.5000 
     35 C           0.7855  -20.1972  -47.2608 C.2       7 UNK         0.5000 
     36 O          -0.2643  -20.8323  -47.3321 O.2       7 UNK        -0.5000 
     37 CA          2.1154  -20.9674  -47.1396 C.3       7 UNK         0.1400 
     38 CB          2.5639  -21.4836  -48.5146 C.3       7 UNK        -0.1800 
     39 N           3.1982  -20.1768  -46.5503 N.am      7 UNK        -0.5000 
     40 C           3.2666  -19.8348  -45.2565 C.2       6 UNK         0.5000 
     41 O           2.4274  -20.1611  -44.4192 O.2       6 UNK        -0.5000 
     42 CA          4.4353  -18.9192  -44.8430 C.3       6 UNK         0.1400 
     43 CB          5.6909  -19.7498  -44.5394 C.3       6 UNK        -0.1800 
     44 N           4.7594  -17.8884  -45.8363 N.am      6 UNK        -0.5000 
     45 C           3.8944  -16.9716  -46.2898 C.2       5 UNK         0.5000 
     46 O           2.7082  -16.9398  -45.9585 O.2       5 UNK        -0.5000 
     47 CA          4.4266  -15.9736  -47.3354 C.3       5 UNK         0.1400 
     48 CB          4.4081  -16.6180  -48.7308 C.3       5 UNK        -0.1800 
     49 N           3.6403  -14.7390  -47.3858 N.am      5 UNK        -0.5000 
     50 C           3.5301  -13.8487  -46.3906 C.2       4 UNK         0.5000 
     51 O           4.1536  -13.9428  -45.3299 O.2       4 UNK        -0.5000 
     52 CA          2.5993  -12.6401  -46.6384 C.3       4 UNK         0.1400 
     53 CB          1.4500  -12.9332  -47.6243 C.3       4 UNK        -0.1800 
     54 N           2.0271  -12.1587  -45.3825 N.am      4 UNK        -0.5000 
     55 C           2.5758  -11.2250  -44.5923 C.2       3 UNK         0.5000 
     56 O           3.6127  -10.6214  -44.8746 O.2       3 UNK        -0.5000 
     57 CA          1.8527  -10.8869  -43.2722 C.3       3 UNK         0.1400 
     58 CB          1.4192   -9.4113  -43.2472 C.3       3 UNK        -0.1800 
     59 N           0.6738  -11.7250  -43.0464 N.am      3 UNK        -0.5000 
     60 C           0.6636  -12.8498  -42.3172 C.2       2 UNK         0.5000 
     61 O           1.6482  -13.2830  -41.7186 O.2       2 UNK        -0.5000 
     62 CA         -0.6644  -13.6322  -42.2378 C.3       2 UNK         0.1400 
     63 CB         -1.4028  -13.3049  -40.9314 C.3       2 UNK        -0.1800 
     64 N          -1.5690  -13.3917  -43.3641 N.am      2 UNK        -0.5000 
     65 C          -1.3186  -13.7057  -44.6438 C.2       1 UNK         0.5000 
     66 O          -0.3034  -14.2954  -45.0084 O.2       1 UNK        -0.5000 
     67 C          -3.8899  -23.0053  -45.3286 C.2       11 UNK         0.5000 
     68 O          -4.0345  -23.7855  -46.2711 O.2       11 UNK        -0.5000 
     69 N          -4.2389  -23.2979  -44.0669 N.am      12 UNK        -0.5000 
     70 CA         -4.7816  -24.5859  -43.6331 C.3       12 UNK         0.1400 
     71 CB         -5.3069  -24.4569  -42.1957 C.3       12 UNK        -0.1800 
     72 C          -3.7597  -25.7350  -43.7361 C.2       12 UNK         0.5000 
     73 O          -4.1338  -26.8400  -44.1284 O.2       12 UNK        -0.5000 
     74 N          -2.4859  -25.4532  -43.4224 N.am      13 UNK        -0.5000 
     75 CA         -1.3759  -26.4044  -43.5435 C.3       13 UNK         0.1400 
     76 CB         -0.1737  -25.9108  -42.7250 C.3       13 UNK        -0.1800 
     77 C          -0.9778  -26.6359  -45.0121 C.2       13 UNK         0.5000 
     78 O          -0.6126  -27.7534  -45.3771 O.2       13 UNK        -0.5000 
     79 N          -1.1121  -25.5879  -45.8368 N.am      14 UNK        -0.5000 
     80 CA         -0.9762  -25.6347  -47.2941 C.3       14 UNK         0.1400 
     81 CB         -0.7414  -24.2070  -47.8157 C.3       14 UNK        -0.1800 
     82 C          -2.1880  -26.2809  -48.0028 C.2       14 UNK         0.5000 
     83 O          -2.1654  -26.4046  -49.2274 O.2       14 UNK        -0.5000 
     84 N          -3.2345  -26.6461  -47.2435 N.am      15 UNK        -0.5000 
     85 CA         -4.4934  -27.2635  -47.6794 C.3       15 UNK         0.1400 
     86 CB         -4.2404  -28.7079  -48.1575 C.3       15 UNK        -0.1800 
     87 C          -5.2619  -26.4175  -48.7176 C.2       15 UNK         0.5000 
     88 O          -5.9451  -26.9697  -49.5815 O.2       15 UNK        -0.5000 
     89 N          -5.0999  -25.0891  -48.6287 N.am      16 UNK        -0.5000 
     90 CA         -5.5940  -24.0570  -49.5434 C.3       16 UNK         0.1400 
     91 CB         -7.1334  -23.9809  -49.5092 C.3       16 UNK        -0.1800 
     92 C          -5.0382  -24.1397  -50.9828 C.2       16 UNK         0.5000 
     93 O          -5.5439  -23.4377  -51.8588 O.2       16 UNK        -0.5000 
     94 N          -3.9941  -24.9501  -51.2187 N.am      17 UNK        -0.5000 
     95 CA         -3.3821  -25.1324  -52.5381 C.3       17 UNK         0.1400 
     96 CB         -2.4722  -26.3691  -52.5174 C.3       17 UNK        -0.1800 
     97 C          -2.5992  -23.8931  -53.0058 C.2       17 UNK         0.5000 
     98 O          -2.5500  -23.6202  -54.2050 O.2       17 UNK        -0.5000 
     99 N          -2.0279  -23.1476  -52.0487 N.am      18 UNK        -0.5000 
    100 CA        -1.2768  -21.9147  -52.2890 C.3       18 UNK         0.1400 
    101 CB        -0.5738  -21.4911  -50.9901 C.3       18 UNK        -0.1800 
    102 C         -2.1457  -20.7670  -52.8362 C.2       18 UNK         0.5000 
    103 O         -1.6396  -19.9391  -53.5931 O.2       18 UNK        -0.5000 
    104 N         -3.4389  -20.7552  -52.4769 N.am      19 UNK        -0.5000 
    105 CA        -4.4166  -19.7341  -52.8697 C.3       19 UNK         0.1400 
    106 CB        -5.7022  -19.9166  -52.0470 C.3       19 UNK        -0.1800 
    107 C         -4.7426  -19.7244  -54.3760 C.2       19 UNK         0.5000 
    108 O         -5.2895  -18.7386  -54.8710 O.2       19 UNK        -0.5000 
    109 N         -4.4000  -20.8110  -55.0811 N.am      20 UNK        -0.5000 
    110 CA        -4.5778  -20.9644  -56.5233 C.3       20 UNK         0.1400 
    111 CB        -4.4612  -22.4556  -56.8763 C.3       20 UNK        -0.1800 
    112 C         -3.5882  -20.1321  -57.3649 C.2       20 UNK         0.5000 
    113 O         -3.8099  -19.9990  -58.5697 O.2       20 UNK        -0.5000 
    114 N         -2.5206  -19.6041  -56.7476 N.am      21 UNK        -0.5000 
    115 CA        -1.4807  -18.8358  -57.4328 C.3       21 UNK         0.1400 
    116 CB        -0.3282  -19.7710  -57.8375 C.3       21 UNK        -0.1800 
    117 C         -0.9638  -17.6565  -56.5961 C.2       21 UNK         0.5000 
    118 O         -0.8081  -16.5632  -57.1427 O.2       21 UNK        -0.5000 
    119 N         -0.6982  -17.8891  -55.3031 N.am      22 UNK        -0.5000 
    120 CA        -0.0443  -16.9510  -54.3732 C.3       22 UNK         0.1400 
    121 C          1.3919  -16.5217  -54.8215 C.2       22 UNK         0.5000 
    122 N          1.9494  -15.4422  -54.2871 N.am      22 UNK        -0.7600 
    123 O          2.0466  -17.1970  -55.6136 O.2       22 UNK        -0.5000 
    124 C124       -0.9719  -15.7676  -53.9675 C.3       23 UNK        -0.0398 
    125 S125       -2.4297  -16.3304  -53.0258 S.3       23 UNK        -0.2404 
    126 C126       -1.7326  -16.3009  -51.3462 C.3       23 UNK        -0.0205 
    127 H127       -3.1791   -9.2817  -43.6683 H         1 UNK         0.0600 
    128 H128       -4.4705   -9.9755  -44.6540 H         1 UNK         0.0600 
    129 H129       -3.3147   -8.8524  -45.3769 H         1 UNK         0.0600 
    130 H130       -4.0634  -12.0861  -45.2511 H         1 UNK         0.3000 
    131 H131       -1.7561  -12.9459  -46.5816 H         1 UNK         0.0600 
    132 H132       -2.7401  -15.2095  -46.4882 H         1 UNK         0.0800 
    133 H133       -3.8665  -14.7180  -45.2439 H         1 UNK         0.0800 
    134 H134       -6.1560  -15.1752  -48.4686 H         1 UNK         0.0800 
    135 H135       -5.6771  -15.8610  -46.9348 H         1 UNK         0.0800 
    136 H136       -3.4998  -14.8627  -49.8644 H         1 UNK         0.1150 
    137 H137       -2.1334  -18.8587  -50.5275 H         1 UNK         0.1150 
    138 H138       -5.0960  -18.0687  -47.5236 H         1 UNK         0.1150 
    139 H139       -2.6594  -20.4235  -48.2984 H         1 UNK         0.0800 
    140 H140       -3.7098  -20.6842  -49.6585 H         1 UNK         0.0800 
    141 H141       -5.0209  -20.4551  -45.2400 H         1 UNK         0.0800 
    142 H142       -3.7251  -19.5611  -45.9769 H         1 UNK         0.0800 
    143 H143       -2.5201  -21.7828  -46.3982 H         1 UNK         0.0600 
    144 H144       -2.5932  -20.3011  -44.0350 H         1 UNK         0.3000 
    145 H145       -1.2863  -21.1445  -41.9333 H         1 UNK         0.0600 
    146 H146        1.1710  -21.5136  -41.5019 H         1 UNK         0.0600 
    147 H147        0.3007  -22.9926  -41.8663 H         1 UNK         0.0600 
    148 H148        1.3209  -22.2513  -43.0951 H         1 UNK         0.0600 
    149 H149        0.7084  -19.8675  -43.7438 H         1 UNK         0.3000 
    150 H150       -0.8650  -16.6587  -43.3410 H         1 UNK         0.0600 
    151 H151        1.9368  -17.8071  -42.8378 H         1 UNK         0.0600 
    152 H152        0.9869  -16.8819  -41.6807 H         1 UNK         0.0600 
    153 H153        1.5596  -16.1161  -43.1566 H         1 UNK         0.0600 
    154 H154        1.1013  -17.5550  -45.1853 H         1 UNK         0.3000 
    155 H155       -1.1415  -18.4735  -47.8053 H         1 UNK         0.0600 
    156 H156        0.7792  -16.1145  -47.4651 H         1 UNK         0.0600 
    157 H157       -0.8886  -16.0180  -48.0044 H         1 UNK         0.0600 
    158 H158        0.3064  -16.8354  -49.0015 H         1 UNK         0.0600 
    159 H159        1.7374  -18.4036  -47.1518 H         1 UNK         0.3000 
    160 H160        1.9329  -21.8306  -46.4953 H         1 UNK         0.0600 
    161 H161        2.7352  -20.6666  -49.2167 H         1 UNK         0.0600 
    162 H162        1.8070  -22.1381  -48.9475 H         1 UNK         0.0600 
    163 H163        3.4843  -22.0629  -48.4388 H         1 UNK         0.0600 
    164 H164        3.9248  -19.8582  -47.1742 H         1 UNK         0.3000 
    165 H165        4.1382  -18.4064  -43.9259 H         1 UNK         0.0600 
    166 H166        6.4931  -19.1240  -44.1479 H         1 UNK         0.0600 
    167 H167        6.0640  -20.2575  -45.4297 H         1 UNK         0.0600 
    168 H168        5.4815  -20.5137  -43.7892 H         1 UNK         0.0600 
    169 H169        5.7137  -17.8675  -46.1661 H         1 UNK         0.3000 
    170 H170        5.4546  -15.7128  -47.0758 H         1 UNK         0.0600 
    171 H171        5.0142  -17.5245  -48.7556 H         1 UNK         0.0600 
    172 H172        3.3963  -16.8915  -49.0343 H         1 UNK         0.0600 
    173 H173        4.8123  -15.9410  -49.4836 H         1 UNK         0.0600 
    174 H174        3.0828  -14.6006  -48.2147 H         1 UNK         0.3000 
    175 H175        3.2144  -11.8539  -47.0803 H         1 UNK         0.0600 
    176 H176        0.8515  -13.7857  -47.3068 H         1 UNK         0.0600 
    177 H177        0.7810  -12.0764  -47.7094 H         1 UNK         0.0600 
    178 H178        1.8239  -13.1418  -48.6270 H         1 UNK         0.0600 
    179 H179        1.2117  -12.6568  -45.0495 H         1 UNK         0.3000 
    180 H180        2.5727  -11.0347  -42.4648 H         1 UNK         0.0600 
    181 H181        0.7434   -9.1745  -44.0693 H         1 UNK         0.0600 
    182 H182        2.2812   -8.7485  -43.3323 H         1 UNK         0.0600 
    183 H183        0.9126   -9.1643  -42.3141 H         1 UNK         0.0600 
    184 H184       -0.1637  -11.4472  -43.5478 H         1 UNK         0.3000 
    185 H185       -0.4138  -14.6923  -42.2259 H         1 UNK         0.0600 
    186 H186       -2.2988  -13.9159  -40.8203 H         1 UNK         0.0600 
    187 H187       -0.7695  -13.4996  -40.0648 H         1 UNK         0.0600 
    188 H188       -1.7019  -12.2567  -40.8905 H         1 UNK         0.0600 
    189 H189       -2.4185  -12.8861  -43.1589 H         1 UNK         0.3000 
    190 H190       -4.0839  -22.6045  -43.3502 H         1 UNK         0.3000 
    191 H191       -5.6241  -24.8330  -44.2828 H         1 UNK         0.0600 
    192 H192       -5.7372  -25.3985  -41.8517 H         1 UNK         0.0600 
    193 H193       -6.0888  -23.7003  -42.1281 H         1 UNK         0.0600 
    194 H194       -4.5138  -24.1844  -41.4983 H         1 UNK         0.0600 
    195 H195       -2.2396  -24.5041  -43.1804 H         1 UNK         0.3000 
    196 H196       -1.6976  -27.3614  -43.1270 H         1 UNK         0.0600 
    197 H197        0.2568  -25.0030  -43.1469 H         1 UNK         0.0600 
    198 H198       -0.4526  -25.7060  -41.6913 H         1 UNK         0.0600 
    199 H199        0.6152  -26.6635  -42.7064 H         1 UNK         0.0600 
    200 H200       -1.3484  -24.6879  -45.4316 H         1 UNK         0.3000 
    201 H201       -0.0982  -26.2351  -47.5400 H         1 UNK         0.0600 
    202 H202       -1.6151  -23.5738  -47.6637 H         1 UNK         0.0600 
    203 H203       -0.5226  -24.2096  -48.8841 H         1 UNK         0.0600 
    204 H204        0.1033  -23.7347  -47.3137 H         1 UNK         0.0600 
    205 H205       -3.1717  -26.4630  -46.2515 H         1 UNK         0.3000 
    206 H206       -5.1318  -27.3122  -46.7963 H         1 UNK         0.0600 
    207 H207       -3.7052  -29.2839  -47.4026 H         1 UNK         0.0600 
    208 H208       -5.1792  -29.2270  -48.3540 H         1 UNK         0.0600 
    209 H209       -3.6538  -28.7322  -49.0765 H         1 UNK         0.0600 
    210 H210       -4.5516  -24.7369  -47.8465 H         1 UNK         0.3000 
    211 H211       -5.2127  -23.1183  -49.1483 H         1 UNK         0.0600 
    212 H212       -7.4955  -23.1135  -50.0625 H         1 UNK         0.0600 
    213 H213       -7.4992  -23.8852  -48.4869 H         1 UNK         0.0600 
    214 H214       -7.5935  -24.8650  -49.9510 H         1 UNK         0.0600 
    215 H215       -3.6007  -25.4922  -50.4567 H         1 UNK         0.3000 
    216 H216       -4.1810  -25.3128  -53.2605 H         1 UNK         0.0600 
    217 H217       -1.6203  -26.2322  -51.8505 H         1 UNK         0.0600 
    218 H218       -2.0776  -26.5781  -53.5124 H         1 UNK         0.0600 
    219 H219       -3.0161  -27.2552  -52.1891 H         1 UNK         0.0600 
    220 H220       -2.1127  -23.4559  -51.0917 H         1 UNK         0.3000 
    221 H221       -0.5103  -22.1273  -53.0372 H         1 UNK         0.0600 
    222 H222        0.1296  -22.2558  -50.6620 H         1 UNK         0.0600 
    223 H223       -1.2820  -21.3219  -50.1793 H         1 UNK         0.0600 
    224 H224       -0.0077  -20.5691  -51.1300 H         1 UNK         0.0600 
    225 H225       -3.7912  -21.5197  -51.9197 H         1 UNK         0.3000 
    226 H226       -3.9964  -18.7585  -52.6244 H         1 UNK         0.0600 
    227 H227       -6.1762  -20.8774  -52.2476 H         1 UNK         0.0600 
    228 H228       -5.5083  -19.8525  -50.9774 H         1 UNK         0.0600 
    229 H229       -6.4292  -19.1392  -52.2848 H         1 UNK         0.0600 
    230 H230       -3.9488  -21.5767  -54.5988 H         1 UNK         0.3000 
    231 H231       -5.5856  -20.6321  -56.7811 H         1 UNK         0.0600 
    232 H232       -3.4607  -22.8387  -56.6722 H         1 UNK         0.0600 
    233 H233       -4.6667  -22.6248  -57.9340 H         1 UNK         0.0600 
    234 H234       -5.1728  -23.0548  -56.3078 H         1 UNK         0.0600 
    235 H235       -2.4234  -19.7252  -55.7477 H         1 UNK         0.3000 
    236 H236       -1.8920  -18.3980  -58.3452 H         1 UNK         0.0600 
    237 H237       -0.6689  -20.5389  -58.5321 H         1 UNK         0.0600 
    238 H238        0.4707  -19.2164  -58.3317 H         1 UNK         0.0600 
    239 H239        0.1058  -20.2713  -56.9709 H         1 UNK         0.0600 
    240 H240       -0.8916  -18.8009  -54.9013 H         1 UNK         0.3000 
    241 H241        0.1399  -17.5423  -53.4760 H         1 UNK         0.0600 
    242 H242        2.8843  -15.1921  -54.5705 H         1 UNK         0.3800 
    243 H243        1.4729  -14.8691  -53.6097 H         1 UNK         0.3800 
    244 H244       -1.3125  -15.2257  -54.8503 H         1 UNK         0.0800 
    245 H245       -0.4505  -15.0336  -53.3535 H         1 UNK         0.0800 
    246 H246       -1.4245  -15.2839  -51.0983 H         1 UNK         0.0800 
    247 H247       -0.8283  -16.9103  -51.3182 H         1 UNK         0.0800 
@<TRIPOS>BOND
     1    1    2 1    
     2    1  127 1    
     3    1  128 1    
     4    1  129 1    
     5    2    3 2    
     6    2    4 am   BACKBONE|DICT|INTERRES
     7    4    5 1    
     8    4  130 1    
     9    5    6 1    
    10    5   65 1    
    11    5  131 1    
    12    6    7 1    
    13    6  132 1    
    14    6  133 1    
    15    7    8 1    
    16    8    9 1    
    17    8  134 1    
    18    8  135 1    
    19    9   10 ar   
    20    9   14 ar   
    21   10   11 ar   
    22   10  136 1    
    23   11   12 ar   
    24   11  126 1    
    25   12   13 ar   
    26   12  137 1    
    27   13   14 ar   
    28   13   15 1    
    29   14  138 1    
    30   15   16 1    
    31   15  139 1    
    32   15  140 1    
    33   16   17 1    
    34   17   18 1    
    35   17  141 1    
    36   17  142 1    
    37   18   19 1    
    38   18   67 1    
    39   18  143 1    
    40   19   20 am   BACKBONE|DICT|INTERRES
    41   19  144 1    
    42   20   21 2    
    43   20   22 1    
    44   22   23 1    
    45   22   24 1    
    46   22  145 1    
    47   23  146 1    
    48   23  147 1    
    49   23  148 1    
    50   24   25 am   BACKBONE|DICT|INTERRES
    51   24  149 1    
    52   25   26 2    
    53   25   27 1    
    54   27   28 1    
    55   27   29 1    
    56   27  150 1    
    57   28  151 1    
    58   28  152 1    
    59   28  153 1    
    60   29   30 am   BACKBONE|DICT|INTERRES
    61   29  154 1    
    62   30   31 2    
    63   30   32 1    
    64   32   33 1    
    65   32   34 1    
    66   32  155 1    
    67   33  156 1    
    68   33  157 1    
    69   33  158 1    
    70   34   35 am   BACKBONE|DICT|INTERRES
    71   34  159 1    
    72   35   36 2    
    73   35   37 1    
    74   37   38 1    
    75   37   39 1    
    76   37  160 1    
    77   38  161 1    
    78   38  162 1    
    79   38  163 1    
    80   39   40 am   BACKBONE|DICT|INTERRES
    81   39  164 1    
    82   40   41 2    
    83   40   42 1    
    84   42   43 1    
    85   42   44 1    
    86   42  165 1    
    87   43  166 1    
    88   43  167 1    
    89   43  168 1    
    90   44   45 am   BACKBONE|DICT|INTERRES
    91   44  169 1    
    92   45   46 2    
    93   45   47 1    
    94   47   48 1    
    95   47   49 1    
    96   47  170 1    
    97   48  171 1    
    98   48  172 1    
    99   48  173 1    
   100   49   50 am   BACKBONE|DICT|INTERRES
   101   49  174 1    
   102   50   51 2    
   103   50   52 1    
   104   52   53 1    
   105   52   54 1    
   106   52  175 1    
   107   53  176 1    
   108   53  177 1    
   109   53  178 1    
   110   54   55 am   BACKBONE|DICT|INTERRES
   111   54  179 1    
   112   55   56 2    
   113   55   57 1    
   114   57   58 1    
   115   57   59 1    
   116   57  180 1    
   117   58  181 1    
   118   58  182 1    
   119   58  183 1    
   120   59   60 am   BACKBONE|DICT|INTERRES
   121   59  184 1    
   122   60   61 2    
   123   60   62 1    
   124   62   63 1    
   125   62   64 1    
   126   62  185 1    
   127   63  186 1    
   128   63  187 1    
   129   63  188 1    
   130   64   65 am   BACKBONE|DICT|INTERRES
   131   64  189 1    
   132   65   66 2    
   133   67   68 2    
   134   67   69 am   BACKBONE|DICT|INTERRES
   135   69   70 1    
   136   69  190 1    
   137   70   71 1    
   138   70   72 1    
   139   70  191 1    
   140   71  192 1    
   141   71  193 1    
   142   71  194 1    
   143   72   73 2    
   144   72   74 am   BACKBONE|DICT|INTERRES
   145   74   75 1    
   146   74  195 1    
   147   75   76 1    
   148   75   77 1    
   149   75  196 1    
   150   76  197 1    
   151   76  198 1    
   152   76  199 1    
   153   77   78 2    
   154   77   79 am   BACKBONE|DICT|INTERRES
   155   79   80 1    
   156   79  200 1    
   157   80   81 1    
   158   80   82 1    
   159   80  201 1    
   160   81  202 1    
   161   81  203 1    
   162   81  204 1    
   163   82   83 2    
   164   82   84 am   BACKBONE|DICT|INTERRES
   165   84   85 1    
   166   84  205 1    
   167   85   86 1    
   168   85   87 1    
   169   85  206 1    
   170   86  207 1    
   171   86  208 1    
   172   86  209 1    
   173   87   88 2    
   174   87   89 am   BACKBONE|DICT|INTERRES
   175   89   90 1    
   176   89  210 1    
   177   90   91 1    
   178   90   92 1    
   179   90  211 1    
   180   91  212 1    
   181   91  213 1    
   182   91  214 1    
   183   92   93 2    
   184   92   94 am   BACKBONE|DICT|INTERRES
   185   94   95 1    
   186   94  215 1    
   187   95   96 1    
   188   95   97 1    
   189   95  216 1    
   190   96  217 1    
   191   96  218 1    
   192   96  219 1    
   193   97   98 2    
   194   97   99 am   BACKBONE|DICT|INTERRES
   195   99  100 1    
   196   99  220 1    
   197  100  101 1    
   198  100  102 1    
   199  100  221 1    
   200  101  222 1    
   201  101  223 1    
   202  101  224 1    
   203  102  103 2    
   204  102  104 am   BACKBONE|DICT|INTERRES
   205  104  105 1    
   206  104  225 1    
   207  105  106 1    
   208  105  107 1    
   209  105  226 1    
   210  106  227 1    
   211  106  228 1    
   212  106  229 1    
   213  107  108 2    
   214  107  109 am   BACKBONE|DICT|INTERRES
   215  109  110 1    
   216  109  230 1    
   217  110  111 1    
   218  110  112 1    
   219  110  231 1    
   220  111  232 1    
   221  111  233 1    
   222  111  234 1    
   223  112  113 2    
   224  112  114 am   BACKBONE|DICT|INTERRES
   225  114  115 1    
   226  114  235 1    
   227  115  116 1    
   228  115  117 1    
   229  115  236 1    
   230  116  237 1    
   231  116  238 1    
   232  116  239 1    
   233  117  118 2    
   234  117  119 am   BACKBONE|DICT|INTERRES
   235  119  120 1    
   236  119  240 1    
   237  120  121 1    
   238  120  124 1    
   239  120  241 1    
   240  121  122 am   BACKBONE|DICT|INTERRES
   241  121  123 2    
   242  122  242 1    
   243  122  243 1    
   244  124  125 1    
   245  124  244 1    
   246  124  245 1    
   247  125  126 1    
   248  126  246 1    
   249  126  247 1    
@<TRIPOS>SUBSTRUCTURE
     1 UNK         1 GROUP             0       ****    0 ROOT    
