@<TRIPOS>MOLECULE
3R540
247   249    1
SMALL
USER_CHARGES


@<TRIPOS>ATOM
      1 CA         -2.1160  -12.6395  -43.2933 C.3       0 UNK        -0.1800 
      2 C          -1.7143  -11.7718  -44.4787 C.2       0 UNK         0.5000 
      3 O          -1.8789  -10.5522  -44.4296 O.2       0 UNK        -0.5000 
      4 N          -1.1988  -12.3993  -45.5419 N.am      1 UNK        -0.5000 
      5 CA         -0.6596  -11.7506  -46.7415 C.3       1 UNK         0.1400 
      6 C6         -0.8628  -12.6357  -48.0009 C.3       23 UNK        -0.0398 
      7 S7         -0.1667  -14.3227  -47.8824 S.3       23 UNK        -0.2404 
      8 C8          1.2950  -14.2054  -48.9591 C.3       23 UNK        -0.0205 
      9 C9          1.6852  -15.5723  -49.4959 C.ar      23 UNK        -0.0193 
     10 C10         1.3245  -15.9488  -50.7937 C.ar      23 UNK        -0.1150 
     11 C11         1.6789  -17.2064  -51.2896 C.ar      23 UNK        -0.0193 
     12 C12         2.4170  -18.0785  -50.4875 C.ar      23 UNK        -0.1150 
     13 C13         2.7476  -17.7316  -49.1733 C.ar      23 UNK        -0.0193 
     14 C14         2.3897  -16.4702  -48.6894 C.ar      23 UNK        -0.1150 
     15 C15         3.4551  -18.7229  -48.2549 C.3       23 UNK        -0.0205 
     16 S16         2.7511  -20.4085  -48.3160 S.3       23 UNK        -0.2404 
     17 C17         0.9562  -20.0765  -48.2341 C.3       23 UNK        -0.0398 
     18 CA          0.1700  -21.2932  -47.7047 C.3       11 UNK         0.1400 
     19 N           0.3672  -21.5077  -46.2715 N.am      11 UNK        -0.5000 
     20 C          -0.0236  -22.6018  -45.6069 C.2       10 UNK         0.5000 
     21 O          -0.5640  -23.5693  -46.1431 O.2       10 UNK        -0.5000 
     22 CA          0.1771  -22.5922  -44.0812 C.3       10 UNK         0.1400 
     23 CB          1.6348  -22.9103  -43.7168 C.3       10 UNK        -0.1800 
     24 N          -0.2227  -21.3225  -43.4710 N.am      10 UNK        -0.5000 
     25 C          -1.4761  -20.8455  -43.4771 C.2       9 UNK         0.5000 
     26 O          -2.4324  -21.4465  -43.9675 O.2       9 UNK        -0.5000 
     27 CA         -1.6965  -19.4488  -42.8682 C.3       9 UNK         0.1400 
     28 CB         -1.7379  -19.5231  -41.3347 C.3       9 UNK        -0.1800 
     29 N          -0.6878  -18.4758  -43.2905 N.am      9 UNK        -0.5000 
     30 C          -0.5028  -18.0768  -44.5579 C.2       8 UNK         0.5000 
     31 O          -1.1875  -18.4620  -45.5036 O.2       8 UNK        -0.5000 
     32 CA          0.6823  -17.1334  -44.8276 C.3       8 UNK         0.1400 
     33 CB          0.3381  -15.6913  -44.4251 C.3       8 UNK        -0.1800 
     34 N           1.9019  -17.5584  -44.1437 N.am      8 UNK        -0.5000 
     35 C           2.5051  -18.7431  -44.3108 C.2       7 UNK         0.5000 
     36 O           2.1170  -19.6062  -45.0943 O.2       7 UNK        -0.5000 
     37 CA          3.7103  -19.0356  -43.4057 C.3       7 UNK         0.1400 
     38 CB          4.9633  -18.2929  -43.8959 C.3       7 UNK        -0.1800 
     39 N           3.4308  -18.6884  -42.0128 N.am      7 UNK        -0.5000 
     40 C           2.5547  -19.3392  -41.2336 C.2       6 UNK         0.5000 
     41 O           1.9132  -20.3247  -41.5983 O.2       6 UNK        -0.5000 
     42 CA          2.3351  -18.7724  -39.8194 C.3       6 UNK         0.1400 
     43 CB          3.4179  -19.2821  -38.8567 C.3       6 UNK        -0.1800 
     44 N           2.3142  -17.3092  -39.7962 N.am      6 UNK        -0.5000 
     45 C           1.3499  -16.5608  -40.3495 C.2       5 UNK         0.5000 
     46 O           0.3635  -17.0260  -40.9202 O.2       5 UNK        -0.5000 
     47 CA          1.5507  -15.0343  -40.3010 C.3       5 UNK         0.1400 
     48 CB          1.0912  -14.4692  -38.9488 C.3       5 UNK        -0.1800 
     49 N           2.9286  -14.6044  -40.5693 N.am      5 UNK        -0.5000 
     50 C           3.5980  -14.8792  -41.6961 C.2       4 UNK         0.5000 
     51 O           3.1653  -15.6196  -42.5807 O.2       4 UNK        -0.5000 
     52 CA          4.9911  -14.2448  -41.8679 C.3       4 UNK         0.1400 
     53 CB          6.0784  -15.1928  -41.3396 C.3       4 UNK        -0.1800 
     54 N           5.2485  -13.9604  -43.2821 N.am      4 UNK        -0.5000 
     55 C           4.5637  -13.0531  -43.9903 C.2       3 UNK         0.5000 
     56 O           3.8148  -12.2180  -43.4736 O.2       3 UNK        -0.5000 
     57 CA          4.7188  -13.1056  -45.5206 C.3       3 UNK         0.1400 
     58 CB          4.3327  -14.4891  -46.0837 C.3       3 UNK        -0.1800 
     59 N           3.8574  -12.0804  -46.0972 N.am      3 UNK        -0.5000 
     60 C           3.9256  -11.5469  -47.3172 C.2       2 UNK         0.5000 
     61 O           4.7465  -11.8958  -48.1674 O.2       2 UNK        -0.5000 
     62 CA          2.8869  -10.4447  -47.6319 C.3       2 UNK         0.1400 
     63 CB          3.1424   -9.7656  -48.9898 C.3       2 UNK        -0.1800 
     64 N           1.5038  -10.9344  -47.6123 N.am      2 UNK        -0.5000 
     65 C           0.7996  -11.2750  -46.5228 C.2       1 UNK         0.5000 
     66 O           1.2617  -11.1990  -45.3815 O.2       1 UNK        -0.5000 
     67 C          -1.3223  -21.1954  -48.0760 C.2       11 UNK         0.5000 
     68 O          -1.7248  -21.7998  -49.0677 O.2       11 UNK        -0.5000 
     69 N          -2.1284  -20.4897  -47.2692 N.am      12 UNK        -0.5000 
     70 CA         -3.5804  -20.3937  -47.4411 C.3       12 UNK         0.1400 
     71 CB         -4.1581  -19.3573  -46.4668 C.3       12 UNK        -0.1800 
     72 C          -4.2924  -21.7483  -47.2780 C.2       12 UNK         0.5000 
     73 O          -5.2311  -22.0296  -48.0232 O.2       12 UNK        -0.5000 
     74 N          -3.8184  -22.5768  -46.3370 N.am      13 UNK        -0.5000 
     75 CA         -4.2796  -23.9511  -46.1466 C.3       13 UNK         0.1400 
     76 CB         -3.7308  -24.5101  -44.8254 C.3       13 UNK        -0.1800 
     77 C          -3.9080  -24.8564  -47.3355 C.2       13 UNK         0.5000 
     78 O          -4.7671  -25.5903  -47.8239 O.2       13 UNK        -0.5000 
     79 N          -2.6573  -24.7568  -47.8102 N.am      14 UNK        -0.5000 
     80 CA         -2.1426  -25.4869  -48.9732 C.3       14 UNK         0.1400 
     81 CB         -0.6258  -25.2715  -49.0855 C.3       14 UNK        -0.1800 
     82 C          -2.8481  -25.1060  -50.2898 C.2       14 UNK         0.5000 
     83 O          -3.1497  -25.9864  -51.0958 O.2       14 UNK        -0.5000 
     84 N          -3.1358  -23.8093  -50.4617 N.am      15 UNK        -0.5000 
     85 CA         -3.9020  -23.2540  -51.5785 C.3       15 UNK         0.1400 
     86 CB         -3.6316  -21.7434  -51.6674 C.3       15 UNK        -0.1800 
     87 C          -5.4177  -23.5116  -51.4694 C.2       15 UNK         0.5000 
     88 O          -6.1397  -23.1996  -52.4157 O.2       15 UNK        -0.5000 
     89 N          -5.8834  -24.0461  -50.3279 N.am      16 UNK        -0.5000 
     90 CA         -7.2843  -24.3015  -49.9783 C.3       16 UNK         0.1400 
     91 CB         -7.8230  -25.4989  -50.7854 C.3       16 UNK        -0.1800 
     92 C          -8.1342  -23.0231  -50.1204 C.2       16 UNK         0.5000 
     93 O          -9.0938  -22.9865  -50.8952 O.2       16 UNK        -0.5000 
     94 N          -7.6764  -21.9663  -49.4346 N.am      17 UNK        -0.5000 
     95 CA         -8.0520  -20.5578  -49.5673 C.3       17 UNK         0.1400 
     96 CB         -9.5481  -20.3152  -49.2803 C.3       17 UNK        -0.1800 
     97 C          -7.6009  -19.9892  -50.9246 C.2       17 UNK         0.5000 
     98 O          -6.6663  -19.1885  -50.9653 O.2       17 UNK        -0.5000 
     99 N          -8.2480  -20.4398  -52.0038 N.am      18 UNK        -0.5000 
    100 CA        -7.9169  -20.1141  -53.3896 C.3       18 UNK         0.1400 
    101 CB        -8.4583  -18.7129  -53.7407 C.3       18 UNK        -0.1800 
    102 C         -8.4175  -21.1890  -54.3761 C.2       18 UNK         0.5000 
    103 O         -8.4483  -20.9254  -55.5797 O.2       18 UNK        -0.5000 
    104 N         -8.8271  -22.3684  -53.8805 N.am      19 UNK        -0.5000 
    105 CA        -9.3316  -23.4654  -54.7125 C.3       19 UNK         0.1400 
    106 CB       -10.1703  -24.4187  -53.8486 C.3       19 UNK        -0.1800 
    107 C         -8.2173  -24.2260  -55.4603 C.2       19 UNK         0.5000 
    108 O         -8.4973  -24.8381  -56.4923 O.2       19 UNK        -0.5000 
    109 N         -6.9848  -24.1645  -54.9455 N.am      20 UNK        -0.5000 
    110 CA        -5.7675  -24.6809  -55.5625 C.3       20 UNK         0.1400 
    111 CB        -5.1977  -25.7989  -54.6716 C.3       20 UNK        -0.1800 
    112 C         -4.7562  -23.5335  -55.7432 C.2       20 UNK         0.5000 
    113 O         -4.9843  -22.4152  -55.2736 O.2       20 UNK        -0.5000 
    114 N         -3.6545  -23.8260  -56.4445 N.am      21 UNK        -0.5000 
    115 CA        -2.5638  -22.8861  -56.7059 C.3       21 UNK         0.1400 
    116 CB        -1.6270  -23.4954  -57.7607 C.3       21 UNK        -0.1800 
    117 C         -1.7763  -22.5265  -55.4304 C.2       21 UNK         0.5000 
    118 O         -1.6302  -23.3655  -54.5386 O.2       21 UNK        -0.5000 
    119 N         -1.2554  -21.2944  -55.3932 N.am      22 UNK        -0.5000 
    120 CA        -0.4250  -20.7638  -54.2976 C.3       22 UNK         0.1400 
    121 C          1.0490  -21.2752  -54.2984 C.2       22 UNK         0.5000 
    122 N          1.5312  -21.9128  -55.3587 N.am      22 UNK        -0.7600 
    123 O          1.7670  -21.1059  -53.3179 O.2       22 UNK        -0.5000 
    124 C124       -0.5056  -19.2126  -54.2520 C.3       23 UNK        -0.0398 
    125 S125       -0.3584  -18.5349  -52.5649 S.3       23 UNK        -0.2404 
    126 C126        1.2298  -17.6513  -52.6707 C.3       23 UNK        -0.0205 
    127 H127       -1.5124  -12.3853  -42.4220 H         1 UNK         0.0600 
    128 H128       -1.9810  -13.7010  -43.5016 H         1 UNK         0.0600 
    129 H129       -3.1642  -12.4740  -43.0440 H         1 UNK         0.0600 
    130 H130       -1.0718  -13.4000  -45.5131 H         1 UNK         0.3000 
    131 H131       -1.2334  -10.8376  -46.9139 H         1 UNK         0.0600 
    132 H132       -1.9347  -12.7564  -48.1634 H         1 UNK         0.0800 
    133 H133       -0.5090  -12.1369  -48.9033 H         1 UNK         0.0800 
    134 H134        1.1002  -13.5274  -49.7910 H         1 UNK         0.0800 
    135 H135        2.1256  -13.7770  -48.3971 H         1 UNK         0.0800 
    136 H136        0.7513  -15.2719  -51.4116 H         1 UNK         0.1150 
    137 H137        2.6824  -19.0545  -50.8699 H         1 UNK         0.1150 
    138 H138        2.6379  -16.1924  -47.6756 H         1 UNK         0.1150 
    139 H139        4.5097  -18.7690  -48.5280 H         1 UNK         0.0800 
    140 H140        3.4183  -18.3754  -47.2218 H         1 UNK         0.0800 
    141 H141        0.6286  -19.8187  -49.2432 H         1 UNK         0.0800 
    142 H142        0.7683  -19.1983  -47.6137 H         1 UNK         0.0800 
    143 H143        0.5518  -22.1801  -48.2151 H         1 UNK         0.0600 
    144 H144        0.8609  -20.7727  -45.7686 H         1 UNK         0.3000 
    145 H145       -0.4550  -23.3769  -43.6604 H         1 UNK         0.0600 
    146 H146        1.7622  -22.9883  -42.6371 H         1 UNK         0.0600 
    147 H147        1.9474  -23.8606  -44.1513 H         1 UNK         0.0600 
    148 H148        2.3187  -22.1424  -44.0788 H         1 UNK         0.0600 
    149 H149        0.5101  -20.7827  -43.0223 H         1 UNK         0.3000 
    150 H150       -2.6675  -19.0886  -43.2140 H         1 UNK         0.0600 
    151 H151       -2.4854  -20.2423  -40.9977 H         1 UNK         0.0600 
    152 H152       -1.9978  -18.5573  -40.9012 H         1 UNK         0.0600 
    153 H153       -0.7767  -19.8277  -40.9196 H         1 UNK         0.0600 
    154 H154       -0.1049  -18.0798  -42.5596 H         1 UNK         0.3000 
    155 H155        0.8821  -17.1491  -45.9010 H         1 UNK         0.0600 
    156 H156        0.1839  -15.5982  -43.3499 H         1 UNK         0.0600 
    157 H157       -0.5757  -15.3611  -44.9189 H         1 UNK         0.0600 
    158 H158        1.1317  -15.0001  -44.7091 H         1 UNK         0.0600 
    159 H159        2.3105  -16.8933  -43.4883 H         1 UNK         0.3000 
    160 H160        3.9131  -20.1077  -43.4540 H         1 UNK         0.0600 
    161 H161        4.8282  -17.2117  -43.8853 H         1 UNK         0.0600 
    162 H162        5.2067  -18.5797  -44.9198 H         1 UNK         0.0600 
    163 H163        5.8292  -18.5295  -43.2776 H         1 UNK         0.0600 
    164 H164        3.8604  -17.8468  -41.6595 H         1 UNK         0.3000 
    165 H165        1.3669  -19.1321  -39.4642 H         1 UNK         0.0600 
    166 H166        3.2265  -18.9493  -37.8364 H         1 UNK         0.0600 
    167 H167        3.4443  -20.3725  -38.8421 H         1 UNK         0.0600 
    168 H168        4.4108  -18.9334  -39.1435 H         1 UNK         0.0600 
    169 H169        3.0936  -16.8439  -39.3550 H         1 UNK         0.3000 
    170 H170        0.9187  -14.6009  -41.0791 H         1 UNK         0.0600 
    171 H171        0.0627  -14.7617  -38.7325 H         1 UNK         0.0600 
    172 H172        1.7141  -14.8279  -38.1286 H         1 UNK         0.0600 
    173 H173        1.1244  -13.3795  -38.9448 H         1 UNK         0.0600 
    174 H174        3.3533  -13.9997  -39.8810 H         1 UNK         0.3000 
    175 H175        5.0309  -13.3087  -41.3070 H         1 UNK         0.0600 
    176 H176        6.0795  -16.1447  -41.8718 H         1 UNK         0.0600 
    177 H177        7.0697  -14.7508  -41.4421 H         1 UNK         0.0600 
    178 H178        5.9286  -15.4090  -40.2810 H         1 UNK         0.0600 
    179 H179        5.8306  -14.6231  -43.7717 H         1 UNK         0.3000 
    180 H180        5.7584  -12.8809  -45.7665 H         1 UNK         0.0600 
    181 H181        3.3090  -14.7543  -45.8173 H         1 UNK         0.0600 
    182 H182        4.9847  -15.2746  -45.7013 H         1 UNK         0.0600 
    183 H183        4.4131  -14.5125  -47.1704 H         1 UNK         0.0600 
    184 H184        3.1383  -11.7397  -45.4604 H         1 UNK         0.3000 
    185 H185        2.9899   -9.6801  -46.8590 H         1 UNK         0.0600 
    186 H186        4.1514   -9.3541  -49.0380 H         1 UNK         0.0600 
    187 H187        3.0327  -10.4665  -49.8184 H         1 UNK         0.0600 
    188 H188        2.4501   -8.9398  -49.1546 H         1 UNK         0.0600 
    189 H189        1.0648  -11.0169  -48.5167 H         1 UNK         0.3000 
    190 H190       -1.7273  -19.9630  -46.4967 H         1 UNK         0.3000 
    191 H191       -3.7719  -20.0436  -48.4576 H         1 UNK         0.0600 
    192 H192       -3.9616  -19.6271  -45.4289 H         1 UNK         0.0600 
    193 H193       -5.2387  -19.2684  -46.5857 H         1 UNK         0.0600 
    194 H194       -3.7300  -18.3705  -46.6431 H         1 UNK         0.0600 
    195 H195       -3.0850  -22.2477  -45.7174 H         1 UNK         0.3000 
    196 H196       -5.3690  -23.9307  -46.0733 H         1 UNK         0.0600 
    197 H197       -4.0914  -25.5247  -44.6520 H         1 UNK         0.0600 
    198 H198       -4.0500  -23.9018  -43.9789 H         1 UNK         0.0600 
    199 H199       -2.6417  -24.5437  -44.8181 H         1 UNK         0.0600 
    200 H200       -1.9974  -24.1570  -47.3224 H         1 UNK         0.3000 
    201 H201       -2.3205  -26.5501  -48.7995 H         1 UNK         0.0600 
    202 H202       -0.1126  -25.5988  -48.1811 H         1 UNK         0.0600 
    203 H203       -0.3794  -24.2224  -49.2488 H         1 UNK         0.0600 
    204 H204       -0.2117  -25.8394  -49.9194 H         1 UNK         0.0600 
    205 H205       -2.7799  -23.1369  -49.7851 H         1 UNK         0.3000 
    206 H206       -3.5534  -23.7171  -52.5034 H         1 UNK         0.0600 
    207 H207       -2.5654  -21.5367  -51.7536 H         1 UNK         0.0600 
    208 H208       -4.1182  -21.3097  -52.5423 H         1 UNK         0.0600 
    209 H209       -4.0054  -21.2173  -50.7880 H         1 UNK         0.0600 
    210 H210       -5.2130  -24.2552  -49.5998 H         1 UNK         0.3000 
    211 H211       -7.3058  -24.5737  -48.9221 H         1 UNK         0.0600 
    212 H212       -7.7204  -25.3428  -51.8586 H         1 UNK         0.0600 
    213 H213       -8.8772  -25.6787  -50.5721 H         1 UNK         0.0600 
    214 H214       -7.2804  -26.4102  -50.5340 H         1 UNK         0.0600 
    215 H215       -6.8268  -22.1094  -48.8890 H         1 UNK         0.3000 
    216 H216       -7.4859  -20.0283  -48.7992 H         1 UNK         0.0600 
    217 H217       -9.7763  -19.2492  -49.3068 H         1 UNK         0.0600 
    218 H218       -9.8195  -20.6804  -48.2899 H         1 UNK         0.0600 
    219 H219      -10.2011  -20.8024  -50.0041 H         1 UNK         0.0600 
    220 H220       -8.9731  -21.1325  -51.8590 H         1 UNK         0.3000 
    221 H221       -6.8293  -20.1030  -53.4894 H         1 UNK         0.0600 
    222 H222       -9.5454  -18.6760  -53.6624 H         1 UNK         0.0600 
    223 H223       -8.0491  -17.9488  -53.0799 H         1 UNK         0.0600 
    224 H224       -8.1905  -18.4278  -54.7587 H         1 UNK         0.0600 
    225 H225       -8.7224  -22.5693  -52.8925 H         1 UNK         0.3000 
    226 H226       -9.9959  -23.0436  -55.4700 H         1 UNK         0.0600 
    227 H227      -10.9999  -23.8938  -53.3747 H         1 UNK         0.0600 
    228 H228      -10.5952  -25.2216  -54.4523 H         1 UNK         0.0600 
    229 H229       -9.5768  -24.8802  -53.0621 H         1 UNK         0.0600 
    230 H230       -6.8267  -23.6108  -54.1050 H         1 UNK         0.3000 
    231 H231       -5.9823  -25.0908  -56.5513 H         1 UNK         0.0600 
    232 H232       -4.3117  -26.2505  -55.1187 H         1 UNK         0.0600 
    233 H233       -5.9279  -26.5955  -54.5278 H         1 UNK         0.0600 
    234 H234       -4.9134  -25.4289  -53.6870 H         1 UNK         0.0600 
    235 H235       -3.5194  -24.7700  -56.7750 H         1 UNK         0.3000 
    236 H236       -2.9991  -21.9723  -57.1164 H         1 UNK         0.0600 
    237 H237       -2.1635  -23.7207  -58.6827 H         1 UNK         0.0600 
    238 H238       -0.8223  -22.8053  -58.0168 H         1 UNK         0.0600 
    239 H239       -1.1673  -24.4186  -57.4051 H         1 UNK         0.0600 
    240 H240       -1.4035  -20.6755  -56.1773 H         1 UNK         0.3000 
    241 H241       -0.8621  -21.1432  -53.3724 H         1 UNK         0.0600 
    242 H242        2.4827  -22.2453  -55.3440 H         1 UNK         0.3800 
    243 H243        0.9583  -22.0703  -56.1715 H         1 UNK         0.3800 
    244 H244        0.2275  -18.7553  -54.9190 H         1 UNK         0.0800 
    245 H245       -1.4779  -18.8793  -54.6179 H         1 UNK         0.0800 
    246 H246        1.9856  -18.3020  -53.1133 H         1 UNK         0.0800 
    247 H247        1.1281  -16.7918  -53.3349 H         1 UNK         0.0800 
@<TRIPOS>BOND
     1    1    2 1    
     2    1  127 1    
     3    1  128 1    
     4    1  129 1    
     5    2    3 2    
     6    2    4 am   BACKBONE|DICT|INTERRES
     7    4    5 1    
     8    4  130 1    
     9    5    6 1    
    10    5   65 1    
    11    5  131 1    
    12    6    7 1    
    13    6  132 1    
    14    6  133 1    
    15    7    8 1    
    16    8    9 1    
    17    8  134 1    
    18    8  135 1    
    19    9   10 ar   
    20    9   14 ar   
    21   10   11 ar   
    22   10  136 1    
    23   11   12 ar   
    24   11  126 1    
    25   12   13 ar   
    26   12  137 1    
    27   13   14 ar   
    28   13   15 1    
    29   14  138 1    
    30   15   16 1    
    31   15  139 1    
    32   15  140 1    
    33   16   17 1    
    34   17   18 1    
    35   17  141 1    
    36   17  142 1    
    37   18   19 1    
    38   18   67 1    
    39   18  143 1    
    40   19   20 am   BACKBONE|DICT|INTERRES
    41   19  144 1    
    42   20   21 2    
    43   20   22 1    
    44   22   23 1    
    45   22   24 1    
    46   22  145 1    
    47   23  146 1    
    48   23  147 1    
    49   23  148 1    
    50   24   25 am   BACKBONE|DICT|INTERRES
    51   24  149 1    
    52   25   26 2    
    53   25   27 1    
    54   27   28 1    
    55   27   29 1    
    56   27  150 1    
    57   28  151 1    
    58   28  152 1    
    59   28  153 1    
    60   29   30 am   BACKBONE|DICT|INTERRES
    61   29  154 1    
    62   30   31 2    
    63   30   32 1    
    64   32   33 1    
    65   32   34 1    
    66   32  155 1    
    67   33  156 1    
    68   33  157 1    
    69   33  158 1    
    70   34   35 am   BACKBONE|DICT|INTERRES
    71   34  159 1    
    72   35   36 2    
    73   35   37 1    
    74   37   38 1    
    75   37   39 1    
    76   37  160 1    
    77   38  161 1    
    78   38  162 1    
    79   38  163 1    
    80   39   40 am   BACKBONE|DICT|INTERRES
    81   39  164 1    
    82   40   41 2    
    83   40   42 1    
    84   42   43 1    
    85   42   44 1    
    86   42  165 1    
    87   43  166 1    
    88   43  167 1    
    89   43  168 1    
    90   44   45 am   BACKBONE|DICT|INTERRES
    91   44  169 1    
    92   45   46 2    
    93   45   47 1    
    94   47   48 1    
    95   47   49 1    
    96   47  170 1    
    97   48  171 1    
    98   48  172 1    
    99   48  173 1    
   100   49   50 am   BACKBONE|DICT|INTERRES
   101   49  174 1    
   102   50   51 2    
   103   50   52 1    
   104   52   53 1    
   105   52   54 1    
   106   52  175 1    
   107   53  176 1    
   108   53  177 1    
   109   53  178 1    
   110   54   55 am   BACKBONE|DICT|INTERRES
   111   54  179 1    
   112   55   56 2    
   113   55   57 1    
   114   57   58 1    
   115   57   59 1    
   116   57  180 1    
   117   58  181 1    
   118   58  182 1    
   119   58  183 1    
   120   59   60 am   BACKBONE|DICT|INTERRES
   121   59  184 1    
   122   60   61 2    
   123   60   62 1    
   124   62   63 1    
   125   62   64 1    
   126   62  185 1    
   127   63  186 1    
   128   63  187 1    
   129   63  188 1    
   130   64   65 am   BACKBONE|DICT|INTERRES
   131   64  189 1    
   132   65   66 2    
   133   67   68 2    
   134   67   69 am   BACKBONE|DICT|INTERRES
   135   69   70 1    
   136   69  190 1    
   137   70   71 1    
   138   70   72 1    
   139   70  191 1    
   140   71  192 1    
   141   71  193 1    
   142   71  194 1    
   143   72   73 2    
   144   72   74 am   BACKBONE|DICT|INTERRES
   145   74   75 1    
   146   74  195 1    
   147   75   76 1    
   148   75   77 1    
   149   75  196 1    
   150   76  197 1    
   151   76  198 1    
   152   76  199 1    
   153   77   78 2    
   154   77   79 am   BACKBONE|DICT|INTERRES
   155   79   80 1    
   156   79  200 1    
   157   80   81 1    
   158   80   82 1    
   159   80  201 1    
   160   81  202 1    
   161   81  203 1    
   162   81  204 1    
   163   82   83 2    
   164   82   84 am   BACKBONE|DICT|INTERRES
   165   84   85 1    
   166   84  205 1    
   167   85   86 1    
   168   85   87 1    
   169   85  206 1    
   170   86  207 1    
   171   86  208 1    
   172   86  209 1    
   173   87   88 2    
   174   87   89 am   BACKBONE|DICT|INTERRES
   175   89   90 1    
   176   89  210 1    
   177   90   91 1    
   178   90   92 1    
   179   90  211 1    
   180   91  212 1    
   181   91  213 1    
   182   91  214 1    
   183   92   93 2    
   184   92   94 am   BACKBONE|DICT|INTERRES
   185   94   95 1    
   186   94  215 1    
   187   95   96 1    
   188   95   97 1    
   189   95  216 1    
   190   96  217 1    
   191   96  218 1    
   192   96  219 1    
   193   97   98 2    
   194   97   99 am   BACKBONE|DICT|INTERRES
   195   99  100 1    
   196   99  220 1    
   197  100  101 1    
   198  100  102 1    
   199  100  221 1    
   200  101  222 1    
   201  101  223 1    
   202  101  224 1    
   203  102  103 2    
   204  102  104 am   BACKBONE|DICT|INTERRES
   205  104  105 1    
   206  104  225 1    
   207  105  106 1    
   208  105  107 1    
   209  105  226 1    
   210  106  227 1    
   211  106  228 1    
   212  106  229 1    
   213  107  108 2    
   214  107  109 am   BACKBONE|DICT|INTERRES
   215  109  110 1    
   216  109  230 1    
   217  110  111 1    
   218  110  112 1    
   219  110  231 1    
   220  111  232 1    
   221  111  233 1    
   222  111  234 1    
   223  112  113 2    
   224  112  114 am   BACKBONE|DICT|INTERRES
   225  114  115 1    
   226  114  235 1    
   227  115  116 1    
   228  115  117 1    
   229  115  236 1    
   230  116  237 1    
   231  116  238 1    
   232  116  239 1    
   233  117  118 2    
   234  117  119 am   BACKBONE|DICT|INTERRES
   235  119  120 1    
   236  119  240 1    
   237  120  121 1    
   238  120  124 1    
   239  120  241 1    
   240  121  122 am   BACKBONE|DICT|INTERRES
   241  121  123 2    
   242  122  242 1    
   243  122  243 1    
   244  124  125 1    
   245  124  244 1    
   246  124  245 1    
   247  125  126 1    
   248  126  246 1    
   249  126  247 1    
@<TRIPOS>SUBSTRUCTURE
     1 UNK         1 GROUP             0       ****    0 ROOT    
