@<TRIPOS>MOLECULE
3R540
247   249    1
SMALL
USER_CHARGES


@<TRIPOS>ATOM
      1 CA         -3.6627  -16.5228  -48.4159 C.3       0 UNK        -0.1800 
      2 C          -2.5399  -15.5327  -48.6940 C.2       0 UNK         0.5000 
      3 O          -2.7187  -14.6021  -49.4795 O.2       0 UNK        -0.5000 
      4 N          -1.3878  -15.7344  -48.0429 N.am      1 UNK        -0.5000 
      5 CA         -0.2093  -14.8682  -48.1003 C.3       1 UNK         0.1400 
      6 C6          0.9811  -15.4899  -47.3280 C.3       23 UNK        -0.0398 
      7 S7          2.5767  -14.7822  -47.8619 S.3       23 UNK        -0.2404 
      8 C8          3.4615  -16.2286  -48.5320 C.3       23 UNK        -0.0205 
      9 C9          2.6748  -16.9964  -49.5870 C.ar      23 UNK        -0.0193 
     10 C10         2.1166  -16.3374  -50.6876 C.ar      23 UNK        -0.1150 
     11 C11         1.4064  -17.0517  -51.6562 C.ar      23 UNK        -0.0193 
     12 C12         1.2769  -18.4378  -51.5308 C.ar      23 UNK        -0.1150 
     13 C13         1.8342  -19.1086  -50.4394 C.ar      23 UNK        -0.0193 
     14 C14         2.5265  -18.3819  -49.4676 C.ar      23 UNK        -0.1150 
     15 C15         1.7064  -20.6200  -50.3307 C.3       23 UNK        -0.0205 
     16 S16         0.0282  -21.1221  -49.8482 S.3       23 UNK        -0.2404 
     17 C17         0.0252  -20.8009  -48.0503 C.3       23 UNK        -0.0398 
     18 CA          0.0469  -22.1124  -47.2285 C.3       11 UNK         0.1400 
     19 N           0.4306  -21.8895  -45.8334 N.am      11 UNK        -0.5000 
     20 C           0.7178  -22.8689  -44.9632 C.2       10 UNK         0.5000 
     21 O           0.7568  -24.0623  -45.2644 O.2       10 UNK        -0.5000 
     22 CA          0.9532  -22.4517  -43.5001 C.3       10 UNK         0.1400 
     23 CB          2.3854  -21.9335  -43.3032 C.3       10 UNK        -0.1800 
     24 N          -0.0070  -21.4479  -43.0371 N.am      10 UNK        -0.5000 
     25 C          -1.3306  -21.6483  -42.9544 C.2       9 UNK         0.5000 
     26 O          -1.8768  -22.7177  -43.2190 O.2       9 UNK        -0.5000 
     27 CA         -2.1997  -20.4425  -42.5592 C.3       9 UNK         0.1400 
     28 CB         -2.1843  -20.2311  -41.0382 C.3       9 UNK        -0.1800 
     29 N          -1.7967  -19.2102  -43.2352 N.am      9 UNK        -0.5000 
     30 C          -1.8208  -19.0225  -44.5621 C.2       8 UNK         0.5000 
     31 O          -2.2166  -19.8610  -45.3708 O.2       8 UNK        -0.5000 
     32 CA         -1.2512  -17.6925  -45.0802 C.3       8 UNK         0.1400 
     33 CB         -2.2495  -16.5449  -44.8663 C.3       8 UNK        -0.1800 
     34 N           0.0319  -17.3602  -44.4625 N.am      8 UNK        -0.5000 
     35 C           1.1463  -18.0961  -44.5904 C.2       7 UNK         0.5000 
     36 O           1.2293  -19.0886  -45.3140 O.2       7 UNK        -0.5000 
     37 CA          2.3501  -17.6839  -43.7254 C.3       7 UNK         0.1400 
     38 CB          3.1777  -16.5827  -44.4044 C.3       7 UNK        -0.1800 
     39 N           1.9368  -17.2399  -42.3944 N.am      7 UNK        -0.5000 
     40 C           1.4433  -18.0525  -41.4488 C.2       6 UNK         0.5000 
     41 O           1.3248  -19.2693  -41.5873 O.2       6 UNK        -0.5000 
     42 CA          0.9573  -17.3836  -40.1502 C.3       6 UNK         0.1400 
     43 CB          2.1337  -17.1368  -39.1942 C.3       6 UNK        -0.1800 
     44 N           0.2624  -16.1202  -40.4021 N.am      6 UNK        -0.5000 
     45 C          -0.9082  -16.0147  -41.0477 C.2       5 UNK         0.5000 
     46 O          -1.5557  -16.9822  -41.4434 O.2       5 UNK        -0.5000 
     47 CA         -1.4132  -14.5904  -41.3462 C.3       5 UNK         0.1400 
     48 CB         -2.3036  -14.0830  -40.2026 C.3       5 UNK        -0.1800 
     49 N          -0.3219  -13.6396  -41.5729 N.am      5 UNK        -0.5000 
     50 C           0.5259  -13.6924  -42.6079 C.2       4 UNK         0.5000 
     51 O           0.4633  -14.5323  -43.5098 O.2       4 UNK        -0.5000 
     52 CA          1.6859  -12.6932  -42.5776 C.3       4 UNK         0.1400 
     53 CB          2.8760  -13.2996  -41.8067 C.3       4 UNK        -0.1800 
     54 N           2.0782  -12.3618  -43.9429 N.am      4 UNK        -0.5000 
     55 C           2.8704  -11.3383  -44.2844 C.2       3 UNK         0.5000 
     56 O           3.3456  -10.5402  -43.4750 O.2       3 UNK        -0.5000 
     57 CA          3.1919  -11.1706  -45.7794 C.3       3 UNK         0.1400 
     58 CB          4.3765  -12.0662  -46.1738 C.3       3 UNK        -0.1800 
     59 N           2.0531  -11.4467  -46.6576 N.am      3 UNK        -0.5000 
     60 C           0.9736  -10.6568  -46.7700 C.2       2 UNK         0.5000 
     61 O           0.7982   -9.6442  -46.0914 O.2       2 UNK        -0.5000 
     62 CA         -0.0740  -11.0317  -47.8378 C.3       2 UNK         0.1400 
     63 CB          0.0856  -10.1391  -49.0786 C.3       2 UNK        -0.1800 
     64 N           0.0118  -12.4318  -48.2536 N.am      2 UNK        -0.5000 
     65 C          -0.5130  -13.4516  -47.5647 C.2       1 UNK         0.5000 
     66 O          -1.1674  -13.3125  -46.5292 O.2       1 UNK        -0.5000 
     67 C          -1.2866  -22.8827  -47.3280 C.2       11 UNK         0.5000 
     68 O          -1.3514  -23.8867  -48.0347 O.2       11 UNK        -0.5000 
     69 N          -2.3088  -22.4363  -46.5840 N.am      12 UNK        -0.5000 
     70 CA         -3.6351  -23.0545  -46.5510 C.3       12 UNK         0.1400 
     71 CB         -4.5985  -22.1647  -45.7535 C.3       12 UNK        -0.1800 
     72 C          -3.6322  -24.4946  -46.0051 C.2       12 UNK         0.5000 
     73 O          -4.3913  -25.3288  -46.4986 O.2       12 UNK        -0.5000 
     74 N          -2.7620  -24.7696  -45.0239 N.am      13 UNK        -0.5000 
     75 CA         -2.5175  -26.1049  -44.4801 C.3       13 UNK         0.1400 
     76 CB         -1.6751  -25.9924  -43.2004 C.3       13 UNK        -0.1800 
     77 C          -1.8422  -27.0488  -45.4928 C.2       13 UNK         0.5000 
     78 O          -2.1353  -28.2453  -45.4845 O.2       13 UNK        -0.5000 
     79 N          -0.9654  -26.5033  -46.3486 N.am      14 UNK        -0.5000 
     80 CA         -0.3287  -27.2300  -47.4458 C.3       14 UNK         0.1400 
     81 CB          0.9115  -26.4662  -47.9382 C.3       14 UNK        -0.1800 
     82 C          -1.3202  -27.5037  -48.5910 C.2       14 UNK         0.5000 
     83 O          -1.4591  -28.6561  -49.0040 O.2       14 UNK        -0.5000 
     84 N          -2.0135  -26.4564  -49.0559 N.am      15 UNK        -0.5000 
     85 CA         -3.0563  -26.5259  -50.0733 C.3       15 UNK         0.1400 
     86 CB         -2.4547  -26.8123  -51.4633 C.3       15 UNK        -0.1800 
     87 C          -3.8553  -25.2163  -50.0792 C.2       15 UNK         0.5000 
     88 O          -3.3201  -24.1720  -50.4558 O.2       15 UNK        -0.5000 
     89 N          -5.1403  -25.2944  -49.7101 N.am      16 UNK        -0.5000 
     90 CA         -6.0757  -24.1650  -49.7098 C.3       16 UNK         0.1400 
     91 CB         -7.4050  -24.6033  -49.0793 C.3       16 UNK        -0.1800 
     92 C          -6.3048  -23.5640  -51.1087 C.2       16 UNK         0.5000 
     93 O          -6.4596  -22.3496  -51.2286 O.2       16 UNK        -0.5000 
     94 N          -6.2725  -24.4155  -52.1437 N.am      17 UNK        -0.5000 
     95 CA         -6.3555  -24.0139  -53.5480 C.3       17 UNK         0.1400 
     96 CB         -6.5132  -25.2631  -54.4274 C.3       17 UNK        -0.1800 
     97 C          -5.1406  -23.1823  -53.9983 C.2       17 UNK         0.5000 
     98 O          -5.3133  -22.2066  -54.7282 O.2       17 UNK        -0.5000 
     99 N          -3.9417  -23.5559  -53.5262 N.am      18 UNK        -0.5000 
    100 CA        -2.6976  -22.8316  -53.7891 C.3       18 UNK         0.1400 
    101 CB        -1.4879  -23.6847  -53.3805 C.3       18 UNK        -0.1800 
    102 C         -2.6710  -21.4711  -53.0769 C.2       18 UNK         0.5000 
    103 O         -2.2565  -20.4857  -53.6851 O.2       18 UNK        -0.5000 
    104 N         -3.1595  -21.4356  -51.8289 N.am      19 UNK        -0.5000 
    105 CA        -3.3190  -20.2151  -51.0375 C.3       19 UNK         0.1400 
    106 CB        -3.7192  -20.5862  -49.6009 C.3       19 UNK        -0.1800 
    107 C         -4.3346  -19.2367  -51.6552 C.2       19 UNK         0.5000 
    108 O         -4.0856  -18.0325  -51.6673 O.2       19 UNK        -0.5000 
    109 N         -5.4507  -19.7697  -52.1713 N.am      20 UNK        -0.5000 
    110 CA        -6.4873  -19.0033  -52.8605 C.3       20 UNK         0.1400 
    111 CB        -7.7331  -19.8818  -53.0529 C.3       20 UNK        -0.1800 
    112 C         -6.0106  -18.4299  -54.2076 C.2       20 UNK         0.5000 
    113 O         -6.2960  -17.2688  -54.5041 O.2       20 UNK        -0.5000 
    114 N         -5.3072  -19.2501  -55.0006 N.am      21 UNK        -0.5000 
    115 CA        -4.7962  -18.8752  -56.3181 C.3       21 UNK         0.1400 
    116 CB        -4.4403  -20.1441  -57.1091 C.3       21 UNK        -0.1800 
    117 C         -3.5873  -17.9261  -56.2445 C.2       21 UNK         0.5000 
    118 O         -3.5642  -16.9174  -56.9507 O.2       21 UNK        -0.5000 
    119 N         -2.5998  -18.2801  -55.4116 N.am      22 UNK        -0.5000 
    120 CA        -1.2981  -17.6081  -55.2572 C.3       22 UNK         0.1400 
    121 C         -0.3904  -17.6023  -56.5294 C.2       22 UNK         0.5000 
    122 N         -0.6455  -18.4355  -57.5312 N.am      22 UNK        -0.7600 
    123 O          0.5893  -16.8650  -56.5992 O.2       22 UNK        -0.5000 
    124 C124       -1.4103  -16.2176  -54.5547 C.3       23 UNK        -0.0398 
    125 S125       -1.0197  -16.3353  -52.7776 S.3       23 UNK        -0.2404 
    126 C126        0.8001  -16.3406  -52.8544 C.3       23 UNK        -0.0205 
    127 H127       -3.2887  -17.4418  -47.9637 H         1 UNK         0.0600 
    128 H128       -4.1738  -16.7852  -49.3413 H         1 UNK         0.0600 
    129 H129       -4.3934  -16.0789  -47.7396 H         1 UNK         0.0600 
    130 H130       -1.3237  -16.5083  -47.4032 H         1 UNK         0.3000 
    131 H131        0.0582  -14.7935  -49.1567 H         1 UNK         0.0600 
    132 H132        1.0071  -16.5703  -47.4747 H         1 UNK         0.0800 
    133 H133        0.8720  -15.3433  -46.2522 H         1 UNK         0.0800 
    134 H134        3.7338  -16.8843  -47.7047 H         1 UNK         0.0800 
    135 H135        4.3995  -15.8900  -48.9736 H         1 UNK         0.0800 
    136 H136        2.2345  -15.2676  -50.7868 H         1 UNK         0.1150 
    137 H137        0.7347  -18.9957  -52.2821 H         1 UNK         0.1150 
    138 H138        2.9613  -18.8986  -48.6233 H         1 UNK         0.1150 
    139 H139        1.9391  -21.0669  -51.2983 H         1 UNK         0.0800 
    140 H140        2.4316  -21.0283  -49.6250 H         1 UNK         0.0800 
    141 H141       -0.8443  -20.1909  -47.8000 H         1 UNK         0.0800 
    142 H142        0.8944  -20.1921  -47.8008 H         1 UNK         0.0800 
    143 H143        0.8204  -22.7543  -47.6566 H         1 UNK         0.0600 
    144 H144        0.4632  -20.9256  -45.5161 H         1 UNK         0.3000 
    145 H145        0.8270  -23.3409  -42.8789 H         1 UNK         0.0600 
    146 H146        2.5828  -21.7099  -42.2547 H         1 UNK         0.0600 
    147 H147        2.5691  -21.0267  -43.8791 H         1 UNK         0.0600 
    148 H148        3.1167  -22.6779  -43.6202 H         1 UNK         0.0600 
    149 H149        0.3739  -20.5535  -42.7438 H         1 UNK         0.3000 
    150 H150       -3.2262  -20.6621  -42.8592 H         1 UNK         0.0600 
    151 H151       -2.5011  -21.1341  -40.5150 H         1 UNK         0.0600 
    152 H152       -2.8633  -19.4301  -40.7454 H         1 UNK         0.0600 
    153 H153       -1.1887  -19.9734  -40.6765 H         1 UNK         0.0600 
    154 H154       -1.5049  -18.4416  -42.6368 H         1 UNK         0.3000 
    155 H155       -1.0792  -17.8078  -46.1512 H         1 UNK         0.0600 
    156 H156       -3.1677  -16.7175  -45.4282 H         1 UNK         0.0600 
    157 H157       -1.8378  -15.5901  -45.1922 H         1 UNK         0.0600 
    158 H158       -2.5307  -16.4404  -43.8196 H         1 UNK         0.0600 
    159 H159        0.0633  -16.5272  -43.8847 H         1 UNK         0.3000 
    160 H160        2.9902  -18.5608  -43.6086 H         1 UNK         0.0600 
    161 H161        2.6046  -15.6680  -44.5523 H         1 UNK         0.0600 
    162 H162        3.5286  -16.9116  -45.3819 H         1 UNK         0.0600 
    163 H163        4.0587  -16.3318  -43.8137 H         1 UNK         0.0600 
    164 H164        1.9584  -16.2472  -42.2193 H         1 UNK         0.3000 
    165 H165        0.2576  -18.0666  -39.6638 H         1 UNK         0.0600 
    166 H166        1.7895  -16.7315  -38.2425 H         1 UNK         0.0600 
    167 H167        2.6618  -18.0666  -38.9781 H         1 UNK         0.0600 
    168 H168        2.8577  -16.4379  -39.6149 H         1 UNK         0.0600 
    169 H169        0.7218  -15.2759  -40.0962 H         1 UNK         0.3000 
    170 H170       -2.0163  -14.6346  -42.2552 H         1 UNK         0.0600 
    171 H171       -1.7495  -13.9958  -39.2671 H         1 UNK         0.0600 
    172 H172       -2.7262  -13.1055  -40.4358 H         1 UNK         0.0600 
    173 H173       -3.1385  -14.7630  -40.0277 H         1 UNK         0.0600 
    174 H174       -0.1975  -12.9240  -40.8710 H         1 UNK         0.3000 
    175 H175        1.3490  -11.7829  -42.0771 H         1 UNK         0.0600 
    176 H176        3.2756  -14.1790  -42.3131 H         1 UNK         0.0600 
    177 H177        3.6895  -12.5828  -41.6966 H         1 UNK         0.0600 
    178 H178        2.5827  -13.6028  -40.8009 H         1 UNK         0.0600 
    179 H179        1.6882  -12.9637  -44.6565 H         1 UNK         0.3000 
    180 H180        3.4911  -10.1324  -45.9392 H         1 UNK         0.0600 
    181 H181        5.2674  -11.8040  -45.6017 H         1 UNK         0.0600 
    182 H182        4.1683  -13.1194  -45.9834 H         1 UNK         0.0600 
    183 H183        4.6248  -11.9562  -47.2296 H         1 UNK         0.0600 
    184 H184        2.1206  -12.2644  -47.2463 H         1 UNK         0.3000 
    185 H185       -1.0621  -10.8450  -47.4114 H         1 UNK         0.0600 
    186 H186        1.0579  -10.2778  -49.5531 H         1 UNK         0.0600 
    187 H187       -0.6844  -10.3534  -49.8201 H         1 UNK         0.0600 
    188 H188       -0.0037   -9.0842  -48.8156 H         1 UNK         0.0600 
    189 H189        0.5362  -12.6206  -49.0959 H         1 UNK         0.3000 
    190 H190       -2.1902  -21.5874  -46.0351 H         1 UNK         0.3000 
    191 H191       -3.9893  -23.1000  -47.5809 H         1 UNK         0.0600 
    192 H192       -4.6705  -21.1699  -46.1936 H         1 UNK         0.0600 
    193 H193       -4.2740  -22.0510  -44.7187 H         1 UNK         0.0600 
    194 H194       -5.6031  -22.5893  -45.7405 H         1 UNK         0.0600 
    195 H195       -2.2349  -24.0060  -44.6092 H         1 UNK         0.3000 
    196 H196       -3.4822  -26.5413  -44.2132 H         1 UNK         0.0600 
    197 H197       -2.1875  -25.3996  -42.4426 H         1 UNK         0.0600 
    198 H198       -0.7093  -25.5247  -43.3945 H         1 UNK         0.0600 
    199 H199       -1.4842  -26.9759  -42.7693 H         1 UNK         0.0600 
    200 H200       -0.7698  -25.5120  -46.2841 H         1 UNK         0.3000 
    201 H201        0.0124  -28.1940  -47.0622 H         1 UNK         0.0600 
    202 H202        1.6223  -26.3071  -47.1270 H         1 UNK         0.0600 
    203 H203        0.6580  -25.4912  -48.3528 H         1 UNK         0.0600 
    204 H204        1.4270  -27.0274  -48.7183 H         1 UNK         0.0600 
    205 H205       -1.8325  -25.5264  -48.6754 H         1 UNK         0.3000 
    206 H206       -3.7347  -27.3421  -49.8168 H         1 UNK         0.0600 
    207 H207       -1.6430  -26.1238  -51.6956 H         1 UNK         0.0600 
    208 H208       -2.0552  -27.8244  -51.5235 H         1 UNK         0.0600 
    209 H209       -3.2063  -26.7178  -52.2478 H         1 UNK         0.0600 
    210 H210       -5.5057  -26.1792  -49.3888 H         1 UNK         0.3000 
    211 H211       -5.6529  -23.3758  -49.0878 H         1 UNK         0.0600 
    212 H212       -7.8697  -25.4153  -49.6400 H         1 UNK         0.0600 
    213 H213       -8.1147  -23.7754  -49.0497 H         1 UNK         0.0600 
    214 H214       -7.2597  -24.9421  -48.0531 H         1 UNK         0.0600 
    215 H215       -6.1468  -25.3987  -51.9545 H         1 UNK         0.3000 
    216 H216       -7.2465  -23.3944  -53.6711 H         1 UNK         0.0600 
    217 H217       -6.5931  -24.9905  -55.4807 H         1 UNK         0.0600 
    218 H218       -7.4154  -25.8169  -54.1672 H         1 UNK         0.0600 
    219 H219       -5.6629  -25.9388  -54.3266 H         1 UNK         0.0600 
    220 H220       -3.8895  -24.3265  -52.8772 H         1 UNK         0.3000 
    221 H221       -2.6340  -22.6501  -54.8642 H         1 UNK         0.0600 
    222 H222       -1.4448  -23.8360  -52.3019 H         1 UNK         0.0600 
    223 H223       -1.5098  -24.6626  -53.8614 H         1 UNK         0.0600 
    224 H224       -0.5571  -23.1978  -53.6737 H         1 UNK         0.0600 
    225 H225       -3.4261  -22.3095  -51.3883 H         1 UNK         0.3000 
    226 H226       -2.3519  -19.7091  -51.0053 H         1 UNK         0.0600 
    227 H227       -3.0002  -21.2756  -49.1615 H         1 UNK         0.0600 
    228 H228       -3.7556  -19.7025  -48.9637 H         1 UNK         0.0600 
    229 H229       -4.6998  -21.0603  -49.5624 H         1 UNK         0.0600 
    230 H230       -5.6193  -20.7641  -52.0553 H         1 UNK         0.3000 
    231 H231       -6.7643  -18.1625  -52.2210 H         1 UNK         0.0600 
    232 H232       -8.5266  -19.3302  -53.5585 H         1 UNK         0.0600 
    233 H233       -8.1299  -20.2171  -52.0946 H         1 UNK         0.0600 
    234 H234       -7.5141  -20.7666  -53.6514 H         1 UNK         0.0600 
    235 H235       -5.1556  -20.2105  -54.7083 H         1 UNK         0.3000 
    236 H236       -5.5918  -18.3589  -56.8597 H         1 UNK         0.0600 
    237 H237       -3.6764  -20.7355  -56.6024 H         1 UNK         0.0600 
    238 H238       -5.3156  -20.7795  -57.2453 H         1 UNK         0.0600 
    239 H239       -4.0625  -19.8950  -58.1015 H         1 UNK         0.0600 
    240 H240       -2.7015  -19.1231  -54.8505 H         1 UNK         0.3000 
    241 H241       -0.7466  -18.2770  -54.5957 H         1 UNK         0.0600 
    242 H242       -0.0450  -18.4340  -58.3410 H         1 UNK         0.3800 
    243 H243       -1.4283  -19.0669  -57.4879 H         1 UNK         0.3800 
    244 H244       -2.4156  -15.8067  -54.6536 H         1 UNK         0.0800 
    245 H245       -0.7545  -15.4639  -54.9931 H         1 UNK         0.0800 
    246 H246        1.1571  -15.3120  -52.9233 H         1 UNK         0.0800 
    247 H247        1.1388  -16.8438  -53.7608 H         1 UNK         0.0800 
@<TRIPOS>BOND
     1    1    2 1    
     2    1  127 1    
     3    1  128 1    
     4    1  129 1    
     5    2    3 2    
     6    2    4 am   BACKBONE|DICT|INTERRES
     7    4    5 1    
     8    4  130 1    
     9    5    6 1    
    10    5   65 1    
    11    5  131 1    
    12    6    7 1    
    13    6  132 1    
    14    6  133 1    
    15    7    8 1    
    16    8    9 1    
    17    8  134 1    
    18    8  135 1    
    19    9   10 ar   
    20    9   14 ar   
    21   10   11 ar   
    22   10  136 1    
    23   11   12 ar   
    24   11  126 1    
    25   12   13 ar   
    26   12  137 1    
    27   13   14 ar   
    28   13   15 1    
    29   14  138 1    
    30   15   16 1    
    31   15  139 1    
    32   15  140 1    
    33   16   17 1    
    34   17   18 1    
    35   17  141 1    
    36   17  142 1    
    37   18   19 1    
    38   18   67 1    
    39   18  143 1    
    40   19   20 am   BACKBONE|DICT|INTERRES
    41   19  144 1    
    42   20   21 2    
    43   20   22 1    
    44   22   23 1    
    45   22   24 1    
    46   22  145 1    
    47   23  146 1    
    48   23  147 1    
    49   23  148 1    
    50   24   25 am   BACKBONE|DICT|INTERRES
    51   24  149 1    
    52   25   26 2    
    53   25   27 1    
    54   27   28 1    
    55   27   29 1    
    56   27  150 1    
    57   28  151 1    
    58   28  152 1    
    59   28  153 1    
    60   29   30 am   BACKBONE|DICT|INTERRES
    61   29  154 1    
    62   30   31 2    
    63   30   32 1    
    64   32   33 1    
    65   32   34 1    
    66   32  155 1    
    67   33  156 1    
    68   33  157 1    
    69   33  158 1    
    70   34   35 am   BACKBONE|DICT|INTERRES
    71   34  159 1    
    72   35   36 2    
    73   35   37 1    
    74   37   38 1    
    75   37   39 1    
    76   37  160 1    
    77   38  161 1    
    78   38  162 1    
    79   38  163 1    
    80   39   40 am   BACKBONE|DICT|INTERRES
    81   39  164 1    
    82   40   41 2    
    83   40   42 1    
    84   42   43 1    
    85   42   44 1    
    86   42  165 1    
    87   43  166 1    
    88   43  167 1    
    89   43  168 1    
    90   44   45 am   BACKBONE|DICT|INTERRES
    91   44  169 1    
    92   45   46 2    
    93   45   47 1    
    94   47   48 1    
    95   47   49 1    
    96   47  170 1    
    97   48  171 1    
    98   48  172 1    
    99   48  173 1    
   100   49   50 am   BACKBONE|DICT|INTERRES
   101   49  174 1    
   102   50   51 2    
   103   50   52 1    
   104   52   53 1    
   105   52   54 1    
   106   52  175 1    
   107   53  176 1    
   108   53  177 1    
   109   53  178 1    
   110   54   55 am   BACKBONE|DICT|INTERRES
   111   54  179 1    
   112   55   56 2    
   113   55   57 1    
   114   57   58 1    
   115   57   59 1    
   116   57  180 1    
   117   58  181 1    
   118   58  182 1    
   119   58  183 1    
   120   59   60 am   BACKBONE|DICT|INTERRES
   121   59  184 1    
   122   60   61 2    
   123   60   62 1    
   124   62   63 1    
   125   62   64 1    
   126   62  185 1    
   127   63  186 1    
   128   63  187 1    
   129   63  188 1    
   130   64   65 am   BACKBONE|DICT|INTERRES
   131   64  189 1    
   132   65   66 2    
   133   67   68 2    
   134   67   69 am   BACKBONE|DICT|INTERRES
   135   69   70 1    
   136   69  190 1    
   137   70   71 1    
   138   70   72 1    
   139   70  191 1    
   140   71  192 1    
   141   71  193 1    
   142   71  194 1    
   143   72   73 2    
   144   72   74 am   BACKBONE|DICT|INTERRES
   145   74   75 1    
   146   74  195 1    
   147   75   76 1    
   148   75   77 1    
   149   75  196 1    
   150   76  197 1    
   151   76  198 1    
   152   76  199 1    
   153   77   78 2    
   154   77   79 am   BACKBONE|DICT|INTERRES
   155   79   80 1    
   156   79  200 1    
   157   80   81 1    
   158   80   82 1    
   159   80  201 1    
   160   81  202 1    
   161   81  203 1    
   162   81  204 1    
   163   82   83 2    
   164   82   84 am   BACKBONE|DICT|INTERRES
   165   84   85 1    
   166   84  205 1    
   167   85   86 1    
   168   85   87 1    
   169   85  206 1    
   170   86  207 1    
   171   86  208 1    
   172   86  209 1    
   173   87   88 2    
   174   87   89 am   BACKBONE|DICT|INTERRES
   175   89   90 1    
   176   89  210 1    
   177   90   91 1    
   178   90   92 1    
   179   90  211 1    
   180   91  212 1    
   181   91  213 1    
   182   91  214 1    
   183   92   93 2    
   184   92   94 am   BACKBONE|DICT|INTERRES
   185   94   95 1    
   186   94  215 1    
   187   95   96 1    
   188   95   97 1    
   189   95  216 1    
   190   96  217 1    
   191   96  218 1    
   192   96  219 1    
   193   97   98 2    
   194   97   99 am   BACKBONE|DICT|INTERRES
   195   99  100 1    
   196   99  220 1    
   197  100  101 1    
   198  100  102 1    
   199  100  221 1    
   200  101  222 1    
   201  101  223 1    
   202  101  224 1    
   203  102  103 2    
   204  102  104 am   BACKBONE|DICT|INTERRES
   205  104  105 1    
   206  104  225 1    
   207  105  106 1    
   208  105  107 1    
   209  105  226 1    
   210  106  227 1    
   211  106  228 1    
   212  106  229 1    
   213  107  108 2    
   214  107  109 am   BACKBONE|DICT|INTERRES
   215  109  110 1    
   216  109  230 1    
   217  110  111 1    
   218  110  112 1    
   219  110  231 1    
   220  111  232 1    
   221  111  233 1    
   222  111  234 1    
   223  112  113 2    
   224  112  114 am   BACKBONE|DICT|INTERRES
   225  114  115 1    
   226  114  235 1    
   227  115  116 1    
   228  115  117 1    
   229  115  236 1    
   230  116  237 1    
   231  116  238 1    
   232  116  239 1    
   233  117  118 2    
   234  117  119 am   BACKBONE|DICT|INTERRES
   235  119  120 1    
   236  119  240 1    
   237  120  121 1    
   238  120  124 1    
   239  120  241 1    
   240  121  122 am   BACKBONE|DICT|INTERRES
   241  121  123 2    
   242  122  242 1    
   243  122  243 1    
   244  124  125 1    
   245  124  244 1    
   246  124  245 1    
   247  125  126 1    
   248  126  246 1    
   249  126  247 1    
@<TRIPOS>SUBSTRUCTURE
     1 UNK         1 GROUP             0       ****    0 ROOT    
