@<TRIPOS>MOLECULE
3R540
247   249    1
SMALL
USER_CHARGES


@<TRIPOS>ATOM
      1 CA          7.5024  -14.6784  -46.4626 C.3       0 UNK        -0.1800 
      2 C           6.1194  -14.1284  -46.7780 C.2       0 UNK         0.5000 
      3 O           5.3320  -13.8878  -45.8637 O.2       0 UNK        -0.5000 
      4 N           5.8262  -13.9004  -48.0662 N.am      1 UNK        -0.5000 
      5 CA          4.5278  -13.4255  -48.5715 C.3       1 UNK         0.1400 
      6 C6          4.3881  -13.6529  -50.1009 C.3       23 UNK        -0.0398 
      7 S7          2.7037  -14.1842  -50.5589 S.3       23 UNK        -0.2404 
      8 C8          2.9033  -15.9964  -50.4572 C.3       23 UNK        -0.0205 
      9 C9          1.6103  -16.8153  -50.4659 C.ar      23 UNK        -0.0193 
     10 C10         0.3423  -16.2529  -50.2613 C.ar      23 UNK        -0.1150 
     11 C11        -0.8049  -17.0518  -50.2841 C.ar      23 UNK        -0.0193 
     12 C12        -0.6853  -18.4284  -50.4903 C.ar      23 UNK        -0.1150 
     13 C13         0.5717  -19.0064  -50.6783 C.ar      23 UNK        -0.0193 
     14 C14         1.7098  -18.1957  -50.6647 C.ar      23 UNK        -0.1150 
     15 C15         0.7092  -20.5022  -50.9119 C.3       23 UNK        -0.0205 
     16 S16         0.9670  -21.3951  -49.3499 S.3       23 UNK        -0.2404 
     17 C17        -0.7528  -21.6784  -48.8177 C.3       23 UNK        -0.0398 
     18 CA         -0.8080  -22.6849  -47.6471 C.3       11 UNK         0.1400 
     19 N          -0.3616  -22.0950  -46.3814 N.am      11 UNK        -0.5000 
     20 C          -0.0290  -22.8052  -45.2959 C.2       10 UNK         0.5000 
     21 O          -0.0780  -24.0334  -45.2485 O.2       10 UNK        -0.5000 
     22 CA          0.3799  -22.0187  -44.0388 C.3       10 UNK         0.1400 
     23 CB          1.7978  -21.4451  -44.1796 C.3       10 UNK        -0.1800 
     24 N          -0.5634  -20.9470  -43.7253 N.am      10 UNK        -0.5000 
     25 C          -1.8417  -21.1428  -43.3729 C.2       9 UNK         0.5000 
     26 O          -2.3445  -22.2564  -43.2165 O.2       9 UNK        -0.5000 
     27 CA         -2.7176  -19.8852  -43.2125 C.3       9 UNK         0.1400 
     28 CB         -2.5219  -19.2522  -41.8270 C.3       9 UNK        -0.1800 
     29 N          -2.4759  -18.8844  -44.2553 N.am      9 UNK        -0.5000 
     30 C          -2.6956  -19.0960  -45.5613 C.2       8 UNK         0.5000 
     31 O          -3.1529  -20.1431  -46.0101 O.2       8 UNK        -0.5000 
     32 CA         -2.2972  -17.9797  -46.5400 C.3       8 UNK         0.1400 
     33 CB         -3.3632  -16.8742  -46.5601 C.3       8 UNK        -0.1800 
     34 N          -0.9837  -17.4133  -46.2395 N.am      8 UNK        -0.5000 
     35 C           0.1638  -18.1076  -46.2596 C.2       7 UNK         0.5000 
     36 O           0.2384  -19.2916  -46.5852 O.2       7 UNK        -0.5000 
     37 CA          1.4265  -17.3829  -45.7585 C.3       7 UNK         0.1400 
     38 CB          2.0056  -16.4595  -46.8371 C.3       7 UNK        -0.1800 
     39 N           1.1786  -16.6206  -44.5362 N.am      7 UNK        -0.5000 
     40 C           0.8143  -17.1637  -43.3662 C.2       6 UNK         0.5000 
     41 O           0.7080  -18.3748  -43.1755 O.2       6 UNK        -0.5000 
     42 CA          0.4586  -16.1856  -42.2354 C.3       6 UNK         0.1400 
     43 CB          1.7213  -15.7032  -41.5058 C.3       6 UNK        -0.1800 
     44 N          -0.2963  -15.0377  -42.7379 N.am      6 UNK        -0.5000 
     45 C          -1.5704  -15.0995  -43.1498 C.2       5 UNK         0.5000 
     46 O          -2.2513  -16.1243  -43.1093 O.2       5 UNK        -0.5000 
     47 CA         -2.1729  -13.8095  -43.7367 C.3       5 UNK         0.1400 
     48 CB         -2.6880  -12.8934  -42.6167 C.3       5 UNK        -0.1800 
     49 N          -1.2247  -13.0701  -44.5718 N.am      5 UNK        -0.5000 
     50 C          -0.7602  -13.5070  -45.7507 C.2       4 UNK         0.5000 
     51 O          -1.1035  -14.5676  -46.2682 O.2       4 UNK        -0.5000 
     52 CA          0.2947  -12.6354  -46.4540 C.3       4 UNK         0.1400 
     53 CB         -0.3877  -11.5740  -47.3292 C.3       4 UNK        -0.1800 
     54 N           1.2440  -11.9812  -45.5486 N.am      4 UNK        -0.5000 
     55 C           2.0289  -12.6041  -44.6585 C.2       3 UNK         0.5000 
     56 O           1.9586  -13.8093  -44.4138 O.2       3 UNK        -0.5000 
     57 CA          3.0951  -11.7292  -43.9765 C.3       3 UNK         0.1400 
     58 CB          3.8591  -12.4753  -42.8682 C.3       3 UNK        -0.1800 
     59 N           4.0422  -11.2997  -45.0002 N.am      3 UNK        -0.5000 
     60 C           4.0103  -10.1230  -45.6420 C.2       2 UNK         0.5000 
     61 O           3.2610   -9.1968  -45.3312 O.2       2 UNK        -0.5000 
     62 CA          4.9266   -9.9772  -46.8759 C.3       2 UNK         0.1400 
     63 CB          6.2855   -9.3849  -46.4739 C.3       2 UNK        -0.1800 
     64 N           5.1427  -11.2505  -47.5671 N.am      2 UNK        -0.5000 
     65 C           4.1808  -11.9733  -48.1615 C.2       1 UNK         0.5000 
     66 O           3.0429  -11.5454  -48.3518 O.2       1 UNK        -0.5000 
     67 C          -2.1863  -23.3703  -47.5381 C.2       11 UNK         0.5000 
     68 O          -2.4091  -24.3663  -48.2246 O.2       11 UNK        -0.5000 
     69 N          -3.0709  -22.8838  -46.6578 N.am      12 UNK        -0.5000 
     70 CA         -4.3428  -23.5319  -46.3331 C.3       12 UNK         0.1400 
     71 CB         -5.2065  -22.5955  -45.4764 C.3       12 UNK        -0.1800 
     72 C          -4.1564  -24.8965  -45.6455 C.2       12 UNK         0.5000 
     73 O          -4.9252  -25.8192  -45.9172 O.2       12 UNK        -0.5000 
     74 N          -3.1316  -25.0048  -44.7896 N.am      13 UNK        -0.5000 
     75 CA         -2.7509  -26.2441  -44.1171 C.3       13 UNK         0.1400 
     76 CB         -1.9334  -25.9113  -42.8589 C.3       13 UNK        -0.1800 
     77 C          -1.9738  -27.1950  -45.0461 C.2       13 UNK         0.5000 
     78 O          -2.2768  -28.3883  -45.0791 O.2       13 UNK        -0.5000 
     79 N          -0.9785  -26.6582  -45.7662 N.am      14 UNK        -0.5000 
     80 CA         -0.0730  -27.4195  -46.6288 C.3       14 UNK         0.1400 
     81 CB          1.1487  -26.5548  -46.9781 C.3       14 UNK        -0.1800 
     82 C          -0.7446  -27.9469  -47.9086 C.2       14 UNK         0.5000 
     83 O          -0.5385  -29.1097  -48.2555 O.2       14 UNK        -0.5000 
     84 N          -1.5257  -27.0770  -48.5658 N.am      15 UNK        -0.5000 
     85 CA         -2.2649  -27.2653  -49.8160 C.3       15 UNK         0.1400 
     86 CB         -3.5384  -28.0883  -49.5404 C.3       15 UNK        -0.1800 
     87 C          -1.4207  -27.8585  -50.9744 C.2       15 UNK         0.5000 
     88 O          -1.4666  -29.0709  -51.1795 O.2       15 UNK        -0.5000 
     89 N          -0.6530  -27.0799  -51.7588 N.am      16 UNK        -0.5000 
     90 CA         -0.4792  -25.6196  -51.8400 C.3       16 UNK         0.1400 
     91 CB          0.2120  -25.0495  -50.5891 C.3       16 UNK        -0.1800 
     92 C          -1.7546  -24.8540  -52.2540 C.2       16 UNK         0.5000 
     93 O          -1.9681  -23.7188  -51.8235 O.2       16 UNK        -0.5000 
     94 N          -2.6043  -25.5201  -53.0537 N.am      17 UNK        -0.5000 
     95 CA         -3.8652  -25.0335  -53.6398 C.3       17 UNK         0.1400 
     96 CB         -3.5749  -23.9278  -54.6765 C.3       17 UNK        -0.1800 
     97 C          -4.9246  -24.5820  -52.6095 C.2       17 UNK         0.5000 
     98 O          -5.8444  -23.8447  -52.9630 O.2       17 UNK        -0.5000 
     99 N          -4.7472  -24.9836  -51.3419 N.am      18 UNK        -0.5000 
    100 CA        -5.5004  -24.5675  -50.1527 C.3       18 UNK         0.1400 
    101 CB        -6.9109  -25.1894  -50.1712 C.3       18 UNK        -0.1800 
    102 C         -5.5297  -23.0341  -49.9445 C.2       18 UNK         0.5000 
    103 O         -6.4700  -22.5218  -49.3368 O.2       18 UNK        -0.5000 
    104 N         -4.5147  -22.3327  -50.4788 N.am      19 UNK        -0.5000 
    105 CA        -4.3839  -20.8727  -50.5594 C.3       19 UNK         0.1400 
    106 CB        -4.2593  -20.2568  -49.1521 C.3       19 UNK        -0.1800 
    107 C         -5.4869  -20.1759  -51.3909 C.2       19 UNK         0.5000 
    108 O         -5.6415  -18.9584  -51.2791 O.2       19 UNK        -0.5000 
    109 N         -6.2236  -20.9306  -52.2244 N.am      20 UNK        -0.5000 
    110 CA        -7.3907  -20.4568  -52.9793 C.3       20 UNK         0.1400 
    111 CB        -8.0671  -21.6459  -53.6765 C.3       20 UNK        -0.1800 
    112 C         -7.0790  -19.3444  -53.9972 C.2       20 UNK         0.5000 
    113 O         -7.9518  -18.5241  -54.2854 O.2       20 UNK        -0.5000 
    114 N         -5.8291  -19.3012  -54.4798 N.am      21 UNK        -0.5000 
    115 CA        -5.2900  -18.2567  -55.3540 C.3       21 UNK         0.1400 
    116 CB        -3.8577  -18.6408  -55.7561 C.3       21 UNK        -0.1800 
    117 C         -5.3133  -16.8447  -54.7298 C.2       21 UNK         0.5000 
    118 O         -5.3482  -15.8614  -55.4709 O.2       21 UNK        -0.5000 
    119 N         -5.3134  -16.7706  -53.3926 N.am      22 UNK        -0.5000 
    120 CA        -5.4398  -15.5291  -52.6139 C.3       22 UNK         0.1400 
    121 C         -6.9154  -15.1449  -52.2939 C.2       22 UNK         0.5000 
    122 N         -7.9210  -15.8973  -52.7285 N.am      22 UNK        -0.7600 
    123 O         -7.1588  -14.1281  -51.6497 O.2       22 UNK        -0.5000 
    124 C124       -4.5698  -15.5698  -51.3304 C.3       23 UNK        -0.0398 
    125 S125       -2.8062  -15.8382  -51.7136 S.3       23 UNK        -0.2404 
    126 C126       -2.1773  -16.4246  -50.1140 C.3       23 UNK        -0.0205 
    127 H127        8.0954  -14.8277  -47.3651 H         1 UNK         0.0600 
    128 H128        7.4154  -15.6363  -45.9499 H         1 UNK         0.0600 
    129 H129        8.0401  -13.9896  -45.8111 H         1 UNK         0.0600 
    130 H130        6.5275  -14.0915  -48.7681 H         1 UNK         0.3000 
    131 H131        3.7838  -14.0481  -48.0689 H         1 UNK         0.0600 
    132 H132        4.6460  -12.7562  -50.6676 H         1 UNK         0.0800 
    133 H133        5.0835  -14.4193  -50.4463 H         1 UNK         0.0800 
    134 H134        3.5288  -16.3122  -51.2937 H         1 UNK         0.0800 
    135 H135        3.4580  -16.2396  -49.5507 H         1 UNK         0.0800 
    136 H136        0.2303  -15.1917  -50.0955 H         1 UNK         0.1150 
    137 H137       -1.5702  -19.0476  -50.5127 H         1 UNK         0.1150 
    138 H138        2.6823  -18.6454  -50.8099 H         1 UNK         0.1150 
    139 H139       -0.1642  -20.8946  -51.4354 H         1 UNK         0.0800 
    140 H140        1.5612  -20.6933  -51.5660 H         1 UNK         0.0800 
    141 H141       -1.3122  -22.0503  -49.6784 H         1 UNK         0.0800 
    142 H142       -1.2000  -20.7248  -48.5350 H         1 UNK         0.0800 
    143 H143       -0.1081  -23.4898  -47.8784 H         1 UNK         0.0600 
    144 H144       -0.2563  -21.0823  -46.3648 H         1 UNK         0.3000 
    145 H145        0.3820  -22.7163  -43.1986 H         1 UNK         0.0600 
    146 H146        2.1143  -20.9496  -43.2617 H         1 UNK         0.0600 
    147 H147        2.5191  -22.2359  -44.3891 H         1 UNK         0.0600 
    148 H148        1.8634  -20.7184  -44.9893 H         1 UNK         0.0600 
    149 H149       -0.2119  -19.9957  -43.7854 H         1 UNK         0.3000 
    150 H150       -3.7602  -20.1992  -43.2941 H         1 UNK         0.0600 
    151 H151       -2.7272  -19.9744  -41.0360 H         1 UNK         0.0600 
    152 H152       -3.1965  -18.4086  -41.6805 H         1 UNK         0.0600 
    153 H153       -1.5025  -18.8932  -41.6870 H         1 UNK         0.0600 
    154 H154       -2.1362  -17.9780  -43.9513 H         1 UNK         0.3000 
    155 H155       -2.2414  -18.4178  -47.5382 H         1 UNK         0.0600 
    156 H156       -3.4597  -16.3896  -45.5884 H         1 UNK         0.0600 
    157 H157       -3.1249  -16.1035  -47.2914 H         1 UNK         0.0600 
    158 H158       -4.3403  -17.2809  -46.8240 H         1 UNK         0.0600 
    159 H159       -0.9582  -16.4211  -46.0186 H         1 UNK         0.3000 
    160 H160        2.1767  -18.1418  -45.5268 H         1 UNK         0.0600 
    161 H161        2.8951  -15.9384  -46.4817 H         1 UNK         0.0600 
    162 H162        1.2840  -15.7114  -47.1652 H         1 UNK         0.0600 
    163 H163        2.2942  -17.0446  -47.7089 H         1 UNK         0.0600 
    164 H164        1.2914  -15.6119  -44.5884 H         1 UNK         0.3000 
    165 H165       -0.1652  -16.7172  -41.5137 H         1 UNK         0.0600 
    166 H166        1.4731  -15.0149  -40.6978 H         1 UNK         0.0600 
    167 H167        2.2573  -16.5440  -41.0640 H         1 UNK         0.0600 
    168 H168        2.4117  -15.1962  -42.1798 H         1 UNK         0.0600 
    169 H169        0.2224  -14.1831  -42.8820 H         1 UNK         0.3000 
    170 H170       -3.0229  -14.0948  -44.3602 H         1 UNK         0.0600 
    171 H171       -1.8789  -12.5503  -41.9708 H         1 UNK         0.0600 
    172 H172       -3.1880  -12.0149  -43.0248 H         1 UNK         0.0600 
    173 H173       -3.4112  -13.4151  -41.9883 H         1 UNK         0.0600 
    174 H174       -0.8866  -12.1881  -44.2164 H         1 UNK         0.3000 
    175 H175        0.8749  -13.2891  -47.1083 H         1 UNK         0.0600 
    176 H176        0.3428  -11.0167  -47.9158 H         1 UNK         0.0600 
    177 H177       -0.9531  -10.8596  -46.7296 H         1 UNK         0.0600 
    178 H178       -1.0814  -12.0358  -48.0332 H         1 UNK         0.0600 
    179 H179        1.3929  -10.9935  -45.7008 H         1 UNK         0.3000 
    180 H180        2.5932  -10.8716  -43.5242 H         1 UNK         0.0600 
    181 H181        4.3656  -13.3623  -43.2512 H         1 UNK         0.0600 
    182 H182        3.1811  -12.7974  -42.0772 H         1 UNK         0.0600 
    183 H183        4.6115  -11.8336  -42.4100 H         1 UNK         0.0600 
    184 H184        4.6409  -12.0359  -45.3618 H         1 UNK         0.3000 
    185 H185        4.4419   -9.2901  -47.5726 H         1 UNK         0.0600 
    186 H186        6.8246  -10.0413  -45.7896 H         1 UNK         0.0600 
    187 H187        6.9167   -9.2170  -47.3467 H         1 UNK         0.0600 
    188 H188        6.1592   -8.4229  -45.9753 H         1 UNK         0.0600 
    189 H189        6.0524  -11.6747  -47.4604 H         1 UNK         0.3000 
    190 H190       -2.8772  -22.0014  -46.1910 H         1 UNK         0.3000 
    191 H191       -4.8776  -23.7111  -47.2643 H         1 UNK         0.0600 
    192 H192       -5.4328  -21.6733  -46.0120 H         1 UNK         0.0600 
    193 H193       -6.1581  -23.0641  -45.2229 H         1 UNK         0.0600 
    194 H194       -4.7109  -22.3297  -44.5430 H         1 UNK         0.0600 
    195 H195       -2.5552  -24.1917  -44.6128 H         1 UNK         0.3000 
    196 H196       -3.6587  -26.7591  -43.7954 H         1 UNK         0.0600 
    197 H197       -1.6557  -26.8195  -42.3227 H         1 UNK         0.0600 
    198 H198       -2.5068  -25.2891  -42.1714 H         1 UNK         0.0600 
    199 H199       -1.0135  -25.3780  -43.0998 H         1 UNK         0.0600 
    200 H200       -0.7597  -25.6721  -45.6367 H         1 UNK         0.3000 
    201 H201        0.2819  -28.2828  -46.0618 H         1 UNK         0.0600 
    202 H202        1.6837  -26.2479  -46.0792 H         1 UNK         0.0600 
    203 H203        0.8639  -25.6531  -47.5199 H         1 UNK         0.0600 
    204 H204        1.8522  -27.1054  -47.6040 H         1 UNK         0.0600 
    205 H205       -1.6361  -26.1498  -48.1668 H         1 UNK         0.3000 
    206 H206       -2.5986  -26.2751  -50.1098 H         1 UNK         0.0600 
    207 H207       -4.1700  -27.5963  -48.8001 H         1 UNK         0.0600 
    208 H208       -4.1329  -28.2083  -50.4470 H         1 UNK         0.0600 
    209 H209       -3.3037  -29.0854  -49.1659 H         1 UNK         0.0600 
    210 H210       -0.1251  -27.5729  -52.4650 H         1 UNK         0.3000 
    211 H211        0.2156  -25.4687  -52.6673 H         1 UNK         0.0600 
    212 H212       -0.4637  -24.9791  -49.7437 H         1 UNK         0.0600 
    213 H213        0.5821  -24.0428  -50.7835 H         1 UNK         0.0600 
    214 H214        1.0666  -25.6567  -50.2912 H         1 UNK         0.0600 
    215 H215       -2.3375  -26.4547  -53.3326 H         1 UNK         0.3000 
    216 H216       -4.3045  -25.8795  -54.1701 H         1 UNK         0.0600 
    217 H217       -4.4767  -23.6547  -55.2259 H         1 UNK         0.0600 
    218 H218       -2.8401  -24.2587  -55.4104 H         1 UNK         0.0600 
    219 H219       -3.1931  -23.0216  -54.2050 H         1 UNK         0.0600 
    220 H220       -3.9422  -25.5613  -51.1638 H         1 UNK         0.3000 
    221 H221       -4.9674  -24.9816  -49.2961 H         1 UNK         0.0600 
    222 H222       -7.5234  -24.7755  -50.9729 H         1 UNK         0.0600 
    223 H223       -6.8629  -26.2696  -50.3084 H         1 UNK         0.0600 
    224 H224       -7.4331  -25.0070  -49.2313 H         1 UNK         0.0600 
    225 H225       -3.7838  -22.8562  -50.9491 H         1 UNK         0.3000 
    226 H226       -3.4470  -20.6876  -51.0863 H         1 UNK         0.0600 
    227 H227       -3.5126  -20.7781  -48.5593 H         1 UNK         0.0600 
    228 H228       -3.9626  -19.2100  -49.2044 H         1 UNK         0.0600 
    229 H229       -5.2005  -20.2984  -48.6036 H         1 UNK         0.0600 
    230 H230       -6.0269  -21.9241  -52.2917 H         1 UNK         0.3000 
    231 H231       -8.0967  -20.0427  -52.2567 H         1 UNK         0.0600 
    232 H232       -7.4080  -22.1063  -54.4135 H         1 UNK         0.0600 
    233 H233       -8.9729  -21.3317  -54.1967 H         1 UNK         0.0600 
    234 H234       -8.3548  -22.4136  -52.9577 H         1 UNK         0.0600 
    235 H235       -5.1840  -20.0159  -54.1776 H         1 UNK         0.3000 
    236 H236       -5.9059  -18.2268  -56.2550 H         1 UNK         0.0600 
    237 H237       -3.4311  -17.9018  -56.4357 H         1 UNK         0.0600 
    238 H238       -3.2007  -18.7053  -54.8876 H         1 UNK         0.0600 
    239 H239       -3.8347  -19.6028  -56.2685 H         1 UNK         0.0600 
    240 H240       -5.3133  -17.6258  -52.8481 H         1 UNK         0.3000 
    241 H241       -5.0612  -14.7047  -53.2209 H         1 UNK         0.0600 
    242 H242       -7.7567  -16.7331  -53.2772 H         1 UNK         0.3800 
    243 H243       -8.8670  -15.6235  -52.5152 H         1 UNK         0.3800 
    244 H244       -4.6514  -14.6341  -50.7746 H         1 UNK         0.0800 
    245 H245       -4.9213  -16.3590  -50.6637 H         1 UNK         0.0800 
    246 H246       -2.8694  -17.1505  -49.6875 H         1 UNK         0.0800 
    247 H247       -2.1260  -15.5888  -49.4146 H         1 UNK         0.0800 
@<TRIPOS>BOND
     1    1    2 1    
     2    1  127 1    
     3    1  128 1    
     4    1  129 1    
     5    2    3 2    
     6    2    4 am   BACKBONE|DICT|INTERRES
     7    4    5 1    
     8    4  130 1    
     9    5    6 1    
    10    5   65 1    
    11    5  131 1    
    12    6    7 1    
    13    6  132 1    
    14    6  133 1    
    15    7    8 1    
    16    8    9 1    
    17    8  134 1    
    18    8  135 1    
    19    9   10 ar   
    20    9   14 ar   
    21   10   11 ar   
    22   10  136 1    
    23   11   12 ar   
    24   11  126 1    
    25   12   13 ar   
    26   12  137 1    
    27   13   14 ar   
    28   13   15 1    
    29   14  138 1    
    30   15   16 1    
    31   15  139 1    
    32   15  140 1    
    33   16   17 1    
    34   17   18 1    
    35   17  141 1    
    36   17  142 1    
    37   18   19 1    
    38   18   67 1    
    39   18  143 1    
    40   19   20 am   BACKBONE|DICT|INTERRES
    41   19  144 1    
    42   20   21 2    
    43   20   22 1    
    44   22   23 1    
    45   22   24 1    
    46   22  145 1    
    47   23  146 1    
    48   23  147 1    
    49   23  148 1    
    50   24   25 am   BACKBONE|DICT|INTERRES
    51   24  149 1    
    52   25   26 2    
    53   25   27 1    
    54   27   28 1    
    55   27   29 1    
    56   27  150 1    
    57   28  151 1    
    58   28  152 1    
    59   28  153 1    
    60   29   30 am   BACKBONE|DICT|INTERRES
    61   29  154 1    
    62   30   31 2    
    63   30   32 1    
    64   32   33 1    
    65   32   34 1    
    66   32  155 1    
    67   33  156 1    
    68   33  157 1    
    69   33  158 1    
    70   34   35 am   BACKBONE|DICT|INTERRES
    71   34  159 1    
    72   35   36 2    
    73   35   37 1    
    74   37   38 1    
    75   37   39 1    
    76   37  160 1    
    77   38  161 1    
    78   38  162 1    
    79   38  163 1    
    80   39   40 am   BACKBONE|DICT|INTERRES
    81   39  164 1    
    82   40   41 2    
    83   40   42 1    
    84   42   43 1    
    85   42   44 1    
    86   42  165 1    
    87   43  166 1    
    88   43  167 1    
    89   43  168 1    
    90   44   45 am   BACKBONE|DICT|INTERRES
    91   44  169 1    
    92   45   46 2    
    93   45   47 1    
    94   47   48 1    
    95   47   49 1    
    96   47  170 1    
    97   48  171 1    
    98   48  172 1    
    99   48  173 1    
   100   49   50 am   BACKBONE|DICT|INTERRES
   101   49  174 1    
   102   50   51 2    
   103   50   52 1    
   104   52   53 1    
   105   52   54 1    
   106   52  175 1    
   107   53  176 1    
   108   53  177 1    
   109   53  178 1    
   110   54   55 am   BACKBONE|DICT|INTERRES
   111   54  179 1    
   112   55   56 2    
   113   55   57 1    
   114   57   58 1    
   115   57   59 1    
   116   57  180 1    
   117   58  181 1    
   118   58  182 1    
   119   58  183 1    
   120   59   60 am   BACKBONE|DICT|INTERRES
   121   59  184 1    
   122   60   61 2    
   123   60   62 1    
   124   62   63 1    
   125   62   64 1    
   126   62  185 1    
   127   63  186 1    
   128   63  187 1    
   129   63  188 1    
   130   64   65 am   BACKBONE|DICT|INTERRES
   131   64  189 1    
   132   65   66 2    
   133   67   68 2    
   134   67   69 am   BACKBONE|DICT|INTERRES
   135   69   70 1    
   136   69  190 1    
   137   70   71 1    
   138   70   72 1    
   139   70  191 1    
   140   71  192 1    
   141   71  193 1    
   142   71  194 1    
   143   72   73 2    
   144   72   74 am   BACKBONE|DICT|INTERRES
   145   74   75 1    
   146   74  195 1    
   147   75   76 1    
   148   75   77 1    
   149   75  196 1    
   150   76  197 1    
   151   76  198 1    
   152   76  199 1    
   153   77   78 2    
   154   77   79 am   BACKBONE|DICT|INTERRES
   155   79   80 1    
   156   79  200 1    
   157   80   81 1    
   158   80   82 1    
   159   80  201 1    
   160   81  202 1    
   161   81  203 1    
   162   81  204 1    
   163   82   83 2    
   164   82   84 am   BACKBONE|DICT|INTERRES
   165   84   85 1    
   166   84  205 1    
   167   85   86 1    
   168   85   87 1    
   169   85  206 1    
   170   86  207 1    
   171   86  208 1    
   172   86  209 1    
   173   87   88 2    
   174   87   89 am   BACKBONE|DICT|INTERRES
   175   89   90 1    
   176   89  210 1    
   177   90   91 1    
   178   90   92 1    
   179   90  211 1    
   180   91  212 1    
   181   91  213 1    
   182   91  214 1    
   183   92   93 2    
   184   92   94 am   BACKBONE|DICT|INTERRES
   185   94   95 1    
   186   94  215 1    
   187   95   96 1    
   188   95   97 1    
   189   95  216 1    
   190   96  217 1    
   191   96  218 1    
   192   96  219 1    
   193   97   98 2    
   194   97   99 am   BACKBONE|DICT|INTERRES
   195   99  100 1    
   196   99  220 1    
   197  100  101 1    
   198  100  102 1    
   199  100  221 1    
   200  101  222 1    
   201  101  223 1    
   202  101  224 1    
   203  102  103 2    
   204  102  104 am   BACKBONE|DICT|INTERRES
   205  104  105 1    
   206  104  225 1    
   207  105  106 1    
   208  105  107 1    
   209  105  226 1    
   210  106  227 1    
   211  106  228 1    
   212  106  229 1    
   213  107  108 2    
   214  107  109 am   BACKBONE|DICT|INTERRES
   215  109  110 1    
   216  109  230 1    
   217  110  111 1    
   218  110  112 1    
   219  110  231 1    
   220  111  232 1    
   221  111  233 1    
   222  111  234 1    
   223  112  113 2    
   224  112  114 am   BACKBONE|DICT|INTERRES
   225  114  115 1    
   226  114  235 1    
   227  115  116 1    
   228  115  117 1    
   229  115  236 1    
   230  116  237 1    
   231  116  238 1    
   232  116  239 1    
   233  117  118 2    
   234  117  119 am   BACKBONE|DICT|INTERRES
   235  119  120 1    
   236  119  240 1    
   237  120  121 1    
   238  120  124 1    
   239  120  241 1    
   240  121  122 am   BACKBONE|DICT|INTERRES
   241  121  123 2    
   242  122  242 1    
   243  122  243 1    
   244  124  125 1    
   245  124  244 1    
   246  124  245 1    
   247  125  126 1    
   248  126  246 1    
   249  126  247 1    
@<TRIPOS>SUBSTRUCTURE
     1 UNK         1 GROUP             0       ****    0 ROOT    
