@<TRIPOS>MOLECULE
3R540
247   249    1
SMALL
USER_CHARGES


@<TRIPOS>ATOM
      1 CA          6.4896  -14.8474  -46.1041 C.3       0 UNK        -0.1800 
      2 C           6.9648  -14.5025  -47.5151 C.2       0 UNK         0.5000 
      3 O           8.1679  -14.5258  -47.7671 O.2       0 UNK        -0.5000 
      4 N           6.0752  -14.1959  -48.4703 N.am      1 UNK        -0.5000 
      5 CA          4.6289  -14.0205  -48.3135 C.3       1 UNK         0.1400 
      6 C6          3.9088  -14.1206  -49.6894 C.3       23 UNK        -0.0398 
      7 S7          2.1439  -13.6379  -49.7118 S.3       23 UNK        -0.2404 
      8 C8          1.3483  -15.0771  -48.9416 C.3       23 UNK        -0.0205 
      9 C9          0.9354  -16.1296  -49.9561 C.ar      23 UNK        -0.0193 
     10 C10        -0.2745  -15.9996  -50.6441 C.ar      23 UNK        -0.1150 
     11 C11        -0.6983  -16.9948  -51.5285 C.ar      23 UNK        -0.0193 
     12 C12         0.1050  -18.1199  -51.7325 C.ar      23 UNK        -0.1150 
     13 C13         1.3165  -18.2622  -51.0503 C.ar      23 UNK        -0.0193 
     14 C14         1.7278  -17.2621  -50.1637 C.ar      23 UNK        -0.1150 
     15 C15         2.1664  -19.5107  -51.2489 C.3       23 UNK        -0.0205 
     16 S16         1.2990  -21.0323  -50.7397 S.3       23 UNK        -0.2404 
     17 C17         0.7931  -20.5972  -49.0413 C.3       23 UNK        -0.0398 
     18 CA          0.4477  -21.8140  -48.1526 C.3       11 UNK         0.1400 
     19 N           0.3226  -21.4228  -46.7476 N.am      11 UNK        -0.5000 
     20 C           0.1877  -22.2668  -45.7155 C.2       10 UNK         0.5000 
     21 O           0.1927  -23.4928  -45.8259 O.2       10 UNK        -0.5000 
     22 CA         -0.0421  -21.6292  -44.3324 C.3       10 UNK         0.1400 
     23 CB          1.2719  -21.0876  -43.7505 C.3       10 UNK        -0.1800 
     24 N          -1.0407  -20.5595  -44.3689 N.am      10 UNK        -0.5000 
     25 C          -2.3275  -20.7373  -44.7023 C.2       9 UNK         0.5000 
     26 O          -2.8218  -21.8305  -44.9745 O.2       9 UNK        -0.5000 
     27 CA         -3.1969  -19.4738  -44.7990 C.3       9 UNK         0.1400 
     28 CB         -3.6776  -19.0252  -43.4107 C.3       9 UNK        -0.1800 
     29 N          -2.4919  -18.3760  -45.4586 N.am      9 UNK        -0.5000 
     30 C          -2.1565  -18.3652  -46.7566 C.2       8 UNK         0.5000 
     31 O          -2.4198  -19.2738  -47.5429 O.2       8 UNK        -0.5000 
     32 CA         -1.3504  -17.1508  -47.2449 C.3       8 UNK         0.1400 
     33 CB         -2.2814  -15.9527  -47.4906 C.3       8 UNK        -0.1800 
     34 N          -0.2920  -16.7725  -46.3062 N.am      8 UNK        -0.5000 
     35 C           0.7560  -17.5511  -45.9991 C.2       7 UNK         0.5000 
     36 O           0.9695  -18.6451  -46.5165 O.2       7 UNK        -0.5000 
     37 CA          1.6995  -17.0508  -44.8934 C.3       7 UNK         0.1400 
     38 CB          2.8605  -16.2435  -45.4848 C.3       7 UNK        -0.1800 
     39 N           1.0211  -16.2502  -43.8756 N.am      7 UNK        -0.5000 
     40 C           0.1037  -16.7324  -43.0232 C.2       6 UNK         0.5000 
     41 O          -0.3391  -17.8817  -43.0870 O.2       6 UNK        -0.5000 
     42 CA         -0.3990  -15.7625  -41.9326 C.3       6 UNK         0.1400 
     43 CB         -0.9807  -16.4896  -40.7031 C.3       6 UNK        -0.1800 
     44 N           0.6184  -14.7807  -41.5377 N.am      6 UNK        -0.5000 
     45 C           1.8215  -15.0229  -40.9890 C.2       5 UNK         0.5000 
     46 O           2.2026  -16.1399  -40.6378 O.2       5 UNK        -0.5000 
     47 CA          2.7864  -13.8281  -40.8437 C.3       5 UNK         0.1400 
     48 CB          3.9994  -14.0072  -41.7723 C.3       5 UNK        -0.1800 
     49 N           2.1504  -12.5477  -41.1552 N.am      5 UNK        -0.5000 
     50 C           1.4347  -11.8163  -40.2903 C.2       4 UNK         0.5000 
     51 O           1.2933  -12.1053  -39.1019 O.2       4 UNK        -0.5000 
     52 CA          0.7378  -10.5632  -40.8572 C.3       4 UNK         0.1400 
     53 CB          1.6026   -9.3157  -40.6211 C.3       4 UNK        -0.1800 
     54 N           0.4292  -10.6651  -42.2870 N.am      4 UNK        -0.5000 
     55 C          -0.4507  -11.5213  -42.8272 C.2       3 UNK         0.5000 
     56 O          -1.1081  -12.3302  -42.1735 O.2       3 UNK        -0.5000 
     57 CA         -0.5677  -11.5115  -44.3617 C.3       3 UNK         0.1400 
     58 CB         -1.5927  -10.4645  -44.8218 C.3       3 UNK        -0.1800 
     59 N           0.7172  -11.2591  -45.0186 N.am      3 UNK        -0.5000 
     60 C           1.7384  -12.1237  -45.0272 C.2       2 UNK         0.5000 
     61 O           1.7032  -13.2359  -44.4900 O.2       2 UNK        -0.5000 
     62 CA          3.0214  -11.6639  -45.7287 C.3       2 UNK         0.1400 
     63 CB          4.0739  -11.2056  -44.7041 C.3       2 UNK        -0.1800 
     64 N           3.5240  -12.7843  -46.5098 N.am      2 UNK        -0.5000 
     65 C           4.3408  -12.6992  -47.5652 C.2       1 UNK         0.5000 
     66 O           4.8492  -11.6483  -47.9622 O.2       1 UNK        -0.5000 
     67 C          -0.8074  -22.5629  -48.6471 C.2       11 UNK         0.5000 
     68 O          -0.6725  -23.6276  -49.2496 O.2       11 UNK        -0.5000 
     69 N          -2.0008  -22.0312  -48.3391 N.am      12 UNK        -0.5000 
     70 CA         -3.2853  -22.6561  -48.6557 C.3       12 UNK         0.1400 
     71 CB         -4.4395  -21.7206  -48.2686 C.3       12 UNK        -0.1800 
     72 C          -3.4559  -24.0309  -47.9906 C.2       12 UNK         0.5000 
     73 O          -3.8617  -24.9755  -48.6656 O.2       12 UNK        -0.5000 
     74 N          -3.1098  -24.1317  -46.6991 N.am      13 UNK        -0.5000 
     75 CA         -3.1259  -25.3737  -45.9249 C.3       13 UNK         0.1400 
     76 CB         -2.8226  -25.0738  -44.4497 C.3       13 UNK        -0.1800 
     77 C          -2.1591  -26.4342  -46.4807 C.2       13 UNK         0.5000 
     78 O          -2.5600  -27.5872  -46.6447 O.2       13 UNK        -0.5000 
     79 N          -0.9286  -26.0185  -46.8162 N.am      14 UNK        -0.5000 
     80 CA          0.0904  -26.8565  -47.4575 C.3       14 UNK         0.1400 
     81 CB          1.4150  -26.0827  -47.5347 C.3       14 UNK        -0.1800 
     82 C          -0.3289  -27.3595  -48.8536 C.2       14 UNK         0.5000 
     83 O           0.0228  -28.4774  -49.2306 O.2       14 UNK        -0.5000 
     84 N          -1.1148  -26.5461  -49.5691 N.am      15 UNK        -0.5000 
     85 CA         -1.7350  -26.8582  -50.8562 C.3       15 UNK         0.1400 
     86 CB         -1.8999  -25.5482  -51.6441 C.3       15 UNK        -0.1800 
     87 C          -3.0697  -27.6311  -50.7281 C.2       15 UNK         0.5000 
     88 O          -3.8040  -27.7209  -51.7122 O.2       15 UNK        -0.5000 
     89 N          -3.3572  -28.1869  -49.5403 N.am      16 UNK        -0.5000 
     90 CA         -4.5214  -29.0084  -49.1909 C.3       16 UNK         0.1400 
     91 CB         -4.5824  -30.2945  -50.0429 C.3       16 UNK        -0.1800 
     92 C          -5.8396  -28.2089  -49.1839 C.2       16 UNK         0.5000 
     93 O          -6.8397  -28.6446  -49.7573 O.2       16 UNK        -0.5000 
     94 N          -5.8031  -27.0538  -48.5065 N.am      17 UNK        -0.5000 
     95 CA         -6.8915  -26.0925  -48.2973 C.3       17 UNK         0.1400 
     96 CB         -8.0746  -26.7321  -47.5404 C.3       17 UNK        -0.1800 
     97 C          -7.3119  -25.3632  -49.5894 C.2       17 UNK         0.5000 
     98 O          -8.4846  -25.0216  -49.7561 O.2       17 UNK        -0.5000 
     99 N          -6.3399  -25.1120  -50.4749 N.am      18 UNK        -0.5000 
    100 CA        -6.5145  -24.3509  -51.7085 C.3       18 UNK         0.1400 
    101 CB        -5.5147  -24.8531  -52.7619 C.3       18 UNK        -0.1800 
    102 C         -6.3497  -22.8514  -51.4102 C.2       18 UNK         0.5000 
    103 O         -5.2642  -22.2957  -51.5876 O.2       18 UNK        -0.5000 
    104 N         -7.4241  -22.2290  -50.9117 N.am      19 UNK        -0.5000 
    105 CA        -7.4920  -20.7971  -50.6250 C.3       19 UNK         0.1400 
    106 CB        -8.8166  -20.4870  -49.9120 C.3       19 UNK        -0.1800 
    107 C         -7.3478  -19.9550  -51.9069 C.2       19 UNK         0.5000 
    108 O         -8.0038  -20.2549  -52.9073 O.2       19 UNK        -0.5000 
    109 N         -6.4962  -18.9217  -51.8400 N.am      20 UNK        -0.5000 
    110 CA        -6.1769  -17.9704  -52.9123 C.3       20 UNK         0.1400 
    111 CB        -7.4034  -17.0987  -53.2549 C.3       20 UNK        -0.1800 
    112 C         -5.5358  -18.6208  -54.1595 C.2       20 UNK         0.5000 
    113 O         -5.7149  -18.1221  -55.2726 O.2       20 UNK        -0.5000 
    114 N         -4.7610  -19.6990  -53.9543 N.am      21 UNK        -0.5000 
    115 CA        -4.0535  -20.4546  -54.9995 C.3       21 UNK         0.1400 
    116 CB        -3.3539  -21.6643  -54.3598 C.3       21 UNK        -0.1800 
    117 C         -3.0406  -19.6282  -55.8212 C.2       21 UNK         0.5000 
    118 O         -2.7239  -20.0026  -56.9509 O.2       21 UNK        -0.5000 
    119 N         -2.5698  -18.5162  -55.2463 N.am      22 UNK        -0.5000 
    120 CA        -1.7442  -17.4944  -55.9025 C.3       22 UNK         0.1400 
    121 C         -2.5035  -16.5948  -56.9259 C.2       22 UNK         0.5000 
    122 N         -3.8291  -16.6380  -57.0102 N.am      22 UNK        -0.7600 
    123 O         -1.8720  -15.8513  -57.6719 O.2       22 UNK        -0.5000 
    124 C124       -0.9545  -16.6597  -54.8601 C.3       23 UNK        -0.0398 
    125 S125       -2.0049  -15.7578  -53.6603 S.3       23 UNK        -0.2404 
    126 C126       -2.0458  -16.8785  -52.2240 C.3       23 UNK        -0.0205 
    127 H127        5.7461  -15.6430  -46.1232 H         1 UNK         0.0600 
    128 H128        6.0667  -13.9751  -45.6066 H         1 UNK         0.0600 
    129 H129        7.3252  -15.1980  -45.4979 H         1 UNK         0.0600 
    130 H130        6.4333  -13.9552  -49.3833 H         1 UNK         0.3000 
    131 H131        4.2587  -14.8462  -47.7061 H         1 UNK         0.0600 
    132 H132        4.4130  -13.4777  -50.4129 H         1 UNK         0.0800 
    133 H133        3.9995  -15.1337  -50.0836 H         1 UNK         0.0800 
    134 H134        2.0066  -15.5171  -48.1954 H         1 UNK         0.0800 
    135 H135        0.4708  -14.7291  -48.3981 H         1 UNK         0.0800 
    136 H136       -0.8970  -15.1318  -50.4762 H         1 UNK         0.1150 
    137 H137       -0.2211  -18.9008  -52.4053 H         1 UNK         0.1150 
    138 H138        2.6550  -17.3740  -49.6197 H         1 UNK         0.1150 
    139 H139        2.4395  -19.5929  -52.3016 H         1 UNK         0.0800 
    140 H140        3.1023  -19.4355  -50.6931 H         1 UNK         0.0800 
    141 H141       -0.0431  -19.8966  -49.0835 H         1 UNK         0.0800 
    142 H142        1.6235  -20.0513  -48.5924 H         1 UNK         0.0800 
    143 H143        1.2846  -22.5135  -48.2074 H         1 UNK         0.0600 
    144 H144        0.3517  -20.4235  -46.5615 H         1 UNK         0.3000 
    145 H145       -0.4145  -22.4082  -43.6639 H         1 UNK         0.0600 
    146 H146        1.1188  -20.6607  -42.7590 H         1 UNK         0.0600 
    147 H147        2.0112  -21.8835  -43.6532 H         1 UNK         0.0600 
    148 H148        1.7053  -20.3142  -44.3842 H         1 UNK         0.0600 
    149 H149       -0.7278  -19.6266  -44.1212 H         1 UNK         0.3000 
    150 H150       -4.0768  -19.7186  -45.3977 H         1 UNK         0.0600 
    151 H151       -4.2434  -19.8190  -42.9214 H         1 UNK         0.0600 
    152 H152       -4.3320  -18.1563  -43.4812 H         1 UNK         0.0600 
    153 H153       -2.8456  -18.7666  -42.7555 H         1 UNK         0.0600 
    154 H154       -2.1833  -17.6172  -44.8697 H         1 UNK         0.3000 
    155 H155       -0.8833  -17.4282  -48.1912 H         1 UNK         0.0600 
    156 H156       -1.7424  -15.1015  -47.9033 H         1 UNK         0.0600 
    157 H157       -2.7692  -15.6242  -46.5722 H         1 UNK         0.0600 
    158 H158       -3.0651  -16.2115  -48.2039 H         1 UNK         0.0600 
    159 H159       -0.3966  -15.8941  -45.8208 H         1 UNK         0.3000 
    160 H160        2.1195  -17.9289  -44.3993 H         1 UNK         0.0600 
    161 H161        2.5019  -15.3291  -45.9516 H         1 UNK         0.0600 
    162 H162        3.3940  -16.8207  -46.2413 H         1 UNK         0.0600 
    163 H163        3.5808  -15.9678  -44.7142 H         1 UNK         0.0600 
    164 H164        1.3079  -15.2819  -43.7912 H         1 UNK         0.3000 
    165 H165       -1.2087  -15.1920  -42.3890 H         1 UNK         0.0600 
    166 H166       -0.2491  -17.1500  -40.2371 H         1 UNK         0.0600 
    167 H167       -1.3205  -15.7789  -39.9498 H         1 UNK         0.0600 
    168 H168       -1.8396  -17.1012  -40.9814 H         1 UNK         0.0600 
    169 H169        0.3871  -13.8210  -41.7621 H         1 UNK         0.3000 
    170 H170        3.1443  -13.8142  -39.8121 H         1 UNK         0.0600 
    171 H171        3.7001  -14.0782  -42.8184 H         1 UNK         0.0600 
    172 H172        4.6973  -13.1752  -41.6768 H         1 UNK         0.0600 
    173 H173        4.5476  -14.9181  -41.5285 H         1 UNK         0.0600 
    174 H174        2.1981  -12.2461  -42.1173 H         1 UNK         0.3000 
    175 H175       -0.2027  -10.4371  -40.3167 H         1 UNK         0.0600 
    176 H176        1.0884   -8.4113  -40.9470 H         1 UNK         0.0600 
    177 H177        1.8313   -9.1934  -39.5615 H         1 UNK         0.0600 
    178 H178        2.5509   -9.3756  -41.1568 H         1 UNK         0.0600 
    179 H179        0.9270  -10.0387  -42.9023 H         1 UNK         0.3000 
    180 H180       -0.9237  -12.4961  -44.6734 H         1 UNK         0.0600 
    181 H181       -1.2839   -9.4524  -44.5574 H         1 UNK         0.0600 
    182 H182       -2.5654  -10.6421  -44.3610 H         1 UNK         0.0600 
    183 H183       -1.7351  -10.5011  -45.9020 H         1 UNK         0.0600 
    184 H184        0.8183  -10.3690  -45.4853 H         1 UNK         0.3000 
    185 H185        2.7822  -10.8365  -46.4003 H         1 UNK         0.0600 
    186 H186        4.3764  -12.0204  -44.0462 H         1 UNK         0.0600 
    187 H187        4.9694  -10.8297  -45.1990 H         1 UNK         0.0600 
    188 H188        3.6884  -10.4004  -44.0776 H         1 UNK         0.0600 
    189 H189        3.1302  -13.6733  -46.2346 H         1 UNK         0.3000 
    190 H190       -2.0412  -21.1299  -47.8713 H         1 UNK         0.3000 
    191 H191       -3.3195  -22.8074  -49.7362 H         1 UNK         0.0600 
    192 H192       -4.3949  -20.7907  -48.8353 H         1 UNK         0.0600 
    193 H193       -5.4043  -22.1840  -48.4774 H         1 UNK         0.0600 
    194 H194       -4.4187  -21.4691  -47.2084 H         1 UNK         0.0600 
    195 H195       -2.8228  -23.2930  -46.2005 H         1 UNK         0.3000 
    196 H196       -4.1357  -25.7849  -45.9831 H         1 UNK         0.0600 
    197 H197       -2.8359  -25.9870  -43.8536 H         1 UNK         0.0600 
    198 H198       -3.5654  -24.3981  -44.0256 H         1 UNK         0.0600 
    199 H199       -1.8427  -24.6126  -44.3244 H         1 UNK         0.0600 
    200 H200       -0.6652  -25.0563  -46.6203 H         1 UNK         0.3000 
    201 H201        0.2444  -27.7330  -46.8250 H         1 UNK         0.0600 
    202 H202        1.7604  -25.7931  -46.5421 H         1 UNK         0.0600 
    203 H203        1.3166  -25.1757  -48.1317 H         1 UNK         0.0600 
    204 H204        2.1984  -26.6916  -47.9874 H         1 UNK         0.0600 
    205 H205       -1.3067  -25.6207  -49.1998 H         1 UNK         0.3000 
    206 H206       -1.0583  -27.4998  -51.4237 H         1 UNK         0.0600 
    207 H207       -0.9411  -25.0465  -51.7758 H         1 UNK         0.0600 
    208 H208       -2.3057  -25.7303  -52.6397 H         1 UNK         0.0600 
    209 H209       -2.5662  -24.8554  -51.1301 H         1 UNK         0.0600 
    210 H210       -2.7159  -28.0138  -48.7759 H         1 UNK         0.3000 
    211 H211       -4.3607  -29.3209  -48.1580 H         1 UNK         0.0600 
    212 H212       -4.8051  -30.0833  -51.0890 H         1 UNK         0.0600 
    213 H213       -5.3595  -30.9660  -49.6761 H         1 UNK         0.0600 
    214 H214       -3.6389  -30.8388  -50.0032 H         1 UNK         0.0600 
    215 H215       -4.8961  -26.7351  -48.1860 H         1 UNK         0.3000 
    216 H216       -6.4798  -25.3191  -47.6473 H         1 UNK         0.0600 
    217 H217       -7.7380  -27.2326  -46.6326 H         1 UNK         0.0600 
    218 H218       -8.6024  -27.4637  -48.1525 H         1 UNK         0.0600 
    219 H219       -8.8007  -25.9753  -47.2417 H         1 UNK         0.0600 
    220 H220       -5.3919  -25.3654  -50.2243 H         1 UNK         0.3000 
    221 H221       -7.5182  -24.5154  -52.1065 H         1 UNK         0.0600 
    222 H222       -4.4846  -24.6898  -52.4512 H         1 UNK         0.0600 
    223 H223       -5.6423  -25.9191  -52.9509 H         1 UNK         0.0600 
    224 H224       -5.6569  -24.3340  -53.7103 H         1 UNK         0.0600 
    225 H225       -8.2704  -22.7632  -50.7691 H         1 UNK         0.3000 
    226 H226       -6.6738  -20.5516  -49.9456 H         1 UNK         0.0600 
    227 H227       -8.9026  -21.0444  -48.9790 H         1 UNK         0.0600 
    228 H228       -8.8880  -19.4270  -49.6651 H         1 UNK         0.0600 
    229 H229       -9.6768  -20.7380  -50.5341 H         1 UNK         0.0600 
    230 H230       -6.0036  -18.7688  -50.9710 H         1 UNK         0.3000 
    231 H231       -5.4138  -17.3054  -52.5053 H         1 UNK         0.0600 
    232 H232       -7.1319  -16.2899  -53.9344 H         1 UNK         0.0600 
    233 H233       -7.8237  -16.6396  -52.3601 H         1 UNK         0.0600 
    234 H234       -8.1914  -17.6781  -53.7368 H         1 UNK         0.0600 
    235 H235       -4.6951  -20.0706  -53.0165 H         1 UNK         0.3000 
    236 H236       -4.8041  -20.8257  -55.7000 H         1 UNK         0.0600 
    237 H237       -2.7797  -22.2252  -55.0984 H         1 UNK         0.0600 
    238 H238       -2.6664  -21.3618  -53.5689 H         1 UNK         0.0600 
    239 H239       -4.0784  -22.3547  -53.9309 H         1 UNK         0.0600 
    240 H240       -2.9107  -18.2789  -54.3289 H         1 UNK         0.3000 
    241 H241       -1.0004  -18.0282  -56.4972 H         1 UNK         0.0600 
    242 H242       -4.2975  -16.0529  -57.6834 H         1 UNK         0.3800 
    243 H243       -4.3809  -17.2337  -56.4008 H         1 UNK         0.3800 
    244 H244       -0.2624  -17.3090  -54.3263 H         1 UNK         0.0800 
    245 H245       -0.3199  -15.9299  -55.3655 H         1 UNK         0.0800 
    246 H246       -2.7810  -16.5006  -51.5118 H         1 UNK         0.0800 
    247 H247       -2.4038  -17.8628  -52.5258 H         1 UNK         0.0800 
@<TRIPOS>BOND
     1    1    2 1    
     2    1  127 1    
     3    1  128 1    
     4    1  129 1    
     5    2    3 2    
     6    2    4 am   BACKBONE|DICT|INTERRES
     7    4    5 1    
     8    4  130 1    
     9    5    6 1    
    10    5   65 1    
    11    5  131 1    
    12    6    7 1    
    13    6  132 1    
    14    6  133 1    
    15    7    8 1    
    16    8    9 1    
    17    8  134 1    
    18    8  135 1    
    19    9   10 ar   
    20    9   14 ar   
    21   10   11 ar   
    22   10  136 1    
    23   11   12 ar   
    24   11  126 1    
    25   12   13 ar   
    26   12  137 1    
    27   13   14 ar   
    28   13   15 1    
    29   14  138 1    
    30   15   16 1    
    31   15  139 1    
    32   15  140 1    
    33   16   17 1    
    34   17   18 1    
    35   17  141 1    
    36   17  142 1    
    37   18   19 1    
    38   18   67 1    
    39   18  143 1    
    40   19   20 am   BACKBONE|DICT|INTERRES
    41   19  144 1    
    42   20   21 2    
    43   20   22 1    
    44   22   23 1    
    45   22   24 1    
    46   22  145 1    
    47   23  146 1    
    48   23  147 1    
    49   23  148 1    
    50   24   25 am   BACKBONE|DICT|INTERRES
    51   24  149 1    
    52   25   26 2    
    53   25   27 1    
    54   27   28 1    
    55   27   29 1    
    56   27  150 1    
    57   28  151 1    
    58   28  152 1    
    59   28  153 1    
    60   29   30 am   BACKBONE|DICT|INTERRES
    61   29  154 1    
    62   30   31 2    
    63   30   32 1    
    64   32   33 1    
    65   32   34 1    
    66   32  155 1    
    67   33  156 1    
    68   33  157 1    
    69   33  158 1    
    70   34   35 am   BACKBONE|DICT|INTERRES
    71   34  159 1    
    72   35   36 2    
    73   35   37 1    
    74   37   38 1    
    75   37   39 1    
    76   37  160 1    
    77   38  161 1    
    78   38  162 1    
    79   38  163 1    
    80   39   40 am   BACKBONE|DICT|INTERRES
    81   39  164 1    
    82   40   41 2    
    83   40   42 1    
    84   42   43 1    
    85   42   44 1    
    86   42  165 1    
    87   43  166 1    
    88   43  167 1    
    89   43  168 1    
    90   44   45 am   BACKBONE|DICT|INTERRES
    91   44  169 1    
    92   45   46 2    
    93   45   47 1    
    94   47   48 1    
    95   47   49 1    
    96   47  170 1    
    97   48  171 1    
    98   48  172 1    
    99   48  173 1    
   100   49   50 am   BACKBONE|DICT|INTERRES
   101   49  174 1    
   102   50   51 2    
   103   50   52 1    
   104   52   53 1    
   105   52   54 1    
   106   52  175 1    
   107   53  176 1    
   108   53  177 1    
   109   53  178 1    
   110   54   55 am   BACKBONE|DICT|INTERRES
   111   54  179 1    
   112   55   56 2    
   113   55   57 1    
   114   57   58 1    
   115   57   59 1    
   116   57  180 1    
   117   58  181 1    
   118   58  182 1    
   119   58  183 1    
   120   59   60 am   BACKBONE|DICT|INTERRES
   121   59  184 1    
   122   60   61 2    
   123   60   62 1    
   124   62   63 1    
   125   62   64 1    
   126   62  185 1    
   127   63  186 1    
   128   63  187 1    
   129   63  188 1    
   130   64   65 am   BACKBONE|DICT|INTERRES
   131   64  189 1    
   132   65   66 2    
   133   67   68 2    
   134   67   69 am   BACKBONE|DICT|INTERRES
   135   69   70 1    
   136   69  190 1    
   137   70   71 1    
   138   70   72 1    
   139   70  191 1    
   140   71  192 1    
   141   71  193 1    
   142   71  194 1    
   143   72   73 2    
   144   72   74 am   BACKBONE|DICT|INTERRES
   145   74   75 1    
   146   74  195 1    
   147   75   76 1    
   148   75   77 1    
   149   75  196 1    
   150   76  197 1    
   151   76  198 1    
   152   76  199 1    
   153   77   78 2    
   154   77   79 am   BACKBONE|DICT|INTERRES
   155   79   80 1    
   156   79  200 1    
   157   80   81 1    
   158   80   82 1    
   159   80  201 1    
   160   81  202 1    
   161   81  203 1    
   162   81  204 1    
   163   82   83 2    
   164   82   84 am   BACKBONE|DICT|INTERRES
   165   84   85 1    
   166   84  205 1    
   167   85   86 1    
   168   85   87 1    
   169   85  206 1    
   170   86  207 1    
   171   86  208 1    
   172   86  209 1    
   173   87   88 2    
   174   87   89 am   BACKBONE|DICT|INTERRES
   175   89   90 1    
   176   89  210 1    
   177   90   91 1    
   178   90   92 1    
   179   90  211 1    
   180   91  212 1    
   181   91  213 1    
   182   91  214 1    
   183   92   93 2    
   184   92   94 am   BACKBONE|DICT|INTERRES
   185   94   95 1    
   186   94  215 1    
   187   95   96 1    
   188   95   97 1    
   189   95  216 1    
   190   96  217 1    
   191   96  218 1    
   192   96  219 1    
   193   97   98 2    
   194   97   99 am   BACKBONE|DICT|INTERRES
   195   99  100 1    
   196   99  220 1    
   197  100  101 1    
   198  100  102 1    
   199  100  221 1    
   200  101  222 1    
   201  101  223 1    
   202  101  224 1    
   203  102  103 2    
   204  102  104 am   BACKBONE|DICT|INTERRES
   205  104  105 1    
   206  104  225 1    
   207  105  106 1    
   208  105  107 1    
   209  105  226 1    
   210  106  227 1    
   211  106  228 1    
   212  106  229 1    
   213  107  108 2    
   214  107  109 am   BACKBONE|DICT|INTERRES
   215  109  110 1    
   216  109  230 1    
   217  110  111 1    
   218  110  112 1    
   219  110  231 1    
   220  111  232 1    
   221  111  233 1    
   222  111  234 1    
   223  112  113 2    
   224  112  114 am   BACKBONE|DICT|INTERRES
   225  114  115 1    
   226  114  235 1    
   227  115  116 1    
   228  115  117 1    
   229  115  236 1    
   230  116  237 1    
   231  116  238 1    
   232  116  239 1    
   233  117  118 2    
   234  117  119 am   BACKBONE|DICT|INTERRES
   235  119  120 1    
   236  119  240 1    
   237  120  121 1    
   238  120  124 1    
   239  120  241 1    
   240  121  122 am   BACKBONE|DICT|INTERRES
   241  121  123 2    
   242  122  242 1    
   243  122  243 1    
   244  124  125 1    
   245  124  244 1    
   246  124  245 1    
   247  125  126 1    
   248  126  246 1    
   249  126  247 1    
@<TRIPOS>SUBSTRUCTURE
     1 UNK         1 GROUP             0       ****    0 ROOT    
