@<TRIPOS>MOLECULE
3R540
247   249    1
SMALL
USER_CHARGES


@<TRIPOS>ATOM
      1 CA         -1.7812  -10.6147  -50.3072 C.3       0 UNK        -0.1800 
      2 C          -0.6299  -11.0460  -49.4109 C.2       0 UNK         0.5000 
      3 O          -0.7605  -10.9896  -48.1889 O.2       0 UNK        -0.5000 
      4 N           0.4930  -11.4547  -50.0215 N.am      1 UNK        -0.5000 
      5 CA          1.7245  -11.9960  -49.4169 C.3       1 UNK         0.1400 
      6 C6          1.6495  -13.5203  -49.1128 C.3       23 UNK        -0.0398 
      7 S7          0.5666  -14.0334  -47.7281 S.3       23 UNK        -0.2404 
      8 C8         -0.9045  -14.6781  -48.5879 C.3       23 UNK        -0.0205 
      9 C9         -0.5949  -15.8530  -49.5057 C.ar      23 UNK        -0.0193 
     10 C10        -0.8520  -15.7524  -50.8755 C.ar      23 UNK        -0.1150 
     11 C11        -0.5818  -16.8211  -51.7347 C.ar      23 UNK        -0.0193 
     12 C12        -0.0598  -18.0062  -51.2040 C.ar      23 UNK        -0.1150 
     13 C13         0.1914  -18.1256  -49.8336 C.ar      23 UNK        -0.0193 
     14 C14        -0.0677  -17.0410  -48.9912 C.ar      23 UNK        -0.1150 
     15 C15         0.7778  -19.4143  -49.2779 C.3       23 UNK        -0.0205 
     16 S16        -0.5104  -20.5915  -48.7504 S.3       23 UNK        -0.2404 
     17 C17         0.4719  -22.1308  -48.7200 C.3       23 UNK        -0.0398 
     18 CA          0.1376  -23.1662  -47.6195 C.3       11 UNK         0.1400 
     19 N           0.5165  -22.7509  -46.2660 N.am      11 UNK        -0.5000 
     20 C           0.7577  -23.6328  -45.2834 C.2       10 UNK         0.5000 
     21 O           0.6950  -24.8529  -45.4393 O.2       10 UNK        -0.5000 
     22 CA          1.0888  -23.0768  -43.8882 C.3       10 UNK         0.1400 
     23 CB          2.5448  -22.5930  -43.8190 C.3       10 UNK        -0.1800 
     24 N           0.1802  -22.0107  -43.4687 N.am      10 UNK        -0.5000 
     25 C          -1.1348  -22.1769  -43.2663 C.2       9 UNK         0.5000 
     26 O          -1.7161  -23.2529  -43.4027 O.2       9 UNK        -0.5000 
     27 CA         -1.9468  -20.9284  -42.8799 C.3       9 UNK         0.1400 
     28 CB         -1.7961  -20.6220  -41.3825 C.3       9 UNK        -0.1800 
     29 N          -1.5750  -19.7524  -43.6641 N.am      9 UNK        -0.5000 
     30 C          -1.7300  -19.6456  -44.9912 C.2       8 UNK         0.5000 
     31 O          -2.2607  -20.5078  -45.6898 O.2       8 UNK        -0.5000 
     32 CA         -1.1427  -18.3893  -45.6559 C.3       8 UNK         0.1400 
     33 CB         -2.0595  -17.1743  -45.4556 C.3       8 UNK        -0.1800 
     34 N           0.2036  -18.0777  -45.1738 N.am      8 UNK        -0.5000 
     35 C           1.2635  -18.8926  -45.2841 C.2       7 UNK         0.5000 
     36 O           1.2410  -19.9837  -45.8519 O.2       7 UNK        -0.5000 
     37 CA          2.5552  -18.4349  -44.5905 C.3       7 UNK         0.1400 
     38 CB          3.3262  -17.4365  -45.4678 C.3       7 UNK        -0.1800 
     39 N           2.2768  -17.8493  -43.2787 N.am      7 UNK        -0.5000 
     40 C           1.8843  -18.5579  -42.2095 C.2       6 UNK         0.5000 
     41 O           1.7611  -19.7823  -42.2112 O.2       6 UNK        -0.5000 
     42 CA          1.5329  -17.7654  -40.9363 C.3       6 UNK         0.1400 
     43 CB          2.7996  -17.4525  -40.1262 C.3       6 UNK        -0.1800 
     44 N           0.8216  -16.5198  -41.2244 N.am      6 UNK        -0.5000 
     45 C          -0.4096  -16.4545  -41.7505 C.2       5 UNK         0.5000 
     46 O          -1.1000  -17.4431  -41.9930 O.2       5 UNK        -0.5000 
     47 CA         -0.9395  -15.0537  -42.1134 C.3       5 UNK         0.1400 
     48 CB         -1.7000  -14.4413  -40.9285 C.3       5 UNK        -0.1800 
     49 N           0.1007  -14.1196  -42.5533 N.am      5 UNK        -0.5000 
     50 C           0.9327  -14.3104  -43.5850 C.2       4 UNK         0.5000 
     51 O           0.9232  -15.3257  -44.2828 O.2       4 UNK        -0.5000 
     52 CA          1.9317  -13.1719  -43.8697 C.3       4 UNK         0.1400 
     53 CB          3.1254  -13.6391  -44.7194 C.3       4 UNK        -0.1800 
     54 N           1.2729  -12.0491  -44.5352 N.am      4 UNK        -0.5000 
     55 C           0.4546  -11.1717  -43.9362 C.2       3 UNK         0.5000 
     56 O           0.2194  -11.1892  -42.7255 O.2       3 UNK        -0.5000 
     57 CA         -0.2236  -10.1179  -44.8376 C.3       3 UNK         0.1400 
     58 CB         -0.7418   -8.8922  -44.0560 C.3       3 UNK        -0.1800 
     59 N           0.6023   -9.7076  -45.9763 N.am      3 UNK        -0.5000 
     60 C           1.7871   -9.0763  -45.9462 C.2       2 UNK         0.5000 
     61 O           2.3373   -8.7018  -44.9092 O.2       2 UNK        -0.5000 
     62 CA          2.4662   -8.8222  -47.3131 C.3       2 UNK         0.1400 
     63 CB          3.9978   -8.6676  -47.2025 C.3       2 UNK        -0.1800 
     64 N           2.1146   -9.8205  -48.3321 N.am      2 UNK        -0.5000 
     65 C           2.3274  -11.1449  -48.2718 C.2       1 UNK         0.5000 
     66 O           2.9513  -11.6884  -47.3605 O.2       1 UNK        -0.5000 
     67 C          -1.2972  -23.7329  -47.6814 C.2       11 UNK         0.5000 
     68 O          -1.5338  -24.6763  -48.4363 O.2       11 UNK        -0.5000 
     69 N          -2.2127  -23.2292  -46.8386 N.am      12 UNK        -0.5000 
     70 CA         -3.5509  -23.7971  -46.6591 C.3       12 UNK         0.1400 
     71 CB         -4.4313  -22.8494  -45.8337 C.3       12 UNK        -0.1800 
     72 C          -3.5256  -25.2092  -46.0491 C.2       12 UNK         0.5000 
     73 O          -4.2496  -26.0811  -46.5290 O.2       12 UNK        -0.5000 
     74 N          -2.6546  -25.4367  -45.0553 N.am      13 UNK        -0.5000 
     75 CA         -2.4020  -26.7531  -44.4594 C.3       13 UNK         0.1400 
     76 CB         -1.5131  -26.5951  -43.2168 C.3       13 UNK        -0.1800 
     77 C          -1.7840  -27.7581  -45.4535 C.2       13 UNK         0.5000 
     78 O          -2.0588  -28.9544  -45.3580 O.2       13 UNK        -0.5000 
     79 N          -1.0028  -27.2499  -46.4162 N.am      14 UNK        -0.5000 
     80 CA         -0.4509  -28.0011  -47.5463 C.3       14 UNK         0.1400 
     81 CB          0.8079  -27.2780  -48.0536 C.3       14 UNK        -0.1800 
     82 C          -1.4617  -28.2190  -48.6963 C.2       14 UNK         0.5000 
     83 O          -1.1046  -28.8596  -49.6858 O.2       14 UNK        -0.5000 
     84 N          -2.6885  -27.6909  -48.5572 N.am      15 UNK        -0.5000 
     85 CA         -3.8044  -27.7430  -49.5084 C.3       15 UNK         0.1400 
     86 CB         -4.2712  -29.1954  -49.7424 C.3       15 UNK        -0.1800 
     87 C          -3.5339  -26.9697  -50.8169 C.2       15 UNK         0.5000 
     88 O          -4.0232  -27.3603  -51.8783 O.2       15 UNK        -0.5000 
     89 N          -2.7797  -25.8704  -50.7135 N.am      16 UNK        -0.5000 
     90 CA         -2.4318  -24.9638  -51.8042 C.3       16 UNK         0.1400 
     91 CB         -1.0138  -25.3056  -52.2943 C.3       16 UNK        -0.1800 
     92 C          -2.5842  -23.5203  -51.2907 C.2       16 UNK         0.5000 
     93 O          -1.6319  -22.7388  -51.3233 O.2       16 UNK        -0.5000 
     94 N          -3.7774  -23.2447  -50.7455 N.am      17 UNK        -0.5000 
     95 CA         -4.1438  -22.0557  -49.9778 C.3       17 UNK         0.1400 
     96 CB         -5.5931  -22.2329  -49.4901 C.3       17 UNK        -0.1800 
     97 C          -4.0236  -20.7198  -50.7294 C.2       17 UNK         0.5000 
     98 O          -4.1334  -20.6717  -51.9547 O.2       17 UNK        -0.5000 
     99 N          -3.9175  -19.6418  -49.9415 N.am      18 UNK        -0.5000 
    100 CA        -3.8546  -18.2438  -50.3765 C.3       18 UNK         0.1400 
    101 CB        -3.6974  -17.3619  -49.1285 C.3       18 UNK        -0.1800 
    102 C         -5.0614  -17.7646  -51.2106 C.2       18 UNK         0.5000 
    103 O         -4.9439  -16.7779  -51.9381 O.2       18 UNK        -0.5000 
    104 N         -6.1952  -18.4721  -51.1122 N.am      19 UNK        -0.5000 
    105 CA        -7.4266  -18.2573  -51.8736 C.3       19 UNK         0.1400 
    106 CB        -8.5856  -18.9377  -51.1226 C.3       19 UNK        -0.1800 
    107 C         -7.3072  -18.7316  -53.3412 C.2       19 UNK         0.5000 
    108 O         -8.1074  -19.5506  -53.7957 O.2       19 UNK        -0.5000 
    109 N         -6.2989  -18.2058  -54.0503 N.am      20 UNK        -0.5000 
    110 CA        -5.9838  -18.4054  -55.4704 C.3       20 UNK         0.1400 
    111 CB        -7.1166  -17.8537  -56.3612 C.3       20 UNK        -0.1800 
    112 C         -5.5784  -19.8453  -55.8601 C.2       20 UNK         0.5000 
    113 O         -5.5595  -20.1638  -57.0501 O.2       20 UNK        -0.5000 
    114 N         -5.2199  -20.6781  -54.8748 N.am      21 UNK        -0.5000 
    115 CA        -4.7005  -22.0377  -55.0607 C.3       21 UNK         0.1400 
    116 CB        -5.5079  -22.9954  -54.1655 C.3       21 UNK        -0.1800 
    117 C         -3.1897  -22.1105  -54.7510 C.2       21 UNK         0.5000 
    118 O         -2.6527  -23.2126  -54.6468 O.2       21 UNK        -0.5000 
    119 N         -2.5686  -20.9330  -54.5930 N.am      22 UNK        -0.5000 
    120 CA        -1.2323  -20.6180  -54.0689 C.3       22 UNK         0.1400 
    121 C         -0.1089  -21.6302  -54.4219 C.2       22 UNK         0.5000 
    122 N          0.3985  -22.3560  -53.4364 N.am      22 UNK        -0.7600 
    123 O          0.3365  -21.7185  -55.5640 O.2       22 UNK        -0.5000 
    124 C124       -0.8178  -19.1894  -54.5020 C.3       23 UNK        -0.0398 
    125 S125       -1.9757  -17.9021  -53.9151 S.3       23 UNK        -0.2404 
    126 C126       -0.8270  -16.6622  -53.2316 C.3       23 UNK        -0.0205 
    127 H127       -2.6546  -11.2387  -50.1184 H         1 UNK         0.0600 
    128 H128       -1.5272  -10.6964  -51.3642 H         1 UNK         0.0600 
    129 H129       -2.0498   -9.5789  -50.1003 H         1 UNK         0.0600 
    130 H130        0.5087  -11.4317  -51.0316 H         1 UNK         0.3000 
    131 H131        2.4645  -11.8992  -50.2128 H         1 UNK         0.0600 
    132 H132        2.6494  -13.8950  -48.8883 H         1 UNK         0.0800 
    133 H133        1.3551  -14.0479  -50.0193 H         1 UNK         0.0800 
    134 H134       -1.3732  -13.8661  -49.1438 H         1 UNK         0.0800 
    135 H135       -1.6368  -14.9943  -47.8456 H         1 UNK         0.0800 
    136 H136       -1.2563  -14.8332  -51.2754 H         1 UNK         0.1150 
    137 H137        0.1555  -18.8409  -51.8532 H         1 UNK         0.1150 
    138 H138        0.1474  -17.1127  -47.9355 H         1 UNK         0.1150 
    139 H139        1.4348  -19.1953  -48.4356 H         1 UNK         0.0800 
    140 H140        1.4041  -19.8804  -50.0401 H         1 UNK         0.0800 
    141 H141        0.3807  -22.6003  -49.6997 H         1 UNK         0.0800 
    142 H142        1.5267  -21.8685  -48.6286 H         1 UNK         0.0800 
    143 H143        0.7802  -24.0171  -47.8561 H         1 UNK         0.0600 
    144 H144        0.6063  -21.7520  -46.0904 H         1 UNK         0.3000 
    145 H145        0.9786  -23.8972  -43.1759 H         1 UNK         0.0600 
    146 H146        3.2335  -23.3892  -44.1040 H         1 UNK         0.0600 
    147 H147        2.8091  -22.2823  -42.8082 H         1 UNK         0.0600 
    148 H148        2.7245  -21.7510  -44.4864 H         1 UNK         0.0600 
    149 H149        0.5944  -21.1005  -43.3003 H         1 UNK         0.3000 
    150 H150       -2.9991  -21.1417  -43.0778 H         1 UNK         0.0600 
    151 H151       -0.7694  -20.3590  -41.1260 H         1 UNK         0.0600 
    152 H152       -2.0767  -21.4844  -40.7767 H         1 UNK         0.0600 
    153 H153       -2.4374  -19.7924  -41.0844 H         1 UNK         0.0600 
    154 H154       -1.1808  -18.9691  -43.1502 H         1 UNK         0.3000 
    155 H155       -1.0753  -18.5882  -46.7247 H         1 UNK         0.0600 
    156 H156       -3.0222  -17.3307  -45.9434 H         1 UNK         0.0600 
    157 H157       -1.6183  -16.2723  -45.8785 H         1 UNK         0.0600 
    158 H158       -2.2557  -16.9853  -44.4010 H         1 UNK         0.0600 
    159 H159        0.3363  -17.1769  -44.7239 H         1 UNK         0.3000 
    160 H160        3.1897  -19.3115  -44.4444 H         1 UNK         0.0600 
    161 H161        4.2378  -17.0975  -44.9756 H         1 UNK         0.0600 
    162 H162        2.7283  -16.5586  -45.7116 H         1 UNK         0.0600 
    163 H163        3.6181  -17.8989  -46.4114 H         1 UNK         0.0600 
    164 H164        2.2657  -16.8404  -43.2291 H         1 UNK         0.3000 
    165 H165        0.8821  -18.3929  -40.3236 H         1 UNK         0.0600 
    166 H166        2.5541  -16.9603  -39.1850 H         1 UNK         0.0600 
    167 H167        3.3414  -18.3672  -39.8817 H         1 UNK         0.0600 
    168 H168        3.4820  -16.8040  -40.6771 H         1 UNK         0.0600 
    169 H169        1.3170  -15.6574  -41.0536 H         1 UNK         0.3000 
    170 H170       -1.6396  -15.1725  -42.9420 H         1 UNK         0.0600 
    171 H171       -1.0423  -14.2638  -40.0767 H         1 UNK         0.0600 
    172 H172       -2.5007  -15.1025  -40.5941 H         1 UNK         0.0600 
    173 H173       -2.1581  -13.4907  -41.2029 H         1 UNK         0.0600 
    174 H174        0.1315  -13.2192  -42.0887 H         1 UNK         0.3000 
    175 H175        2.3283  -12.8288  -42.9119 H         1 UNK         0.0600 
    176 H176        3.6488  -14.4660  -44.2381 H         1 UNK         0.0600 
    177 H177        2.8124  -13.9787  -45.7069 H         1 UNK         0.0600 
    178 H178        3.8472  -12.8342  -44.8592 H         1 UNK         0.0600 
    179 H179        1.4251  -11.9727  -45.5330 H         1 UNK         0.3000 
    180 H180       -1.0922  -10.6170  -45.2695 H         1 UNK         0.0600 
    181 H181        0.0611   -8.3766  -43.5287 H         1 UNK         0.0600 
    182 H182       -1.4819   -9.1882  -43.3117 H         1 UNK         0.0600 
    183 H183       -1.2225   -8.1748  -44.7210 H         1 UNK         0.0600 
    184 H184        0.2470  -10.0146  -46.8790 H         1 UNK         0.3000 
    185 H185        2.0670   -7.8722  -47.6709 H         1 UNK         0.0600 
    186 H186        4.2609   -7.8215  -46.5668 H         1 UNK         0.0600 
    187 H187        4.4655   -9.5544  -46.7741 H         1 UNK         0.0600 
    188 H188        4.4479   -8.4891  -48.1790 H         1 UNK         0.0600 
    189 H189        1.5824   -9.4726  -49.1174 H         1 UNK         0.3000 
    190 H190       -1.9801  -22.4162  -46.2759 H         1 UNK         0.3000 
    191 H191       -3.9988  -23.8955  -47.6476 H         1 UNK         0.0600 
    192 H192       -4.5429  -21.8852  -46.3296 H         1 UNK         0.0600 
    193 H193       -5.4318  -23.2622  -45.6996 H         1 UNK         0.0600 
    194 H194       -4.0131  -22.6714  -44.8431 H         1 UNK         0.0600 
    195 H195       -2.1347  -24.6543  -44.6666 H         1 UNK         0.3000 
    196 H196       -3.3623  -27.1609  -44.1372 H         1 UNK         0.0600 
    197 H197       -1.3349  -27.5590  -42.7387 H         1 UNK         0.0600 
    198 H198       -1.9827  -25.9470  -42.4767 H         1 UNK         0.0600 
    199 H199       -0.5419  -26.1679  -43.4662 H         1 UNK         0.0600 
    200 H200       -0.7878  -26.2609  -46.3846 H         1 UNK         0.3000 
    201 H201       -0.1491  -28.9885  -47.1911 H         1 UNK         0.0600 
    202 H202        1.3241  -27.8749  -48.8063 H         1 UNK         0.0600 
    203 H203        1.5147  -27.0952  -47.2439 H         1 UNK         0.0600 
    204 H204        0.5651  -26.3198  -48.5113 H         1 UNK         0.0600 
    205 H205       -2.8819  -27.1679  -47.7115 H         1 UNK         0.3000 
    206 H206       -4.6283  -27.2171  -49.0245 H         1 UNK         0.0600 
    207 H207       -4.4592  -29.7057  -48.7977 H         1 UNK         0.0600 
    208 H208       -5.2003  -29.2197  -50.3128 H         1 UNK         0.0600 
    209 H209       -3.5340  -29.7758  -50.2976 H         1 UNK         0.0600 
    210 H210       -2.4125  -25.5998  -49.8023 H         1 UNK         0.3000 
    211 H211       -3.1274  -25.0843  -52.6370 H         1 UNK         0.0600 
    212 H212       -0.2594  -25.0821  -51.5388 H         1 UNK         0.0600 
    213 H213       -0.7720  -24.7428  -53.1944 H         1 UNK         0.0600 
    214 H214       -0.9289  -26.3624  -52.5477 H         1 UNK         0.0600 
    215 H215       -4.4817  -23.9648  -50.7940 H         1 UNK         0.3000 
    216 H216       -3.4777  -22.0133  -49.1149 H         1 UNK         0.0600 
    217 H217       -5.8803  -21.4342  -48.8051 H         1 UNK         0.0600 
    218 H218       -5.7328  -23.1741  -48.9598 H         1 UNK         0.0600 
    219 H219       -6.2977  -22.2187  -50.3232 H         1 UNK         0.0600 
    220 H220       -3.8437  -19.7865  -48.9452 H         1 UNK         0.3000 
    221 H221       -2.9657  -18.1368  -50.9979 H         1 UNK         0.0600 
    222 H222       -4.5654  -17.4338  -48.4722 H         1 UNK         0.0600 
    223 H223       -2.8183  -17.6483  -48.5519 H         1 UNK         0.0600 
    224 H224       -3.5791  -16.3131  -49.4035 H         1 UNK         0.0600 
    225 H225       -6.1831  -19.2817  -50.5111 H         1 UNK         0.3000 
    226 H226       -7.6332  -17.1855  -51.9008 H         1 UNK         0.0600 
    227 H227       -8.6829  -18.5467  -50.1096 H         1 UNK         0.0600 
    228 H228       -8.4420  -20.0169  -51.0536 H         1 UNK         0.0600 
    229 H229       -9.5366  -18.7631  -51.6276 H         1 UNK         0.0600 
    230 H230       -5.6836  -17.5685  -53.5511 H         1 UNK         0.3000 
    231 H231       -5.0991  -17.7953  -55.6585 H         1 UNK         0.0600 
    232 H232       -8.0228  -18.4550  -56.2826 H         1 UNK         0.0600 
    233 H233       -6.8226  -17.8440  -57.4114 H         1 UNK         0.0600 
    234 H234       -7.3689  -16.8287  -56.0893 H         1 UNK         0.0600 
    235 H235       -5.2299  -20.3452  -53.9175 H         1 UNK         0.3000 
    236 H236       -4.8258  -22.3610  -56.0957 H         1 UNK         0.0600 
    237 H237       -5.4012  -22.7464  -53.1100 H         1 UNK         0.0600 
    238 H238       -6.5695  -22.9579  -54.4100 H         1 UNK         0.0600 
    239 H239       -5.1823  -24.0282  -54.2950 H         1 UNK         0.0600 
    240 H240       -3.1529  -20.1194  -54.7069 H         1 UNK         0.3000 
    241 H241       -1.3413  -20.6084  -52.9828 H         1 UNK         0.0600 
    242 H242       -0.0677  -22.3736  -52.5345 H         1 UNK         0.3800 
    243 H243        1.1431  -23.0050  -53.6322 H         1 UNK         0.3800 
    244 H244       -0.7669  -19.1245  -55.5904 H         1 UNK         0.0800 
    245 H245        0.1884  -18.9645  -54.1459 H         1 UNK         0.0800 
    246 H246        0.1257  -16.6874  -53.7616 H         1 UNK         0.0800 
    247 H247       -1.2518  -15.6787  -53.4378 H         1 UNK         0.0800 
@<TRIPOS>BOND
     1    1    2 1    
     2    1  127 1    
     3    1  128 1    
     4    1  129 1    
     5    2    3 2    
     6    2    4 am   BACKBONE|DICT|INTERRES
     7    4    5 1    
     8    4  130 1    
     9    5    6 1    
    10    5   65 1    
    11    5  131 1    
    12    6    7 1    
    13    6  132 1    
    14    6  133 1    
    15    7    8 1    
    16    8    9 1    
    17    8  134 1    
    18    8  135 1    
    19    9   10 ar   
    20    9   14 ar   
    21   10   11 ar   
    22   10  136 1    
    23   11   12 ar   
    24   11  126 1    
    25   12   13 ar   
    26   12  137 1    
    27   13   14 ar   
    28   13   15 1    
    29   14  138 1    
    30   15   16 1    
    31   15  139 1    
    32   15  140 1    
    33   16   17 1    
    34   17   18 1    
    35   17  141 1    
    36   17  142 1    
    37   18   19 1    
    38   18   67 1    
    39   18  143 1    
    40   19   20 am   BACKBONE|DICT|INTERRES
    41   19  144 1    
    42   20   21 2    
    43   20   22 1    
    44   22   23 1    
    45   22   24 1    
    46   22  145 1    
    47   23  146 1    
    48   23  147 1    
    49   23  148 1    
    50   24   25 am   BACKBONE|DICT|INTERRES
    51   24  149 1    
    52   25   26 2    
    53   25   27 1    
    54   27   28 1    
    55   27   29 1    
    56   27  150 1    
    57   28  151 1    
    58   28  152 1    
    59   28  153 1    
    60   29   30 am   BACKBONE|DICT|INTERRES
    61   29  154 1    
    62   30   31 2    
    63   30   32 1    
    64   32   33 1    
    65   32   34 1    
    66   32  155 1    
    67   33  156 1    
    68   33  157 1    
    69   33  158 1    
    70   34   35 am   BACKBONE|DICT|INTERRES
    71   34  159 1    
    72   35   36 2    
    73   35   37 1    
    74   37   38 1    
    75   37   39 1    
    76   37  160 1    
    77   38  161 1    
    78   38  162 1    
    79   38  163 1    
    80   39   40 am   BACKBONE|DICT|INTERRES
    81   39  164 1    
    82   40   41 2    
    83   40   42 1    
    84   42   43 1    
    85   42   44 1    
    86   42  165 1    
    87   43  166 1    
    88   43  167 1    
    89   43  168 1    
    90   44   45 am   BACKBONE|DICT|INTERRES
    91   44  169 1    
    92   45   46 2    
    93   45   47 1    
    94   47   48 1    
    95   47   49 1    
    96   47  170 1    
    97   48  171 1    
    98   48  172 1    
    99   48  173 1    
   100   49   50 am   BACKBONE|DICT|INTERRES
   101   49  174 1    
   102   50   51 2    
   103   50   52 1    
   104   52   53 1    
   105   52   54 1    
   106   52  175 1    
   107   53  176 1    
   108   53  177 1    
   109   53  178 1    
   110   54   55 am   BACKBONE|DICT|INTERRES
   111   54  179 1    
   112   55   56 2    
   113   55   57 1    
   114   57   58 1    
   115   57   59 1    
   116   57  180 1    
   117   58  181 1    
   118   58  182 1    
   119   58  183 1    
   120   59   60 am   BACKBONE|DICT|INTERRES
   121   59  184 1    
   122   60   61 2    
   123   60   62 1    
   124   62   63 1    
   125   62   64 1    
   126   62  185 1    
   127   63  186 1    
   128   63  187 1    
   129   63  188 1    
   130   64   65 am   BACKBONE|DICT|INTERRES
   131   64  189 1    
   132   65   66 2    
   133   67   68 2    
   134   67   69 am   BACKBONE|DICT|INTERRES
   135   69   70 1    
   136   69  190 1    
   137   70   71 1    
   138   70   72 1    
   139   70  191 1    
   140   71  192 1    
   141   71  193 1    
   142   71  194 1    
   143   72   73 2    
   144   72   74 am   BACKBONE|DICT|INTERRES
   145   74   75 1    
   146   74  195 1    
   147   75   76 1    
   148   75   77 1    
   149   75  196 1    
   150   76  197 1    
   151   76  198 1    
   152   76  199 1    
   153   77   78 2    
   154   77   79 am   BACKBONE|DICT|INTERRES
   155   79   80 1    
   156   79  200 1    
   157   80   81 1    
   158   80   82 1    
   159   80  201 1    
   160   81  202 1    
   161   81  203 1    
   162   81  204 1    
   163   82   83 2    
   164   82   84 am   BACKBONE|DICT|INTERRES
   165   84   85 1    
   166   84  205 1    
   167   85   86 1    
   168   85   87 1    
   169   85  206 1    
   170   86  207 1    
   171   86  208 1    
   172   86  209 1    
   173   87   88 2    
   174   87   89 am   BACKBONE|DICT|INTERRES
   175   89   90 1    
   176   89  210 1    
   177   90   91 1    
   178   90   92 1    
   179   90  211 1    
   180   91  212 1    
   181   91  213 1    
   182   91  214 1    
   183   92   93 2    
   184   92   94 am   BACKBONE|DICT|INTERRES
   185   94   95 1    
   186   94  215 1    
   187   95   96 1    
   188   95   97 1    
   189   95  216 1    
   190   96  217 1    
   191   96  218 1    
   192   96  219 1    
   193   97   98 2    
   194   97   99 am   BACKBONE|DICT|INTERRES
   195   99  100 1    
   196   99  220 1    
   197  100  101 1    
   198  100  102 1    
   199  100  221 1    
   200  101  222 1    
   201  101  223 1    
   202  101  224 1    
   203  102  103 2    
   204  102  104 am   BACKBONE|DICT|INTERRES
   205  104  105 1    
   206  104  225 1    
   207  105  106 1    
   208  105  107 1    
   209  105  226 1    
   210  106  227 1    
   211  106  228 1    
   212  106  229 1    
   213  107  108 2    
   214  107  109 am   BACKBONE|DICT|INTERRES
   215  109  110 1    
   216  109  230 1    
   217  110  111 1    
   218  110  112 1    
   219  110  231 1    
   220  111  232 1    
   221  111  233 1    
   222  111  234 1    
   223  112  113 2    
   224  112  114 am   BACKBONE|DICT|INTERRES
   225  114  115 1    
   226  114  235 1    
   227  115  116 1    
   228  115  117 1    
   229  115  236 1    
   230  116  237 1    
   231  116  238 1    
   232  116  239 1    
   233  117  118 2    
   234  117  119 am   BACKBONE|DICT|INTERRES
   235  119  120 1    
   236  119  240 1    
   237  120  121 1    
   238  120  124 1    
   239  120  241 1    
   240  121  122 am   BACKBONE|DICT|INTERRES
   241  121  123 2    
   242  122  242 1    
   243  122  243 1    
   244  124  125 1    
   245  124  244 1    
   246  124  245 1    
   247  125  126 1    
   248  126  246 1    
   249  126  247 1    
@<TRIPOS>SUBSTRUCTURE
     1 UNK         1 GROUP             0       ****    0 ROOT    
