@<TRIPOS>MOLECULE
3R540
247   249    1
SMALL
USER_CHARGES


@<TRIPOS>ATOM
      1 CA          3.9955  -10.8766  -47.4769 C.3       0 UNK        -0.1800 
      2 C           3.1284  -12.0204  -46.9703 C.2       0 UNK         0.5000 
      3 O           2.7143  -12.0077  -45.8118 O.2       0 UNK        -0.5000 
      4 N           2.8550  -13.0070  -47.8334 N.am      1 UNK        -0.5000 
      5 CA          2.0519  -14.1977  -47.5265 C.3       1 UNK         0.1400 
      6 C6          2.1260  -15.2552  -48.6526 C.3       23 UNK        -0.0398 
      7 S7          3.8098  -15.8017  -49.0854 S.3       23 UNK        -0.2404 
      8 C8          3.5400  -16.3895  -50.7912 C.3       23 UNK        -0.0205 
      9 C9          2.4920  -17.4933  -50.8577 C.ar      23 UNK        -0.0193 
     10 C10         1.1614  -17.1875  -51.1615 C.ar      23 UNK        -0.1150 
     11 C11         0.1810  -18.1830  -51.1929 C.ar      23 UNK        -0.0193 
     12 C12         0.5599  -19.5087  -50.9351 C.ar      23 UNK        -0.1150 
     13 C13         1.8869  -19.8316  -50.6414 C.ar      23 UNK        -0.0193 
     14 C14         2.8494  -18.8194  -50.6052 C.ar      23 UNK        -0.1150 
     15 C15         2.2841  -21.2755  -50.3713 C.3       23 UNK        -0.0205 
     16 S16         2.7003  -21.5501  -48.6211 S.3       23 UNK        -0.2404 
     17 C17         1.0698  -21.4401  -47.8039 C.3       23 UNK        -0.0398 
     18 CA          0.7835  -22.6647  -46.8994 C.3       11 UNK         0.1400 
     19 N           1.8346  -22.8784  -45.9025 N.am      11 UNK        -0.5000 
     20 C           2.1203  -24.0476  -45.3174 C.2       10 UNK         0.5000 
     21 O           1.5437  -25.1030  -45.5798 O.2       10 UNK        -0.5000 
     22 CA          3.2275  -24.0284  -44.2450 C.3       10 UNK         0.1400 
     23 CB          4.6026  -24.2615  -44.8888 C.3       10 UNK        -0.1800 
     24 N           3.2596  -22.7768  -43.4840 N.am      10 UNK        -0.5000 
     25 C           2.3182  -22.4043  -42.6059 C.2       9 UNK         0.5000 
     26 O           1.3561  -23.1089  -42.2999 O.2       9 UNK        -0.5000 
     27 CA          2.4563  -21.0001  -41.9821 C.3       9 UNK         0.1400 
     28 CB          3.2596  -21.0799  -40.6753 C.3       9 UNK        -0.1800 
     29 N           3.0529  -19.9768  -42.8503 N.am      9 UNK        -0.5000 
     30 C           2.6360  -19.6425  -44.0802 C.2       8 UNK         0.5000 
     31 O           1.7505  -20.2466  -44.6852 O.2       8 UNK        -0.5000 
     32 CA          3.2995  -18.4053  -44.7063 C.3       8 UNK         0.1400 
     33 CB          2.7929  -18.1126  -46.1300 C.3       8 UNK        -0.1800 
     34 N           2.9908  -17.2636  -43.8556 N.am      8 UNK        -0.5000 
     35 C           3.8727  -16.4646  -43.2432 C.2       7 UNK         0.5000 
     36 O           5.0921  -16.5536  -43.3891 O.2       7 UNK        -0.5000 
     37 CA          3.3003  -15.3953  -42.2859 C.3       7 UNK         0.1400 
     38 CB          3.1705  -14.0478  -43.0120 C.3       7 UNK        -0.1800 
     39 N           1.9942  -15.7539  -41.7266 N.am      7 UNK        -0.5000 
     40 C           1.7579  -16.7963  -40.9172 C.2       6 UNK         0.5000 
     41 O           2.6506  -17.4830  -40.4207 O.2       6 UNK        -0.5000 
     42 CA          0.2816  -17.1649  -40.6436 C.3       6 UNK         0.1400 
     43 CB         -0.1180  -16.7524  -39.2187 C.3       6 UNK        -0.1800 
     44 N          -0.7001  -16.6113  -41.5891 N.am      6 UNK        -0.5000 
     45 C          -0.7036  -16.7948  -42.9172 C.2       5 UNK         0.5000 
     46 O           0.1803  -17.4148  -43.5107 O.2       5 UNK        -0.5000 
     47 CA         -1.8550  -16.1368  -43.7045 C.3       5 UNK         0.1400 
     48 CB         -1.8643  -14.6104  -43.5097 C.3       5 UNK        -0.1800 
     49 N          -1.7383  -16.4106  -45.1341 N.am      5 UNK        -0.5000 
     50 C          -2.0495  -17.5674  -45.7290 C.2       4 UNK         0.5000 
     51 O          -2.6388  -18.4928  -45.1694 O.2       4 UNK        -0.5000 
     52 CA         -1.6516  -17.6605  -47.2149 C.3       4 UNK         0.1400 
     53 CB         -1.8316  -19.0638  -47.8193 C.3       4 UNK        -0.1800 
     54 N          -2.3362  -16.6423  -48.0156 N.am      4 UNK        -0.5000 
     55 C          -3.6583  -16.4538  -48.1512 C.2       3 UNK         0.5000 
     56 O          -4.5118  -17.2239  -47.7086 O.2       3 UNK        -0.5000 
     57 CA         -4.0937  -15.1563  -48.8727 C.3       3 UNK         0.1400 
     58 CB         -5.5896  -14.8478  -48.6800 C.3       3 UNK        -0.1800 
     59 N          -3.3181  -13.9953  -48.4224 N.am      3 UNK        -0.5000 
     60 C          -2.0941  -13.6691  -48.8536 C.2       2 UNK         0.5000 
     61 O          -1.5146  -14.2912  -49.7473 O.2       2 UNK        -0.5000 
     62 CA         -1.3620  -12.5063  -48.1430 C.3       2 UNK         0.1400 
     63 CB         -2.0045  -12.0737  -46.8059 C.3       2 UNK        -0.1800 
     64 N           0.0583  -12.8262  -47.9593 N.am      2 UNK        -0.5000 
     65 C           0.5618  -13.8769  -47.2907 C.2       1 UNK         0.5000 
     66 O          -0.1070  -14.6260  -46.5779 O.2       1 UNK        -0.5000 
     67 C          -0.5831  -22.5252  -46.2026 C.2       11 UNK         0.5000 
     68 O          -1.5811  -23.0352  -46.7098 O.2       11 UNK        -0.5000 
     69 N          -0.6009  -21.8836  -45.0245 N.am      12 UNK        -0.5000 
     70 CA         -1.7792  -21.6261  -44.1883 C.3       12 UNK         0.1400 
     71 CB         -1.3574  -20.7873  -42.9733 C.3       12 UNK        -0.1800 
     72 C          -2.5497  -22.8819  -43.7324 C.2       12 UNK         0.5000 
     73 O          -3.7103  -22.7637  -43.3398 O.2       12 UNK        -0.5000 
     74 N          -1.9166  -24.0599  -43.8213 N.am      13 UNK        -0.5000 
     75 CA         -2.5477  -25.3674  -43.6400 C.3       13 UNK         0.1400 
     76 CB         -1.4578  -26.4497  -43.6427 C.3       13 UNK        -0.1800 
     77 C          -3.6211  -25.6745  -44.7072 C.2       13 UNK         0.5000 
     78 O          -4.6070  -26.3421  -44.3922 O.2       13 UNK        -0.5000 
     79 N          -3.4204  -25.1717  -45.9337 N.am      14 UNK        -0.5000 
     80 CA         -4.3803  -25.2383  -47.0382 C.3       14 UNK         0.1400 
     81 CB         -3.6526  -25.7134  -48.3045 C.3       14 UNK        -0.1800 
     82 C          -5.0720  -23.8816  -47.2743 C.2       14 UNK         0.5000 
     83 O          -6.1941  -23.8600  -47.7823 O.2       14 UNK        -0.5000 
     84 N          -4.4081  -22.7804  -46.8905 N.am      15 UNK        -0.5000 
     85 CA         -4.8726  -21.3927  -46.9517 C.3       15 UNK         0.1400 
     86 CB         -6.0059  -21.1560  -45.9293 C.3       15 UNK        -0.1800 
     87 C          -5.2216  -20.9859  -48.3966 C.2       15 UNK         0.5000 
     88 O          -4.3500  -21.0505  -49.2617 O.2       15 UNK        -0.5000 
     89 N          -6.4857  -20.6300  -48.6590 N.am      16 UNK        -0.5000 
     90 CA         -6.9976  -20.2498  -49.9788 C.3       16 UNK         0.1400 
     91 CB         -8.4661  -19.8230  -49.8351 C.3       16 UNK        -0.1800 
     92 C          -6.8537  -21.3385  -51.0660 C.2       16 UNK         0.5000 
     93 O          -6.8858  -21.0071  -52.2506 O.2       16 UNK        -0.5000 
     94 N          -6.6944  -22.6046  -50.6557 N.am      17 UNK        -0.5000 
     95 CA         -6.4799  -23.7465  -51.5424 C.3       17 UNK         0.1400 
     96 CB         -7.1857  -24.9726  -50.9390 C.3       17 UNK        -0.1800 
     97 C          -4.9886  -24.0495  -51.7996 C.2       17 UNK         0.5000 
     98 O          -4.7046  -24.9679  -52.5701 O.2       17 UNK        -0.5000 
     99 N          -4.0588  -23.3233  -51.1557 N.am      18 UNK        -0.5000 
    100 CA        -2.6155  -23.5755  -51.2499 C.3       18 UNK         0.1400 
    101 CB        -1.8745  -22.7672  -50.1754 C.3       18 UNK        -0.1800 
    102 C         -2.0223  -23.2829  -52.6405 C.2       18 UNK         0.5000 
    103 O         -1.1059  -23.9872  -53.0667 O.2       18 UNK        -0.5000 
    104 N         -2.5600  -22.2683  -53.3238 N.am      19 UNK        -0.5000 
    105 CA        -2.1858  -21.8492  -54.6684 C.3       19 UNK         0.1400 
    106 CB        -0.8512  -21.0776  -54.6361 C.3       19 UNK        -0.1800 
    107 C         -3.3053  -20.9650  -55.2300 C.2       19 UNK         0.5000 
    108 O         -4.0665  -20.3761  -54.4594 O.2       19 UNK        -0.5000 
    109 N         -3.3571  -20.8348  -56.5622 N.am      20 UNK        -0.5000 
    110 CA        -4.2911  -19.9493  -57.2701 C.3       20 UNK         0.1400 
    111 CB        -4.1896  -20.2119  -58.7802 C.3       20 UNK        -0.1800 
    112 C         -4.0595  -18.4549  -56.9634 C.2       20 UNK         0.5000 
    113 O         -5.0033  -17.6649  -57.0091 O.2       20 UNK        -0.5000 
    114 N         -2.8130  -18.1077  -56.6120 N.am      21 UNK        -0.5000 
    115 CA        -2.3858  -16.7810  -56.1676 C.3       21 UNK         0.1400 
    116 CB        -0.8517  -16.7689  -56.0726 C.3       21 UNK        -0.1800 
    117 C         -3.0035  -16.3416  -54.8242 C.2       21 UNK         0.5000 
    118 O         -3.0159  -15.1442  -54.5369 O.2       21 UNK        -0.5000 
    119 N         -3.4943  -17.2992  -54.0250 N.am      22 UNK        -0.5000 
    120 CA        -4.1319  -17.0513  -52.7231 C.3       22 UNK         0.1400 
    121 C         -5.5885  -16.5088  -52.8194 C.2       22 UNK         0.5000 
    122 N         -6.2136  -16.4647  -53.9907 N.am      22 UNK        -0.7600 
    123 O         -6.1610  -16.1137  -51.8089 O.2       22 UNK        -0.5000 
    124 C124       -4.0813  -18.2979  -51.8014 C.3       23 UNK        -0.0398 
    125 S125       -2.4629  -19.1279  -51.6427 S.3       23 UNK        -0.2404 
    126 C126       -1.2604  -17.7618  -51.4931 C.3       23 UNK        -0.0205 
    127 H127        4.8989  -10.7951  -46.8725 H         1 UNK         0.0600 
    128 H128        3.4515   -9.9346  -47.4077 H         1 UNK         0.0600 
    129 H129        4.2933  -11.0222  -48.5156 H         1 UNK         0.0600 
    130 H130        3.2496  -12.9753  -48.7629 H         1 UNK         0.3000 
    131 H131        2.4432  -14.6417  -46.6083 H         1 UNK         0.0600 
    132 H132        1.5580  -16.1461  -48.3755 H         1 UNK         0.0800 
    133 H133        1.6554  -14.8595  -49.5545 H         1 UNK         0.0800 
    134 H134        3.2481  -15.5491  -51.4228 H         1 UNK         0.0800 
    135 H135        4.4858  -16.7563  -51.1926 H         1 UNK         0.0800 
    136 H136        0.8799  -16.1629  -51.3607 H         1 UNK         0.1150 
    137 H137       -0.1693  -20.3029  -50.9562 H         1 UNK         0.1150 
    138 H138        3.8753  -19.0637  -50.3675 H         1 UNK         0.1150 
    139 H139        1.4951  -21.9657  -50.6740 H         1 UNK         0.0800 
    140 H140        3.1541  -21.5230  -50.9810 H         1 UNK         0.0800 
    141 H141        1.0459  -20.5131  -47.2294 H         1 UNK         0.0800 
    142 H142        0.2903  -21.3447  -48.5609 H         1 UNK         0.0800 
    143 H143        0.7318  -23.5461  -47.5424 H         1 UNK         0.0600 
    144 H144        2.3048  -22.0422  -45.5798 H         1 UNK         0.3000 
    145 H145        3.0320  -24.8481  -43.5503 H         1 UNK         0.0600 
    146 H146        5.3874  -24.3178  -44.1343 H         1 UNK         0.0600 
    147 H147        4.6189  -25.2003  -45.4441 H         1 UNK         0.0600 
    148 H148        4.8618  -23.4636  -45.5860 H         1 UNK         0.0600 
    149 H149        4.0202  -22.1413  -43.6744 H         1 UNK         0.3000 
    150 H150        1.4511  -20.6549  -41.7362 H         1 UNK         0.0600 
    151 H151        2.8295  -21.8163  -39.9951 H         1 UNK         0.0600 
    152 H152        3.2630  -20.1236  -40.1527 H         1 UNK         0.0600 
    153 H153        4.2959  -21.3666  -40.8578 H         1 UNK         0.0600 
    154 H154        3.7664  -19.4029  -42.4242 H         1 UNK         0.3000 
    155 H155        4.3746  -18.5892  -44.7480 H         1 UNK         0.0600 
    156 H156        3.2758  -17.2248  -46.5351 H         1 UNK         0.0600 
    157 H157        1.7151  -17.9449  -46.1497 H         1 UNK         0.0600 
    158 H158        3.0141  -18.9396  -46.8053 H         1 UNK         0.0600 
    159 H159        1.9995  -17.1572  -43.6456 H         1 UNK         0.3000 
    160 H160        4.0038  -15.2787  -41.4591 H         1 UNK         0.0600 
    161 H161        2.4559  -14.1017  -43.8347 H         1 UNK         0.0600 
    162 H162        4.1273  -13.7338  -43.4314 H         1 UNK         0.0600 
    163 H163        2.8415  -13.2614  -42.3326 H         1 UNK         0.0600 
    164 H164        1.1985  -15.2461  -42.0823 H         1 UNK         0.3000 
    165 H165        0.2146  -18.2526  -40.7140 H         1 UNK         0.0600 
    166 H166       -0.1059  -15.6686  -39.0969 H         1 UNK         0.0600 
    167 H167       -1.1177  -17.1087  -38.9693 H         1 UNK         0.0600 
    168 H168        0.5670  -17.1733  -38.4813 H         1 UNK         0.0600 
    169 H169       -1.4493  -16.0748  -41.1765 H         1 UNK         0.3000 
    170 H170       -2.7974  -16.5481  -43.3376 H         1 UNK         0.0600 
    171 H171       -2.0042  -14.3378  -42.4634 H         1 UNK         0.0600 
    172 H172       -0.9319  -14.1560  -43.8482 H         1 UNK         0.0600 
    173 H173       -2.6802  -14.1517  -44.0682 H         1 UNK         0.0600 
    174 H174       -1.2115  -15.7242  -45.6719 H         1 UNK         0.3000 
    175 H175       -0.5861  -17.4294  -47.2578 H         1 UNK         0.0600 
    176 H176       -1.3247  -19.1458  -48.7787 H         1 UNK         0.0600 
    177 H177       -1.4197  -19.8321  -47.1665 H         1 UNK         0.0600 
    178 H178       -2.8799  -19.2959  -47.9823 H         1 UNK         0.0600 
    179 H179       -1.7366  -15.9336  -48.4205 H         1 UNK         0.3000 
    180 H180       -3.9226  -15.3104  -49.9398 H         1 UNK         0.0600 
    181 H181       -5.8814  -13.9542  -49.2318 H         1 UNK         0.0600 
    182 H182       -6.2100  -15.6668  -49.0465 H         1 UNK         0.0600 
    183 H183       -5.8370  -14.6921  -47.6293 H         1 UNK         0.0600 
    184 H184       -3.7132  -13.4669  -47.6580 H         1 UNK         0.3000 
    185 H185       -1.4027  -11.6558  -48.8247 H         1 UNK         0.0600 
    186 H186       -1.4156  -11.2912  -46.3271 H         1 UNK         0.0600 
    187 H187       -3.0052  -11.6685  -46.9595 H         1 UNK         0.0600 
    188 H188       -2.0839  -12.9017  -46.1015 H         1 UNK         0.0600 
    189 H189        0.6985  -12.2936  -48.5303 H         1 UNK         0.3000 
    190 H190        0.2647  -21.4497  -44.7157 H         1 UNK         0.3000 
    191 H191       -2.4706  -21.0364  -44.7899 H         1 UNK         0.0600 
    192 H192       -2.2302  -20.4316  -42.4247 H         1 UNK         0.0600 
    193 H193       -0.7866  -19.9105  -43.2771 H         1 UNK         0.0600 
    194 H194       -0.7482  -21.3659  -42.2800 H         1 UNK         0.0600 
    195 H195       -0.9533  -24.0577  -44.1247 H         1 UNK         0.3000 
    196 H196       -3.0368  -25.3732  -42.6639 H         1 UNK         0.0600 
    197 H197       -1.8888  -27.4390  -43.4837 H         1 UNK         0.0600 
    198 H198       -0.7311  -26.2798  -42.8479 H         1 UNK         0.0600 
    199 H199       -0.9176  -26.4741  -44.5902 H         1 UNK         0.0600 
    200 H200       -2.5914  -24.6104  -46.0990 H         1 UNK         0.3000 
    201 H201       -5.1675  -25.9616  -46.8166 H         1 UNK         0.0600 
    202 H202       -3.3021  -26.7390  -48.1895 H         1 UNK         0.0600 
    203 H203       -2.7859  -25.0930  -48.5272 H         1 UNK         0.0600 
    204 H204       -4.3119  -25.6913  -49.1728 H         1 UNK         0.0600 
    205 H205       -3.4361  -22.8936  -46.6202 H         1 UNK         0.3000 
    206 H206       -4.0287  -20.7726  -46.6507 H         1 UNK         0.0600 
    207 H207       -5.6741  -21.4079  -44.9219 H         1 UNK         0.0600 
    208 H208       -6.3058  -20.1074  -45.9117 H         1 UNK         0.0600 
    209 H209       -6.8906  -21.7569  -46.1423 H         1 UNK         0.0600 
    210 H210       -7.1520  -20.6342  -47.9010 H         1 UNK         0.3000 
    211 H211       -6.4256  -19.3827  -50.3118 H         1 UNK         0.0600 
    212 H212       -9.0887  -20.6422  -49.4732 H         1 UNK         0.0600 
    213 H213       -8.8745  -19.4981  -50.7930 H         1 UNK         0.0600 
    214 H214       -8.5690  -18.9884  -49.1413 H         1 UNK         0.0600 
    215 H215       -6.6605  -22.7972  -49.6609 H         1 UNK         0.3000 
    216 H216       -6.9377  -23.5461  -52.5132 H         1 UNK         0.0600 
    217 H217       -7.1255  -25.8301  -51.6104 H         1 UNK         0.0600 
    218 H218       -8.2432  -24.7735  -50.7647 H         1 UNK         0.0600 
    219 H219       -6.7396  -25.2701  -49.9900 H         1 UNK         0.0600 
    220 H220       -4.3436  -22.5590  -50.5498 H         1 UNK         0.3000 
    221 H221       -2.4529  -24.6348  -51.0411 H         1 UNK         0.0600 
    222 H222       -1.9460  -21.6965  -50.3581 H         1 UNK         0.0600 
    223 H223       -2.2881  -22.9517  -49.1867 H         1 UNK         0.0600 
    224 H224       -0.8168  -23.0297  -50.1457 H         1 UNK         0.0600 
    225 H225       -3.3189  -21.7335  -52.9178 H         1 UNK         0.3000 
    226 H226       -2.0887  -22.7329  -55.3023 H         1 UNK         0.0600 
    227 H227       -0.0423  -21.6927  -54.2422 H         1 UNK         0.0600 
    228 H228       -0.5546  -20.7614  -55.6366 H         1 UNK         0.0600 
    229 H229       -0.9182  -20.1829  -54.0161 H         1 UNK         0.0600 
    230 H230       -2.7010  -21.3473  -57.1343 H         1 UNK         0.3000 
    231 H231       -5.3038  -20.1976  -56.9453 H         1 UNK         0.0600 
    232 H232       -4.8904  -19.5849  -59.3333 H         1 UNK         0.0600 
    233 H233       -4.4273  -21.2491  -59.0173 H         1 UNK         0.0600 
    234 H234       -3.1893  -20.0000  -59.1599 H         1 UNK         0.0600 
    235 H235       -2.1079  -18.8291  -56.6074 H         1 UNK         0.3000 
    236 H236       -2.6930  -16.0558  -56.9238 H         1 UNK         0.0600 
    237 H237       -0.4892  -17.4889  -55.3373 H         1 UNK         0.0600 
    238 H238       -0.3938  -17.0078  -57.0326 H         1 UNK         0.0600 
    239 H239       -0.4854  -15.7852  -55.7758 H         1 UNK         0.0600 
    240 H240       -3.4734  -18.2659  -54.3255 H         1 UNK         0.3000 
    241 H241       -3.5638  -16.2620  -52.2282 H         1 UNK         0.0600 
    242 H242       -7.1546  -16.1072  -54.0360 H         1 UNK         0.3800 
    243 H243       -5.7590  -16.7898  -54.8318 H         1 UNK         0.3800 
    244 H244       -4.7843  -19.0514  -52.1599 H         1 UNK         0.0800 
    245 H245       -4.4101  -18.0354  -50.7945 H         1 UNK         0.0800 
    246 H246       -1.5959  -17.0855  -50.7069 H         1 UNK         0.0800 
    247 H247       -1.2584  -17.1900  -52.4208 H         1 UNK         0.0800 
@<TRIPOS>BOND
     1    1    2 1    
     2    1  127 1    
     3    1  128 1    
     4    1  129 1    
     5    2    3 2    
     6    2    4 am   BACKBONE|DICT|INTERRES
     7    4    5 1    
     8    4  130 1    
     9    5    6 1    
    10    5   65 1    
    11    5  131 1    
    12    6    7 1    
    13    6  132 1    
    14    6  133 1    
    15    7    8 1    
    16    8    9 1    
    17    8  134 1    
    18    8  135 1    
    19    9   10 ar   
    20    9   14 ar   
    21   10   11 ar   
    22   10  136 1    
    23   11   12 ar   
    24   11  126 1    
    25   12   13 ar   
    26   12  137 1    
    27   13   14 ar   
    28   13   15 1    
    29   14  138 1    
    30   15   16 1    
    31   15  139 1    
    32   15  140 1    
    33   16   17 1    
    34   17   18 1    
    35   17  141 1    
    36   17  142 1    
    37   18   19 1    
    38   18   67 1    
    39   18  143 1    
    40   19   20 am   BACKBONE|DICT|INTERRES
    41   19  144 1    
    42   20   21 2    
    43   20   22 1    
    44   22   23 1    
    45   22   24 1    
    46   22  145 1    
    47   23  146 1    
    48   23  147 1    
    49   23  148 1    
    50   24   25 am   BACKBONE|DICT|INTERRES
    51   24  149 1    
    52   25   26 2    
    53   25   27 1    
    54   27   28 1    
    55   27   29 1    
    56   27  150 1    
    57   28  151 1    
    58   28  152 1    
    59   28  153 1    
    60   29   30 am   BACKBONE|DICT|INTERRES
    61   29  154 1    
    62   30   31 2    
    63   30   32 1    
    64   32   33 1    
    65   32   34 1    
    66   32  155 1    
    67   33  156 1    
    68   33  157 1    
    69   33  158 1    
    70   34   35 am   BACKBONE|DICT|INTERRES
    71   34  159 1    
    72   35   36 2    
    73   35   37 1    
    74   37   38 1    
    75   37   39 1    
    76   37  160 1    
    77   38  161 1    
    78   38  162 1    
    79   38  163 1    
    80   39   40 am   BACKBONE|DICT|INTERRES
    81   39  164 1    
    82   40   41 2    
    83   40   42 1    
    84   42   43 1    
    85   42   44 1    
    86   42  165 1    
    87   43  166 1    
    88   43  167 1    
    89   43  168 1    
    90   44   45 am   BACKBONE|DICT|INTERRES
    91   44  169 1    
    92   45   46 2    
    93   45   47 1    
    94   47   48 1    
    95   47   49 1    
    96   47  170 1    
    97   48  171 1    
    98   48  172 1    
    99   48  173 1    
   100   49   50 am   BACKBONE|DICT|INTERRES
   101   49  174 1    
   102   50   51 2    
   103   50   52 1    
   104   52   53 1    
   105   52   54 1    
   106   52  175 1    
   107   53  176 1    
   108   53  177 1    
   109   53  178 1    
   110   54   55 am   BACKBONE|DICT|INTERRES
   111   54  179 1    
   112   55   56 2    
   113   55   57 1    
   114   57   58 1    
   115   57   59 1    
   116   57  180 1    
   117   58  181 1    
   118   58  182 1    
   119   58  183 1    
   120   59   60 am   BACKBONE|DICT|INTERRES
   121   59  184 1    
   122   60   61 2    
   123   60   62 1    
   124   62   63 1    
   125   62   64 1    
   126   62  185 1    
   127   63  186 1    
   128   63  187 1    
   129   63  188 1    
   130   64   65 am   BACKBONE|DICT|INTERRES
   131   64  189 1    
   132   65   66 2    
   133   67   68 2    
   134   67   69 am   BACKBONE|DICT|INTERRES
   135   69   70 1    
   136   69  190 1    
   137   70   71 1    
   138   70   72 1    
   139   70  191 1    
   140   71  192 1    
   141   71  193 1    
   142   71  194 1    
   143   72   73 2    
   144   72   74 am   BACKBONE|DICT|INTERRES
   145   74   75 1    
   146   74  195 1    
   147   75   76 1    
   148   75   77 1    
   149   75  196 1    
   150   76  197 1    
   151   76  198 1    
   152   76  199 1    
   153   77   78 2    
   154   77   79 am   BACKBONE|DICT|INTERRES
   155   79   80 1    
   156   79  200 1    
   157   80   81 1    
   158   80   82 1    
   159   80  201 1    
   160   81  202 1    
   161   81  203 1    
   162   81  204 1    
   163   82   83 2    
   164   82   84 am   BACKBONE|DICT|INTERRES
   165   84   85 1    
   166   84  205 1    
   167   85   86 1    
   168   85   87 1    
   169   85  206 1    
   170   86  207 1    
   171   86  208 1    
   172   86  209 1    
   173   87   88 2    
   174   87   89 am   BACKBONE|DICT|INTERRES
   175   89   90 1    
   176   89  210 1    
   177   90   91 1    
   178   90   92 1    
   179   90  211 1    
   180   91  212 1    
   181   91  213 1    
   182   91  214 1    
   183   92   93 2    
   184   92   94 am   BACKBONE|DICT|INTERRES
   185   94   95 1    
   186   94  215 1    
   187   95   96 1    
   188   95   97 1    
   189   95  216 1    
   190   96  217 1    
   191   96  218 1    
   192   96  219 1    
   193   97   98 2    
   194   97   99 am   BACKBONE|DICT|INTERRES
   195   99  100 1    
   196   99  220 1    
   197  100  101 1    
   198  100  102 1    
   199  100  221 1    
   200  101  222 1    
   201  101  223 1    
   202  101  224 1    
   203  102  103 2    
   204  102  104 am   BACKBONE|DICT|INTERRES
   205  104  105 1    
   206  104  225 1    
   207  105  106 1    
   208  105  107 1    
   209  105  226 1    
   210  106  227 1    
   211  106  228 1    
   212  106  229 1    
   213  107  108 2    
   214  107  109 am   BACKBONE|DICT|INTERRES
   215  109  110 1    
   216  109  230 1    
   217  110  111 1    
   218  110  112 1    
   219  110  231 1    
   220  111  232 1    
   221  111  233 1    
   222  111  234 1    
   223  112  113 2    
   224  112  114 am   BACKBONE|DICT|INTERRES
   225  114  115 1    
   226  114  235 1    
   227  115  116 1    
   228  115  117 1    
   229  115  236 1    
   230  116  237 1    
   231  116  238 1    
   232  116  239 1    
   233  117  118 2    
   234  117  119 am   BACKBONE|DICT|INTERRES
   235  119  120 1    
   236  119  240 1    
   237  120  121 1    
   238  120  124 1    
   239  120  241 1    
   240  121  122 am   BACKBONE|DICT|INTERRES
   241  121  123 2    
   242  122  242 1    
   243  122  243 1    
   244  124  125 1    
   245  124  244 1    
   246  124  245 1    
   247  125  126 1    
   248  126  246 1    
   249  126  247 1    
@<TRIPOS>SUBSTRUCTURE
     1 UNK         1 GROUP             0       ****    0 ROOT    
