@<TRIPOS>MOLECULE
3R540
247   249    1
SMALL
USER_CHARGES


@<TRIPOS>ATOM
      1 CA         -0.4700  -16.8448  -49.5142 C.3       0 UNK        -0.1800 
      2 C          -0.5402  -15.3628  -49.1782 C.2       0 UNK         0.5000 
      3 O          -1.6341  -14.8336  -48.9832 O.2       0 UNK        -0.5000 
      4 N           0.6177  -14.6925  -49.1134 N.am      1 UNK        -0.5000 
      5 CA          0.7637  -13.2832  -48.7339 C.3       1 UNK         0.1400 
      6 C6          2.2120  -12.7698  -48.9280 C.3       23 UNK        -0.0398 
      7 S7          2.8071  -12.9018  -50.6466 S.3       23 UNK        -0.2404 
      8 C8          4.2329  -14.0201  -50.4587 C.3       23 UNK        -0.0205 
      9 C9          3.8184  -15.4837  -50.4750 C.ar      23 UNK        -0.0193 
     10 C10         3.6652  -16.1409  -51.6972 C.ar      23 UNK        -0.1150 
     11 C11         3.3184  -17.4919  -51.7383 C.ar      23 UNK        -0.0193 
     12 C12         3.1199  -18.1877  -50.5433 C.ar      23 UNK        -0.1150 
     13 C13         3.2746  -17.5484  -49.3041 C.ar      23 UNK        -0.0193 
     14 C14         3.6217  -16.1917  -49.2844 C.ar      23 UNK        -0.1150 
     15 C15         3.1019  -18.2712  -47.9641 C.3       23 UNK        -0.0205 
     16 S16         2.7453  -20.0639  -48.0506 S.3       23 UNK        -0.2404 
     17 C17         0.9311  -20.0906  -48.2588 C.3       23 UNK        -0.0398 
     18 CA          0.3153  -21.3886  -47.6828 C.3       11 UNK         0.1400 
     19 N           0.4581  -21.4898  -46.2250 N.am      11 UNK        -0.5000 
     20 C           0.2188  -22.6040  -45.5186 C.2       10 UNK         0.5000 
     21 O          -0.1068  -23.6744  -46.0308 O.2       10 UNK        -0.5000 
     22 CA          0.3056  -22.4997  -43.9841 C.3       10 UNK         0.1400 
     23 CB          1.7648  -22.5536  -43.5088 C.3       10 UNK        -0.1800 
     24 N          -0.3506  -21.2976  -43.4654 N.am      10 UNK        -0.5000 
     25 C          -1.6684  -21.0636  -43.5550 C.2       9 UNK         0.5000 
     26 O          -2.4700  -21.8664  -44.0298 O.2       9 UNK        -0.5000 
     27 CA         -2.1744  -19.6852  -43.0900 C.3       9 UNK         0.1400 
     28 CB         -2.4131  -19.6648  -41.5733 C.3       9 UNK        -0.1800 
     29 N          -1.2684  -18.5996  -43.4594 N.am      9 UNK        -0.5000 
     30 C          -0.9521  -18.2610  -44.7178 C.2       8 UNK         0.5000 
     31 O          -1.4356  -18.7870  -45.7191 O.2       8 UNK        -0.5000 
     32 CA          0.1449  -17.1978  -44.8727 C.3       8 UNK         0.1400 
     33 CB         -0.4378  -15.7946  -44.6487 C.3       8 UNK        -0.1800 
     34 N           1.2566  -17.4537  -43.9506 N.am      8 UNK        -0.5000 
     35 C           2.0676  -18.5196  -44.0423 C.2       7 UNK         0.5000 
     36 O           1.9940  -19.3401  -44.9533 O.2       7 UNK        -0.5000 
     37 CA          3.0776  -18.7617  -42.9057 C.3       7 UNK         0.1400 
     38 CB          4.4666  -18.2048  -43.2430 C.3       7 UNK        -0.1800 
     39 N           2.6166  -18.2189  -41.6298 N.am      7 UNK        -0.5000 
     40 C           1.6753  -18.8071  -40.8784 C.2       6 UNK         0.5000 
     41 O           1.1606  -19.8893  -41.1610 O.2       6 UNK        -0.5000 
     42 CA          1.1884  -18.0352  -39.6371 C.3       6 UNK         0.1400 
     43 CB          2.0541  -18.3753  -38.4153 C.3       6 UNK        -0.1800 
     44 N           1.1730  -16.5829  -39.8306 N.am      6 UNK        -0.5000 
     45 C           0.4313  -15.9428  -40.7446 C.2       5 UNK         0.5000 
     46 O          -0.3457  -16.5221  -41.5035 O.2       5 UNK        -0.5000 
     47 CA          0.5988  -14.4136  -40.8587 C.3       5 UNK         0.1400 
     48 CB          1.1871  -13.7591  -39.5897 C.3       5 UNK        -0.1800 
     49 N           1.3756  -14.0095  -42.0365 N.am      5 UNK        -0.5000 
     50 C           2.6218  -14.3874  -42.3710 C.2       4 UNK         0.5000 
     51 O           3.2535  -15.2535  -41.7645 O.2       4 UNK        -0.5000 
     52 CA          3.2911  -13.6810  -43.5729 C.3       4 UNK         0.1400 
     53 CB          3.5537  -14.6526  -44.7357 C.3       4 UNK        -0.1800 
     54 N           2.5214  -12.5435  -44.0780 N.am      4 UNK        -0.5000 
     55 C           2.4804  -11.3314  -43.5041 C.2       3 UNK         0.5000 
     56 O           3.1307  -11.0350  -42.5012 O.2       3 UNK        -0.5000 
     57 CA          1.5535  -10.2705  -44.1364 C.3       3 UNK         0.1400 
     58 CB          2.3756   -9.2582  -44.9489 C.3       3 UNK        -0.1800 
     59 N           0.5052  -10.8213  -44.9985 N.am      3 UNK        -0.5000 
     60 C          -0.4792  -11.6410  -44.6050 C.2       2 UNK         0.5000 
     61 O          -0.6396  -12.0071  -43.4397 O.2       2 UNK        -0.5000 
     62 CA         -1.4027  -12.1893  -45.7117 C.3       2 UNK         0.1400 
     63 CB         -2.6353  -11.2873  -45.8727 C.3       2 UNK        -0.1800 
     64 N          -0.7657  -12.3705  -47.0251 N.am      2 UNK        -0.5000 
     65 C           0.3423  -13.0871  -47.2653 C.2       1 UNK         0.5000 
     66 O           1.0391  -13.5854  -46.3824 O.2       1 UNK        -0.5000 
     67 C          -1.1511  -21.5706  -48.1318 C.2       11 UNK         0.5000 
     68 O          -1.3949  -22.2484  -49.1299 O.2       11 UNK        -0.5000 
     69 N          -2.1064  -21.0207  -47.3681 N.am      12 UNK        -0.5000 
     70 CA         -3.5421  -21.2240  -47.5700 C.3       12 UNK         0.1400 
     71 CB         -4.3389  -20.2725  -46.6665 C.3       12 UNK        -0.1800 
     72 C          -3.9713  -22.6877  -47.3569 C.2       12 UNK         0.5000 
     73 O          -4.7334  -23.2174  -48.1647 O.2       12 UNK        -0.5000 
     74 N          -3.4435  -23.3329  -46.3076 N.am      13 UNK        -0.5000 
     75 CA         -3.6590  -24.7515  -46.0154 C.3       13 UNK         0.1400 
     76 CB         -3.0944  -25.0882  -44.6273 C.3       13 UNK        -0.1800 
     77 C          -3.0665  -25.6825  -47.0902 C.2       13 UNK         0.5000 
     78 O          -3.6862  -26.6948  -47.4156 O.2       13 UNK        -0.5000 
     79 N          -1.9011  -25.3128  -47.6405 N.am      14 UNK        -0.5000 
     80 CA         -1.2499  -26.0053  -48.7535 C.3       14 UNK         0.1400 
     81 CB          0.1892  -25.4913  -48.9102 C.3       14 UNK        -0.1800 
     82 C          -2.0297  -25.8695  -50.0756 C.2       14 UNK         0.5000 
     83 O          -2.1255  -26.8442  -50.8224 O.2       14 UNK        -0.5000 
     84 N          -2.5883  -24.6770  -50.3314 N.am      15 UNK        -0.5000 
     85 CA         -3.4676  -24.3934  -51.4696 C.3       15 UNK         0.1400 
     86 CB         -3.6711  -22.8777  -51.5813 C.3       15 UNK        -0.1800 
     87 C          -4.8217  -25.1261  -51.3718 C.2       15 UNK         0.5000 
     88 O          -5.3603  -25.5432  -52.3988 O.2       15 UNK        -0.5000 
     89 N          -5.3115  -25.3029  -50.1357 N.am      16 UNK        -0.5000 
     90 CA         -6.4647  -26.1011  -49.7193 C.3       16 UNK         0.1400 
     91 CB         -6.1777  -27.6059  -49.9184 C.3       16 UNK        -0.1800 
     92 C          -7.7777  -25.6372  -50.3769 C.2       16 UNK         0.5000 
     93 O          -8.4260  -24.7271  -49.8591 O.2       16 UNK        -0.5000 
     94 N          -8.1530  -26.2783  -51.4916 N.am      17 UNK        -0.5000 
     95 CA         -9.3346  -25.9524  -52.2886 C.3       17 UNK         0.1400 
     96 CB         -9.6177  -27.1093  -53.2590 C.3       17 UNK        -0.1800 
     97 C          -9.1951  -24.6242  -53.0560 C.2       17 UNK         0.5000 
     98 O         -10.2077  -23.9721  -53.3158 O.2       17 UNK        -0.5000 
     99 N          -7.9577  -24.2428  -53.4016 N.am      18 UNK        -0.5000 
    100 CA        -7.6424  -22.9516  -54.0055 C.3       18 UNK         0.1400 
    101 CB        -6.3575  -23.0800  -54.8353 C.3       18 UNK        -0.1800 
    102 C         -7.4938  -21.8800  -52.9126 C.2       18 UNK         0.5000 
    103 O         -6.9731  -22.1690  -51.8326 O.2       18 UNK        -0.5000 
    104 N         -7.9321  -20.6531  -53.2170 N.am      19 UNK        -0.5000 
    105 CA        -7.9540  -19.5066  -52.3053 C.3       19 UNK         0.1400 
    106 CB        -8.9947  -18.4942  -52.8178 C.3       19 UNK        -0.1800 
    107 C         -6.5575  -18.8775  -52.1144 C.2       19 UNK         0.5000 
    108 O         -6.3305  -17.7386  -52.5264 O.2       19 UNK        -0.5000 
    109 N         -5.6452  -19.6489  -51.5062 N.am      20 UNK        -0.5000 
    110 CA        -4.2529  -19.3018  -51.1916 C.3       20 UNK         0.1400 
    111 CB        -4.1936  -18.1883  -50.1258 C.3       20 UNK        -0.1800 
    112 C         -3.3989  -18.9998  -52.4415 C.2       20 UNK         0.5000 
    113 O         -2.5071  -18.1519  -52.3942 O.2       20 UNK        -0.5000 
    114 N         -3.6929  -19.7026  -53.5437 N.am      21 UNK        -0.5000 
    115 CA        -2.9658  -19.6082  -54.8067 C.3       21 UNK         0.1400 
    116 CB        -3.7840  -20.2985  -55.9081 C.3       21 UNK        -0.1800 
    117 C         -1.5672  -20.2415  -54.6990 C.2       21 UNK         0.5000 
    118 O         -1.4213  -21.3054  -54.0927 O.2       21 UNK        -0.5000 
    119 N         -0.5787  -19.5893  -55.3174 N.am      22 UNK        -0.5000 
    120 CA         0.8250  -20.0345  -55.3564 C.3       22 UNK         0.1400 
    121 C          1.1378  -21.0634  -56.4836 C.2       22 UNK         0.5000 
    122 N          0.2062  -21.3903  -57.3713 N.am      22 UNK        -0.7600 
    123 O          2.2473  -21.5856  -56.5485 O.2       22 UNK        -0.5000 
    124 C124        1.7954  -18.8273  -55.4159 C.3       23 UNK        -0.0398 
    125 S125        1.6609  -17.7602  -53.9398 S.3       23 UNK        -0.2404 
    126 C126        3.1965  -18.2059  -53.0748 C.3       23 UNK        -0.0205 
    127 H127       -0.9833  -17.0384  -50.4552 H         1 UNK         0.0600 
    128 H128       -0.9520  -17.4302  -48.7313 H         1 UNK         0.0600 
    129 H129        0.5564  -17.1901  -49.6159 H         1 UNK         0.0600 
    130 H130        1.4821  -15.1777  -49.3081 H         1 UNK         0.3000 
    131 H131        0.1033  -12.6934  -49.3730 H         1 UNK         0.0600 
    132 H132        2.8985  -13.2974  -48.2634 H         1 UNK         0.0800 
    133 H133        2.2775  -11.7174  -48.6459 H         1 UNK         0.0800 
    134 H134        4.7865  -13.7833  -49.5489 H         1 UNK         0.0800 
    135 H135        4.9255  -13.8345  -51.2811 H         1 UNK         0.0800 
    136 H136        3.8230  -15.6016  -52.6209 H         1 UNK         0.1150 
    137 H137        2.8586  -19.2336  -50.5960 H         1 UNK         0.1150 
    138 H138        3.7544  -15.6890  -48.3361 H         1 UNK         0.1150 
    139 H139        4.0250  -18.1529  -47.3951 H         1 UNK         0.0800 
    140 H140        2.3264  -17.7736  -47.3820 H         1 UNK         0.0800 
    141 H141        0.7171  -19.9955  -49.3249 H         1 UNK         0.0800 
    142 H142        0.4917  -19.2191  -47.7720 H         1 UNK         0.0800 
    143 H143        0.8679  -22.2269  -48.1129 H         1 UNK         0.0600 
    144 H144        0.7931  -20.6604  -45.7429 H         1 UNK         0.3000 
    145 H145       -0.2133  -23.3632  -43.5629 H         1 UNK         0.0600 
    146 H146        1.8335  -22.4597  -42.4248 H         1 UNK         0.0600 
    147 H147        2.2243  -23.5037  -43.7837 H         1 UNK         0.0600 
    148 H148        2.3669  -21.7635  -43.9551 H         1 UNK         0.0600 
    149 H149        0.2374  -20.6098  -43.0116 H         1 UNK         0.3000 
    150 H150       -3.1295  -19.4985  -43.5845 H         1 UNK         0.0600 
    151 H151       -3.1275  -20.4357  -41.2819 H         1 UNK         0.0600 
    152 H152       -2.8187  -18.7056  -41.2510 H         1 UNK         0.0600 
    153 H153       -1.4941  -19.8427  -41.0154 H         1 UNK         0.0600 
    154 H154       -0.8474  -18.0721  -42.7012 H         1 UNK         0.3000 
    155 H155        0.5347  -17.2441  -45.8911 H         1 UNK         0.0600 
    156 H156       -1.1249  -15.7531  -43.8042 H         1 UNK         0.0600 
    157 H157       -0.9959  -15.4753  -45.5291 H         1 UNK         0.0600 
    158 H158        0.3419  -15.0591  -44.4675 H         1 UNK         0.0600 
    159 H159        1.3138  -16.8665  -43.1313 H         1 UNK         0.3000 
    160 H160        3.1858  -19.8430  -42.8026 H         1 UNK         0.0600 
    161 H161        4.4941  -17.1205  -43.1776 H         1 UNK         0.0600 
    162 H162        4.7741  -18.4883  -44.2506 H         1 UNK         0.0600 
    163 H163        5.2167  -18.5921  -42.5535 H         1 UNK         0.0600 
    164 H164        2.9604  -17.3003  -41.3695 H         1 UNK         0.3000 
    165 H165        0.1647  -18.3552  -39.4319 H         1 UNK         0.0600 
    166 H166        1.6680  -17.8998  -37.5134 H         1 UNK         0.0600 
    167 H167        2.0677  -19.4509  -38.2340 H         1 UNK         0.0600 
    168 H168        3.0869  -18.0517  -38.5508 H         1 UNK         0.0600 
    169 H169        1.8108  -16.0418  -39.2653 H         1 UNK         0.3000 
    170 H170       -0.4048  -14.0098  -41.0010 H         1 UNK         0.0600 
    171 H171        0.6096  -14.0264  -38.7037 H         1 UNK         0.0600 
    172 H172        2.2234  -14.0502  -39.4144 H         1 UNK         0.0600 
    173 H173        1.1637  -12.6722  -39.6706 H         1 UNK         0.0600 
    174 H174        0.9230  -13.3184  -42.6234 H         1 UNK         0.3000 
    175 H175        4.2587  -13.3099  -43.2291 H         1 UNK         0.0600 
    176 H176        2.6648  -15.2215  -45.0056 H         1 UNK         0.0600 
    177 H177        3.8894  -14.1223  -45.6272 H         1 UNK         0.0600 
    178 H178        4.3383  -15.3618  -44.4815 H         1 UNK         0.0600 
    179 H179        1.9497  -12.7262  -44.8984 H         1 UNK         0.3000 
    180 H180        1.0647   -9.7387  -43.3176 H         1 UNK         0.0600 
    181 H181        2.8701   -9.7320  -45.7978 H         1 UNK         0.0600 
    182 H182        3.1496   -8.7978  -44.3332 H         1 UNK         0.0600 
    183 H183        1.7466   -8.4539  -45.3310 H         1 UNK         0.0600 
    184 H184        0.5615  -10.5897  -45.9791 H         1 UNK         0.3000 
    185 H185       -1.7461  -13.1712  -45.3824 H         1 UNK         0.0600 
    186 H186       -3.1476  -11.1499  -44.9193 H         1 UNK         0.0600 
    187 H187       -2.3642  -10.2988  -46.2454 H         1 UNK         0.0600 
    188 H188       -3.3555  -11.7227  -46.5658 H         1 UNK         0.0600 
    189 H189       -1.2817  -12.0103  -47.8150 H         1 UNK         0.3000 
    190 H190       -1.8335  -20.4167  -46.5968 H         1 UNK         0.3000 
    191 H191       -3.7696  -20.9666  -48.6041 H         1 UNK         0.0600 
    192 H192       -4.1676  -20.4792  -45.6107 H         1 UNK         0.0600 
    193 H193       -5.4097  -20.3679  -46.8500 H         1 UNK         0.0600 
    194 H194       -4.0676  -19.2330  -46.8521 H         1 UNK         0.0600 
    195 H195       -2.8729  -22.8134  -45.6459 H         1 UNK         0.3000 
    196 H196       -4.7370  -24.9237  -45.9905 H         1 UNK         0.0600 
    197 H197       -3.2702  -26.1353  -44.3779 H         1 UNK         0.0600 
    198 H198       -3.5684  -24.4853  -43.8526 H         1 UNK         0.0600 
    199 H199       -2.0198  -24.9144  -44.5752 H         1 UNK         0.0600 
    200 H200       -1.4149  -24.5098  -47.2531 H         1 UNK         0.3000 
    201 H201       -1.2022  -27.0675  -48.5043 H         1 UNK         0.0600 
    202 H202        0.7610  -25.6339  -47.9930 H         1 UNK         0.0600 
    203 H203        0.2146  -24.4304  -49.1582 H         1 UNK         0.0600 
    204 H204        0.7096  -26.0263  -49.7054 H         1 UNK         0.0600 
    205 H205       -2.3965  -23.9049  -49.7012 H         1 UNK         0.3000 
    206 H206       -2.9664  -24.7368  -52.3768 H         1 UNK         0.0600 
    207 H207       -2.7174  -22.3542  -51.6531 H         1 UNK         0.0600 
    208 H208       -4.2462  -22.6226  -52.4698 H         1 UNK         0.0600 
    209 H209       -4.2099  -22.4878  -50.7182 H         1 UNK         0.0600 
    210 H210       -4.8482  -24.8030  -49.3837 H         1 UNK         0.3000 
    211 H211       -6.5786  -25.9310  -48.6476 H         1 UNK         0.0600 
    212 H212       -5.9519  -27.8551  -50.9555 H         1 UNK         0.0600 
    213 H213       -7.0299  -28.2121  -49.6085 H         1 UNK         0.0600 
    214 H214       -5.3247  -27.9193  -49.3165 H         1 UNK         0.0600 
    215 H215       -7.5362  -26.9866  -51.8628 H         1 UNK         0.3000 
    216 H216      -10.1873  -25.8566  -51.6131 H         1 UNK         0.0600 
    217 H217      -10.5105  -26.9106  -53.8535 H         1 UNK         0.0600 
    218 H218       -9.7873  -28.0427  -52.7219 H         1 UNK         0.0600 
    219 H219       -8.7897  -27.2650  -53.9518 H         1 UNK         0.0600 
    220 H220       -7.1688  -24.7978  -53.0863 H         1 UNK         0.3000 
    221 H221       -8.4510  -22.6601  -54.6795 H         1 UNK         0.0600 
    222 H222       -5.5086  -23.3927  -54.2285 H         1 UNK         0.0600 
    223 H223       -6.4795  -23.8114  -55.6343 H         1 UNK         0.0600 
    224 H224       -6.1032  -22.1294  -55.3034 H         1 UNK         0.0600 
    225 H225       -8.3106  -20.4876  -54.1385 H         1 UNK         0.3000 
    226 H226       -8.2882  -19.8495  -51.3236 H         1 UNK         0.0600 
    227 H227       -9.9875  -18.9417  -52.8695 H         1 UNK         0.0600 
    228 H228       -9.0638  -17.6330  -52.1520 H         1 UNK         0.0600 
    229 H229       -8.7421  -18.1227  -53.8117 H         1 UNK         0.0600 
    230 H230       -5.9362  -20.5952  -51.2746 H         1 UNK         0.3000 
    231 H231       -3.8071  -20.1895  -50.7481 H         1 UNK         0.0600 
    232 H232       -3.1769  -18.0560  -49.7565 H         1 UNK         0.0600 
    233 H233       -4.8180  -18.4305  -49.2660 H         1 UNK         0.0600 
    234 H234       -4.5255  -17.2285  -50.5227 H         1 UNK         0.0600 
    235 H235       -4.4275  -20.3906  -53.4932 H         1 UNK         0.3000 
    236 H236       -2.8642  -18.5510  -55.0619 H         1 UNK         0.0600 
    237 H237       -3.8719  -21.3708  -55.7293 H         1 UNK         0.0600 
    238 H238       -4.7893  -19.8822  -55.9767 H         1 UNK         0.0600 
    239 H239       -3.3123  -20.1684  -56.8827 H         1 UNK         0.0600 
    240 H240       -0.7795  -18.7223  -55.7940 H         1 UNK         0.3000 
    241 H241        1.0360  -20.5644  -54.4252 H         1 UNK         0.0600 
    242 H242        0.4215  -22.0617  -58.0919 H         1 UNK         0.3800 
    243 H243       -0.7110  -20.9769  -57.3295 H         1 UNK         0.3800 
    244 H244        2.8292  -19.1629  -55.5161 H         1 UNK         0.0800 
    245 H245        1.5927  -18.2208  -56.2999 H         1 UNK         0.0800 
    246 H246        4.0530  -17.9493  -53.7001 H         1 UNK         0.0800 
    247 H247        3.2291  -19.2875  -52.9339 H         1 UNK         0.0800 
@<TRIPOS>BOND
     1    1    2 1    
     2    1  127 1    
     3    1  128 1    
     4    1  129 1    
     5    2    3 2    
     6    2    4 am   BACKBONE|DICT|INTERRES
     7    4    5 1    
     8    4  130 1    
     9    5    6 1    
    10    5   65 1    
    11    5  131 1    
    12    6    7 1    
    13    6  132 1    
    14    6  133 1    
    15    7    8 1    
    16    8    9 1    
    17    8  134 1    
    18    8  135 1    
    19    9   10 ar   
    20    9   14 ar   
    21   10   11 ar   
    22   10  136 1    
    23   11   12 ar   
    24   11  126 1    
    25   12   13 ar   
    26   12  137 1    
    27   13   14 ar   
    28   13   15 1    
    29   14  138 1    
    30   15   16 1    
    31   15  139 1    
    32   15  140 1    
    33   16   17 1    
    34   17   18 1    
    35   17  141 1    
    36   17  142 1    
    37   18   19 1    
    38   18   67 1    
    39   18  143 1    
    40   19   20 am   BACKBONE|DICT|INTERRES
    41   19  144 1    
    42   20   21 2    
    43   20   22 1    
    44   22   23 1    
    45   22   24 1    
    46   22  145 1    
    47   23  146 1    
    48   23  147 1    
    49   23  148 1    
    50   24   25 am   BACKBONE|DICT|INTERRES
    51   24  149 1    
    52   25   26 2    
    53   25   27 1    
    54   27   28 1    
    55   27   29 1    
    56   27  150 1    
    57   28  151 1    
    58   28  152 1    
    59   28  153 1    
    60   29   30 am   BACKBONE|DICT|INTERRES
    61   29  154 1    
    62   30   31 2    
    63   30   32 1    
    64   32   33 1    
    65   32   34 1    
    66   32  155 1    
    67   33  156 1    
    68   33  157 1    
    69   33  158 1    
    70   34   35 am   BACKBONE|DICT|INTERRES
    71   34  159 1    
    72   35   36 2    
    73   35   37 1    
    74   37   38 1    
    75   37   39 1    
    76   37  160 1    
    77   38  161 1    
    78   38  162 1    
    79   38  163 1    
    80   39   40 am   BACKBONE|DICT|INTERRES
    81   39  164 1    
    82   40   41 2    
    83   40   42 1    
    84   42   43 1    
    85   42   44 1    
    86   42  165 1    
    87   43  166 1    
    88   43  167 1    
    89   43  168 1    
    90   44   45 am   BACKBONE|DICT|INTERRES
    91   44  169 1    
    92   45   46 2    
    93   45   47 1    
    94   47   48 1    
    95   47   49 1    
    96   47  170 1    
    97   48  171 1    
    98   48  172 1    
    99   48  173 1    
   100   49   50 am   BACKBONE|DICT|INTERRES
   101   49  174 1    
   102   50   51 2    
   103   50   52 1    
   104   52   53 1    
   105   52   54 1    
   106   52  175 1    
   107   53  176 1    
   108   53  177 1    
   109   53  178 1    
   110   54   55 am   BACKBONE|DICT|INTERRES
   111   54  179 1    
   112   55   56 2    
   113   55   57 1    
   114   57   58 1    
   115   57   59 1    
   116   57  180 1    
   117   58  181 1    
   118   58  182 1    
   119   58  183 1    
   120   59   60 am   BACKBONE|DICT|INTERRES
   121   59  184 1    
   122   60   61 2    
   123   60   62 1    
   124   62   63 1    
   125   62   64 1    
   126   62  185 1    
   127   63  186 1    
   128   63  187 1    
   129   63  188 1    
   130   64   65 am   BACKBONE|DICT|INTERRES
   131   64  189 1    
   132   65   66 2    
   133   67   68 2    
   134   67   69 am   BACKBONE|DICT|INTERRES
   135   69   70 1    
   136   69  190 1    
   137   70   71 1    
   138   70   72 1    
   139   70  191 1    
   140   71  192 1    
   141   71  193 1    
   142   71  194 1    
   143   72   73 2    
   144   72   74 am   BACKBONE|DICT|INTERRES
   145   74   75 1    
   146   74  195 1    
   147   75   76 1    
   148   75   77 1    
   149   75  196 1    
   150   76  197 1    
   151   76  198 1    
   152   76  199 1    
   153   77   78 2    
   154   77   79 am   BACKBONE|DICT|INTERRES
   155   79   80 1    
   156   79  200 1    
   157   80   81 1    
   158   80   82 1    
   159   80  201 1    
   160   81  202 1    
   161   81  203 1    
   162   81  204 1    
   163   82   83 2    
   164   82   84 am   BACKBONE|DICT|INTERRES
   165   84   85 1    
   166   84  205 1    
   167   85   86 1    
   168   85   87 1    
   169   85  206 1    
   170   86  207 1    
   171   86  208 1    
   172   86  209 1    
   173   87   88 2    
   174   87   89 am   BACKBONE|DICT|INTERRES
   175   89   90 1    
   176   89  210 1    
   177   90   91 1    
   178   90   92 1    
   179   90  211 1    
   180   91  212 1    
   181   91  213 1    
   182   91  214 1    
   183   92   93 2    
   184   92   94 am   BACKBONE|DICT|INTERRES
   185   94   95 1    
   186   94  215 1    
   187   95   96 1    
   188   95   97 1    
   189   95  216 1    
   190   96  217 1    
   191   96  218 1    
   192   96  219 1    
   193   97   98 2    
   194   97   99 am   BACKBONE|DICT|INTERRES
   195   99  100 1    
   196   99  220 1    
   197  100  101 1    
   198  100  102 1    
   199  100  221 1    
   200  101  222 1    
   201  101  223 1    
   202  101  224 1    
   203  102  103 2    
   204  102  104 am   BACKBONE|DICT|INTERRES
   205  104  105 1    
   206  104  225 1    
   207  105  106 1    
   208  105  107 1    
   209  105  226 1    
   210  106  227 1    
   211  106  228 1    
   212  106  229 1    
   213  107  108 2    
   214  107  109 am   BACKBONE|DICT|INTERRES
   215  109  110 1    
   216  109  230 1    
   217  110  111 1    
   218  110  112 1    
   219  110  231 1    
   220  111  232 1    
   221  111  233 1    
   222  111  234 1    
   223  112  113 2    
   224  112  114 am   BACKBONE|DICT|INTERRES
   225  114  115 1    
   226  114  235 1    
   227  115  116 1    
   228  115  117 1    
   229  115  236 1    
   230  116  237 1    
   231  116  238 1    
   232  116  239 1    
   233  117  118 2    
   234  117  119 am   BACKBONE|DICT|INTERRES
   235  119  120 1    
   236  119  240 1    
   237  120  121 1    
   238  120  124 1    
   239  120  241 1    
   240  121  122 am   BACKBONE|DICT|INTERRES
   241  121  123 2    
   242  122  242 1    
   243  122  243 1    
   244  124  125 1    
   245  124  244 1    
   246  124  245 1    
   247  125  126 1    
   248  126  246 1    
   249  126  247 1    
@<TRIPOS>SUBSTRUCTURE
     1 UNK         1 GROUP             0       ****    0 ROOT    
