@<TRIPOS>MOLECULE
3R540
247   249    1
SMALL
USER_CHARGES


@<TRIPOS>ATOM
      1 CA         -3.3329  -10.7930  -47.1297 C.3       0 UNK        -0.1800 
      2 C          -2.0031  -11.4790  -46.8544 C.2       0 UNK         0.5000 
      3 O          -1.3601  -11.1866  -45.8466 O.2       0 UNK        -0.5000 
      4 N          -1.5954  -12.4024  -47.7356 N.am      1 UNK        -0.5000 
      5 CA         -0.3459  -13.1743  -47.6567 C.3       1 UNK         0.1400 
      6 C6         -0.1127  -14.0465  -48.9171 C.3       23 UNK        -0.0398 
      7 S7         -1.5337  -15.1092  -49.3637 S.3       23 UNK        -0.2404 
      8 C8         -0.9263  -16.7696  -48.9065 C.3       23 UNK        -0.0205 
      9 C9          0.1821  -17.3344  -49.7952 C.ar      23 UNK        -0.0193 
     10 C10         0.3391  -16.9503  -51.1335 C.ar      23 UNK        -0.1150 
     11 C11         1.3456  -17.5106  -51.9248 C.ar      23 UNK        -0.0193 
     12 C12         2.1915  -18.4771  -51.3754 C.ar      23 UNK        -0.1150 
     13 C13         2.0478  -18.8771  -50.0437 C.ar      23 UNK        -0.0193 
     14 C14         1.0456  -18.2953  -49.2600 C.ar      23 UNK        -0.1150 
     15 C15         2.9979  -19.9138  -49.4566 C.3       23 UNK        -0.0205 
     16 S16         2.1703  -21.4974  -49.0924 S.3       23 UNK        -0.2404 
     17 C17         1.9110  -21.3294  -47.2953 C.3       23 UNK        -0.0398 
     18 CA          0.7754  -22.1999  -46.7102 C.3       11 UNK         0.1400 
     19 N           0.7976  -22.1597  -45.2462 N.am      11 UNK        -0.5000 
     20 C           0.0384  -22.9057  -44.4331 C.2       10 UNK         0.5000 
     21 O          -0.7312  -23.7809  -44.8268 O.2       10 UNK        -0.5000 
     22 CA          0.1134  -22.5786  -42.9300 C.3       10 UNK         0.1400 
     23 CB          1.3390  -23.2403  -42.2832 C.3       10 UNK        -0.1800 
     24 N           0.1367  -21.1370  -42.6724 N.am      10 UNK        -0.5000 
     25 C          -0.8659  -20.2981  -42.9720 C.2       9 UNK         0.5000 
     26 O          -1.9414  -20.6635  -43.4444 O.2       9 UNK        -0.5000 
     27 CA         -0.6069  -18.7965  -42.7542 C.3       9 UNK         0.1400 
     28 CB         -0.7606  -18.4314  -41.2698 C.3       9 UNK        -0.1800 
     29 N           0.7117  -18.3858  -43.2404 N.am      9 UNK        -0.5000 
     30 C           1.1016  -18.4401  -44.5225 C.2       8 UNK         0.5000 
     31 O           0.3574  -18.7590  -45.4479 O.2       8 UNK        -0.5000 
     32 CA          2.5833  -18.1503  -44.8188 C.3       8 UNK         0.1400 
     33 CB          2.8320  -16.6499  -45.0154 C.3       8 UNK        -0.1800 
     34 N           3.4590  -18.6720  -43.7706 N.am      8 UNK        -0.5000 
     35 C           3.7003  -19.9765  -43.5767 C.2       7 UNK         0.5000 
     36 O           3.2367  -20.8666  -44.2884 O.2       7 UNK        -0.5000 
     37 CA          4.5667  -20.3498  -42.3598 C.3       7 UNK         0.1400 
     38 CB          6.0590  -20.2581  -42.7105 C.3       7 UNK        -0.1800 
     39 N           4.2884  -19.5037  -41.1990 N.am      7 UNK        -0.5000 
     40 C           3.1297  -19.5003  -40.5242 C.2       6 UNK         0.5000 
     41 O           2.2012  -20.2714  -40.7640 O.2       6 UNK        -0.5000 
     42 CA          2.9624  -18.4129  -39.4436 C.3       6 UNK         0.1400 
     43 CB          3.4727  -18.9172  -38.0860 C.3       6 UNK        -0.1800 
     44 N           3.6439  -17.1591  -39.7868 N.am      6 UNK        -0.5000 
     45 C           3.3315  -16.3977  -40.8435 C.2       5 UNK         0.5000 
     46 O           2.4018  -16.6496  -41.6132 O.2       5 UNK        -0.5000 
     47 CA          4.2610  -15.2144  -41.1381 C.3       5 UNK         0.1400 
     48 CB          5.5729  -15.7291  -41.7684 C.3       5 UNK        -0.1800 
     49 N           3.5829  -14.2971  -42.0505 N.am      5 UNK        -0.5000 
     50 C           4.0122  -13.0794  -42.4015 C.2       4 UNK         0.5000 
     51 O           5.0371  -12.5601  -41.9570 O.2       4 UNK        -0.5000 
     52 CA          3.1589  -12.3019  -43.4213 C.3       4 UNK         0.1400 
     53 CB          3.5936  -12.6452  -44.8541 C.3       4 UNK        -0.1800 
     54 N           1.7167  -12.5205  -43.2821 N.am      4 UNK        -0.5000 
     55 C           0.9859  -12.0808  -42.2449 C.2       3 UNK         0.5000 
     56 O           1.4750  -11.5075  -41.2704 O.2       3 UNK        -0.5000 
     57 CA         -0.5439  -12.2717  -42.2982 C.3       3 UNK         0.1400 
     58 CB         -1.2532  -10.9141  -42.4288 C.3       3 UNK        -0.1800 
     59 N          -0.9830  -13.1395  -43.3909 N.am      3 UNK        -0.5000 
     60 C          -0.9801  -14.4785  -43.3332 C.2       2 UNK         0.5000 
     61 O          -0.6285  -15.1072  -42.3377 O.2       2 UNK        -0.5000 
     62 CA         -1.4389  -15.2518  -44.5872 C.3       2 UNK         0.1400 
     63 CB         -2.8851  -15.7385  -44.4123 C.3       2 UNK        -0.1800 
     64 N          -1.3481  -14.4877  -45.8324 N.am      2 UNK        -0.5000 
     65 C          -0.2157  -14.0057  -46.3631 C.2       1 UNK         0.5000 
     66 O           0.8898  -14.1482  -45.8445 O.2       1 UNK        -0.5000 
     67 C          -0.6167  -21.8262  -47.2669 C.2       11 UNK         0.5000 
     68 O          -1.1478  -22.5599  -48.0993 O.2       11 UNK        -0.5000 
     69 N          -1.2124  -20.7397  -46.7527 N.am      12 UNK        -0.5000 
     70 CA         -2.5670  -20.2959  -47.0873 C.3       12 UNK         0.1400 
     71 CB         -2.8504  -18.9454  -46.4125 C.3       12 UNK        -0.1800 
     72 C          -3.6463  -21.3267  -46.7062 C.2       12 UNK         0.5000 
     73 O          -4.5510  -21.5797  -47.5014 O.2       12 UNK        -0.5000 
     74 N          -3.5167  -21.9288  -45.5157 N.am      13 UNK        -0.5000 
     75 CA         -4.3957  -22.9908  -45.0240 C.3       13 UNK         0.1400 
     76 CB         -4.0790  -23.2843  -43.5499 C.3       13 UNK        -0.1800 
     77 C          -4.3140  -24.2744  -45.8713 C.2       13 UNK         0.5000 
     78 O          -5.3489  -24.8824  -46.1455 O.2       13 UNK        -0.5000 
     79 N          -3.0969  -24.6443  -46.2942 N.am      14 UNK        -0.5000 
     80 CA         -2.8357  -25.7666  -47.1964 C.3       14 UNK         0.1400 
     81 CB         -1.3301  -26.0721  -47.2148 C.3       14 UNK        -0.1800 
     82 C          -3.3624  -25.5160  -48.6221 C.2       14 UNK         0.5000 
     83 O          -3.9057  -26.4352  -49.2363 O.2       14 UNK        -0.5000 
     84 N          -3.2089  -24.2783  -49.1142 N.am      15 UNK        -0.5000 
     85 CA         -3.7239  -23.8180  -50.4049 C.3       15 UNK         0.1400 
     86 CB         -3.1275  -22.4416  -50.7285 C.3       15 UNK        -0.1800 
     87 C          -5.2621  -23.7660  -50.4572 C.2       15 UNK         0.5000 
     88 O          -5.8352  -24.0284  -51.5162 O.2       15 UNK        -0.5000 
     89 N          -5.8909  -23.4465  -49.3160 N.am      16 UNK        -0.5000 
     90 CA         -7.3304  -23.4213  -49.0495 C.3       16 UNK         0.1400 
     91 CB         -7.9025  -24.8556  -49.0476 C.3       16 UNK        -0.1800 
     92 C          -8.0799  -22.4594  -49.9912 C.2       16 UNK         0.5000 
     93 O          -8.1348  -21.2610  -49.7126 O.2       16 UNK        -0.5000 
     94 N          -8.6234  -22.9931  -51.0940 N.am      17 UNK        -0.5000 
     95 CA         -9.2629  -22.2351  -52.1710 C.3       17 UNK         0.1400 
     96 CB         -9.9933  -23.2141  -53.1032 C.3       17 UNK        -0.1800 
     97 C          -8.2742  -21.3659  -52.9745 C.2       17 UNK         0.5000 
     98 O          -8.6984  -20.3760  -53.5715 O.2       17 UNK        -0.5000 
     99 N          -6.9861  -21.7491  -52.9717 N.am      18 UNK        -0.5000 
    100 CA        -5.8493  -21.0484  -53.5815 C.3       18 UNK         0.1400 
    101 CB        -5.6123  -19.6944  -52.8803 C.3       18 UNK        -0.1800 
    102 C         -5.9349  -20.9299  -55.1182 C.2       18 UNK         0.5000 
    103 O         -5.3750  -19.9990  -55.6984 O.2       18 UNK        -0.5000 
    104 N         -6.6219  -21.8904  -55.7538 N.am      19 UNK        -0.5000 
    105 CA        -6.8191  -21.9629  -57.2037 C.3       19 UNK         0.1400 
    106 CB        -7.9215  -22.9888  -57.5070 C.3       19 UNK        -0.1800 
    107 C         -5.5305  -22.3076  -57.9747 C.2       19 UNK         0.5000 
    108 O         -5.3795  -21.8961  -59.1263 O.2       19 UNK        -0.5000 
    109 N         -4.6129  -23.0349  -57.3233 N.am      20 UNK        -0.5000 
    110 CA        -3.2847  -23.3805  -57.8273 C.3       20 UNK         0.1400 
    111 CB        -2.7832  -24.6278  -57.0776 C.3       20 UNK        -0.1800 
    112 C         -2.3274  -22.1806  -57.6864 C.2       20 UNK         0.5000 
    113 O         -1.4398  -22.1966  -56.8289 O.2       20 UNK        -0.5000 
    114 N         -2.5756  -21.1391  -58.4941 N.am      21 UNK        -0.5000 
    115 CA        -1.9223  -19.8233  -58.5540 C.3       21 UNK         0.1400 
    116 CB        -0.4296  -19.9473  -58.9181 C.3       21 UNK        -0.1800 
    117 C         -2.1307  -18.9753  -57.2837 C.2       21 UNK         0.5000 
    118 O         -2.6856  -17.8786  -57.3618 O.2       21 UNK        -0.5000 
    119 N         -1.6985  -19.5141  -56.1445 N.am      22 UNK        -0.5000 
    120 CA        -1.8851  -18.9822  -54.7922 C.3       22 UNK         0.1400 
    121 C         -1.8770  -20.0841  -53.6922 C.2       22 UNK         0.5000 
    122 N         -1.7543  -21.3690  -54.0169 N.am      22 UNK        -0.7600 
    123 O         -2.0159  -19.7713  -52.5145 O.2       22 UNK        -0.5000 
    124 C124       -0.9418  -17.7904  -54.4772 C.3       23 UNK        -0.0398 
    125 S125        0.8358  -18.2065  -54.5740 S.3       23 UNK        -0.2404 
    126 C126        1.5473  -17.0496  -53.3620 C.3       23 UNK        -0.0205 
    127 H127       -3.1860   -9.7175  -47.2284 H         1 UNK         0.0600 
    128 H128       -4.0233  -10.9697  -46.3050 H         1 UNK         0.0600 
    129 H129       -3.7961  -11.1591  -48.0463 H         1 UNK         0.0600 
    130 H130       -2.1774  -12.6135  -48.5343 H         1 UNK         0.3000 
    131 H131        0.4636  -12.4420  -47.6209 H         1 UNK         0.0600 
    132 H132        0.7909  -14.6504  -48.8131 H         1 UNK         0.0800 
    133 H133        0.0782  -13.3929  -49.7692 H         1 UNK         0.0800 
    134 H134       -1.7688  -17.4606  -48.9478 H         1 UNK         0.0800 
    135 H135       -0.5947  -16.7442  -47.8670 H         1 UNK         0.0800 
    136 H136       -0.3196  -16.2127  -51.5674 H         1 UNK         0.1150 
    137 H137        2.9688  -18.9117  -51.9883 H         1 UNK         0.1150 
    138 H138        0.9256  -18.5954  -48.2298 H         1 UNK         0.1150 
    139 H139        3.8134  -20.1134  -50.1534 H         1 UNK         0.0800 
    140 H140        3.4693  -19.5115  -48.5588 H         1 UNK         0.0800 
    141 H141        1.7433  -20.2841  -47.0482 H         1 UNK         0.0800 
    142 H142        2.8550  -21.5984  -46.8198 H         1 UNK         0.0800 
    143 H143        0.9698  -23.2353  -46.9978 H         1 UNK         0.0600 
    144 H144        1.4534  -21.5087  -44.8260 H         1 UNK         0.3000 
    145 H145       -0.7814  -22.9871  -42.4561 H         1 UNK         0.0600 
    146 H146        1.3604  -23.0625  -41.2079 H         1 UNK         0.0600 
    147 H147        2.2715  -22.8623  -42.7021 H         1 UNK         0.0600 
    148 H148        1.3244  -24.3202  -42.4350 H         1 UNK         0.0600 
    149 H149        0.9679  -20.7650  -42.2228 H         1 UNK         0.3000 
    150 H150       -1.3554  -18.2406  -43.3212 H         1 UNK         0.0600 
    151 H151       -1.7844  -18.6016  -40.9352 H         1 UNK         0.0600 
    152 H152       -0.5288  -17.3829  -41.0885 H         1 UNK         0.0600 
    153 H153       -0.1083  -19.0276  -40.6333 H         1 UNK         0.0600 
    154 H154        1.3638  -18.0249  -42.5510 H         1 UNK         0.3000 
    155 H155        2.8462  -18.6503  -45.7527 H         1 UNK         0.0600 
    156 H156        2.3404  -16.3050  -45.9250 H         1 UNK         0.0600 
    157 H157        3.8942  -16.4293  -45.1207 H         1 UNK         0.0600 
    158 H158        2.4428  -16.0557  -44.1890 H         1 UNK         0.0600 
    159 H159        3.8230  -18.0040  -43.1090 H         1 UNK         0.3000 
    160 H160        4.3396  -21.3839  -42.0920 H         1 UNK         0.0600 
    161 H161        6.3530  -19.2390  -42.9650 H         1 UNK         0.0600 
    162 H162        6.2980  -20.8923  -43.5652 H         1 UNK         0.0600 
    163 H163        6.6803  -20.5891  -41.8781 H         1 UNK         0.0600 
    164 H164        5.0059  -18.8483  -40.9278 H         1 UNK         0.3000 
    165 H165        1.8954  -18.2007  -39.3507 H         1 UNK         0.0600 
    166 H166        3.2875  -18.1861  -37.2988 H         1 UNK         0.0600 
    167 H167        2.9660  -19.8391  -37.7972 H         1 UNK         0.0600 
    168 H168        4.5434  -19.1240  -38.1083 H         1 UNK         0.0600 
    169 H169        4.4225  -16.8939  -39.2005 H         1 UNK         0.3000 
    170 H170        4.4725  -14.6942  -40.2019 H         1 UNK         0.0600 
    171 H171        5.3940  -16.2085  -42.7316 H         1 UNK         0.0600 
    172 H172        6.2869  -14.9216  -41.9287 H         1 UNK         0.0600 
    173 H173        6.0652  -16.4582  -41.1241 H         1 UNK         0.0600 
    174 H174        2.7070  -14.6487  -42.4181 H         1 UNK         0.3000 
    175 H175        3.3484  -11.2382  -43.2623 H         1 UNK         0.0600 
    176 H176        3.4502  -13.7031  -45.0755 H         1 UNK         0.0600 
    177 H177        3.0295  -12.0695  -45.5882 H         1 UNK         0.0600 
    178 H178        4.6500  -12.4203  -45.0057 H         1 UNK         0.0600 
    179 H179        1.2538  -12.9982  -44.0467 H         1 UNK         0.3000 
    180 H180       -0.8488  -12.7158  -41.3482 H         1 UNK         0.0600 
    181 H181       -2.3361  -11.0343  -42.4649 H         1 UNK         0.0600 
    182 H182       -0.9433  -10.3827  -43.3290 H         1 UNK         0.0600 
    183 H183       -1.0268  -10.2715  -41.5772 H         1 UNK         0.0600 
    184 H184       -1.2520  -12.6788  -44.2527 H         1 UNK         0.3000 
    185 H185       -0.7909  -16.1237  -44.6888 H         1 UNK         0.0600 
    186 H186       -3.5782  -14.9032  -44.3045 H         1 UNK         0.0600 
    187 H187       -3.2096  -16.3331  -45.2654 H         1 UNK         0.0600 
    188 H188       -2.9844  -16.3630  -43.5236 H         1 UNK         0.0600 
    189 H189       -2.2143  -14.3042  -46.3175 H         1 UNK         0.3000 
    190 H190       -0.6964  -20.1581  -46.0972 H         1 UNK         0.3000 
    191 H191       -2.6057  -20.1507  -48.1687 H         1 UNK         0.0600 
    192 H192       -2.0863  -18.2095  -46.6564 H         1 UNK         0.0600 
    193 H193       -2.8844  -19.0332  -45.3269 H         1 UNK         0.0600 
    194 H194       -3.8097  -18.5420  -46.7384 H         1 UNK         0.0600 
    195 H195       -2.7783  -21.6194  -44.8894 H         1 UNK         0.3000 
    196 H196       -5.4222  -22.6227  -45.0810 H         1 UNK         0.0600 
    197 H197       -4.2023  -22.3924  -42.9353 H         1 UNK         0.0600 
    198 H198       -3.0573  -23.6408  -43.4197 H         1 UNK         0.0600 
    199 H199       -4.7469  -24.0493  -43.1522 H         1 UNK         0.0600 
    200 H200       -2.2874  -24.1228  -45.9701 H         1 UNK         0.3000 
    201 H201       -3.3528  -26.6433  -46.8009 H         1 UNK         0.0600 
    202 H202       -0.9675  -26.3232  -46.2179 H         1 UNK         0.0600 
    203 H203       -0.7501  -25.2225  -47.5759 H         1 UNK         0.0600 
    204 H204       -1.1113  -26.9201  -47.8647 H         1 UNK         0.0600 
    205 H205       -2.6728  -23.6031  -48.5750 H         1 UNK         0.3000 
    206 H206       -3.3905  -24.5220  -51.1700 H         1 UNK         0.0600 
    207 H207       -3.4099  -21.6936  -49.9879 H         1 UNK         0.0600 
    208 H208       -2.0387  -22.4786  -50.7655 H         1 UNK         0.0600 
    209 H209       -3.4729  -22.0841  -51.6969 H         1 UNK         0.0600 
    210 H210       -5.3114  -23.1296  -48.5452 H         1 UNK         0.3000 
    211 H211       -7.4470  -23.0216  -48.0409 H         1 UNK         0.0600 
    212 H212       -7.7402  -25.3722  -49.9939 H         1 UNK         0.0600 
    213 H213       -8.9754  -24.8499  -48.8509 H         1 UNK         0.0600 
    214 H214       -7.4349  -25.4543  -48.2655 H         1 UNK         0.0600 
    215 H215       -8.4937  -23.9820  -51.2534 H         1 UNK         0.3000 
    216 H216      -10.0026  -21.5671  -51.7248 H         1 UNK         0.0600 
    217 H217      -10.5031  -22.6819  -53.9075 H         1 UNK         0.0600 
    218 H218      -10.7492  -23.7841  -52.5626 H         1 UNK         0.0600 
    219 H219       -9.3035  -23.9224  -53.5640 H         1 UNK         0.0600 
    220 H220       -6.7468  -22.5938  -52.4583 H         1 UNK         0.3000 
    221 H221       -4.9760  -21.6720  -53.3923 H         1 UNK         0.0600 
    222 H222       -6.4353  -18.9998  -53.0484 H         1 UNK         0.0600 
    223 H223       -5.4970  -19.8259  -51.8042 H         1 UNK         0.0600 
    224 H224       -4.7057  -19.2123  -53.2428 H         1 UNK         0.0600 
    225 H225       -7.0569  -22.6119  -55.1979 H         1 UNK         0.3000 
    226 H226       -7.1581  -20.9842  -57.5500 H         1 UNK         0.0600 
    227 H227       -8.8592  -22.7148  -57.0228 H         1 UNK         0.0600 
    228 H228       -8.1157  -23.0479  -58.5788 H         1 UNK         0.0600 
    229 H229       -7.6469  -23.9883  -57.1674 H         1 UNK         0.0600 
    230 H230       -4.8148  -23.3057  -56.3725 H         1 UNK         0.3000 
    231 H231       -3.3536  -23.6322  -58.8878 H         1 UNK         0.0600 
    232 H232       -1.7913  -24.9193  -57.4254 H         1 UNK         0.0600 
    233 H233       -3.4462  -25.4776  -57.2407 H         1 UNK         0.0600 
    234 H234       -2.7176  -24.4562  -56.0023 H         1 UNK         0.0600 
    235 H235       -3.3960  -21.2275  -59.0846 H         1 UNK         0.3000 
    236 H236       -2.4108  -19.2888  -59.3703 H         1 UNK         0.0600 
    237 H237        0.1396  -20.4787  -58.1551 H         1 UNK         0.0600 
    238 H238       -0.2985  -20.4768  -59.8617 H         1 UNK         0.0600 
    239 H239        0.0238  -18.9620  -59.0324 H         1 UNK         0.0600 
    240 H240       -1.2764  -20.4344  -56.2043 H         1 UNK         0.3000 
    241 H241       -2.9039  -18.5926  -54.7598 H         1 UNK         0.0600 
    242 H242       -1.7350  -22.0474  -53.2743 H         1 UNK         0.3800 
    243 H243       -1.6421  -21.6825  -54.9740 H         1 UNK         0.3800 
    244 H244       -1.1742  -17.3880  -53.4913 H         1 UNK         0.0800 
    245 H245       -1.1330  -16.9750  -55.1755 H         1 UNK         0.0800 
    246 H246        1.1241  -16.0552  -53.5127 H         1 UNK         0.0800 
    247 H247        2.6160  -16.9537  -53.5594 H         1 UNK         0.0800 
@<TRIPOS>BOND
     1    1    2 1    
     2    1  127 1    
     3    1  128 1    
     4    1  129 1    
     5    2    3 2    
     6    2    4 am   BACKBONE|DICT|INTERRES
     7    4    5 1    
     8    4  130 1    
     9    5    6 1    
    10    5   65 1    
    11    5  131 1    
    12    6    7 1    
    13    6  132 1    
    14    6  133 1    
    15    7    8 1    
    16    8    9 1    
    17    8  134 1    
    18    8  135 1    
    19    9   10 ar   
    20    9   14 ar   
    21   10   11 ar   
    22   10  136 1    
    23   11   12 ar   
    24   11  126 1    
    25   12   13 ar   
    26   12  137 1    
    27   13   14 ar   
    28   13   15 1    
    29   14  138 1    
    30   15   16 1    
    31   15  139 1    
    32   15  140 1    
    33   16   17 1    
    34   17   18 1    
    35   17  141 1    
    36   17  142 1    
    37   18   19 1    
    38   18   67 1    
    39   18  143 1    
    40   19   20 am   BACKBONE|DICT|INTERRES
    41   19  144 1    
    42   20   21 2    
    43   20   22 1    
    44   22   23 1    
    45   22   24 1    
    46   22  145 1    
    47   23  146 1    
    48   23  147 1    
    49   23  148 1    
    50   24   25 am   BACKBONE|DICT|INTERRES
    51   24  149 1    
    52   25   26 2    
    53   25   27 1    
    54   27   28 1    
    55   27   29 1    
    56   27  150 1    
    57   28  151 1    
    58   28  152 1    
    59   28  153 1    
    60   29   30 am   BACKBONE|DICT|INTERRES
    61   29  154 1    
    62   30   31 2    
    63   30   32 1    
    64   32   33 1    
    65   32   34 1    
    66   32  155 1    
    67   33  156 1    
    68   33  157 1    
    69   33  158 1    
    70   34   35 am   BACKBONE|DICT|INTERRES
    71   34  159 1    
    72   35   36 2    
    73   35   37 1    
    74   37   38 1    
    75   37   39 1    
    76   37  160 1    
    77   38  161 1    
    78   38  162 1    
    79   38  163 1    
    80   39   40 am   BACKBONE|DICT|INTERRES
    81   39  164 1    
    82   40   41 2    
    83   40   42 1    
    84   42   43 1    
    85   42   44 1    
    86   42  165 1    
    87   43  166 1    
    88   43  167 1    
    89   43  168 1    
    90   44   45 am   BACKBONE|DICT|INTERRES
    91   44  169 1    
    92   45   46 2    
    93   45   47 1    
    94   47   48 1    
    95   47   49 1    
    96   47  170 1    
    97   48  171 1    
    98   48  172 1    
    99   48  173 1    
   100   49   50 am   BACKBONE|DICT|INTERRES
   101   49  174 1    
   102   50   51 2    
   103   50   52 1    
   104   52   53 1    
   105   52   54 1    
   106   52  175 1    
   107   53  176 1    
   108   53  177 1    
   109   53  178 1    
   110   54   55 am   BACKBONE|DICT|INTERRES
   111   54  179 1    
   112   55   56 2    
   113   55   57 1    
   114   57   58 1    
   115   57   59 1    
   116   57  180 1    
   117   58  181 1    
   118   58  182 1    
   119   58  183 1    
   120   59   60 am   BACKBONE|DICT|INTERRES
   121   59  184 1    
   122   60   61 2    
   123   60   62 1    
   124   62   63 1    
   125   62   64 1    
   126   62  185 1    
   127   63  186 1    
   128   63  187 1    
   129   63  188 1    
   130   64   65 am   BACKBONE|DICT|INTERRES
   131   64  189 1    
   132   65   66 2    
   133   67   68 2    
   134   67   69 am   BACKBONE|DICT|INTERRES
   135   69   70 1    
   136   69  190 1    
   137   70   71 1    
   138   70   72 1    
   139   70  191 1    
   140   71  192 1    
   141   71  193 1    
   142   71  194 1    
   143   72   73 2    
   144   72   74 am   BACKBONE|DICT|INTERRES
   145   74   75 1    
   146   74  195 1    
   147   75   76 1    
   148   75   77 1    
   149   75  196 1    
   150   76  197 1    
   151   76  198 1    
   152   76  199 1    
   153   77   78 2    
   154   77   79 am   BACKBONE|DICT|INTERRES
   155   79   80 1    
   156   79  200 1    
   157   80   81 1    
   158   80   82 1    
   159   80  201 1    
   160   81  202 1    
   161   81  203 1    
   162   81  204 1    
   163   82   83 2    
   164   82   84 am   BACKBONE|DICT|INTERRES
   165   84   85 1    
   166   84  205 1    
   167   85   86 1    
   168   85   87 1    
   169   85  206 1    
   170   86  207 1    
   171   86  208 1    
   172   86  209 1    
   173   87   88 2    
   174   87   89 am   BACKBONE|DICT|INTERRES
   175   89   90 1    
   176   89  210 1    
   177   90   91 1    
   178   90   92 1    
   179   90  211 1    
   180   91  212 1    
   181   91  213 1    
   182   91  214 1    
   183   92   93 2    
   184   92   94 am   BACKBONE|DICT|INTERRES
   185   94   95 1    
   186   94  215 1    
   187   95   96 1    
   188   95   97 1    
   189   95  216 1    
   190   96  217 1    
   191   96  218 1    
   192   96  219 1    
   193   97   98 2    
   194   97   99 am   BACKBONE|DICT|INTERRES
   195   99  100 1    
   196   99  220 1    
   197  100  101 1    
   198  100  102 1    
   199  100  221 1    
   200  101  222 1    
   201  101  223 1    
   202  101  224 1    
   203  102  103 2    
   204  102  104 am   BACKBONE|DICT|INTERRES
   205  104  105 1    
   206  104  225 1    
   207  105  106 1    
   208  105  107 1    
   209  105  226 1    
   210  106  227 1    
   211  106  228 1    
   212  106  229 1    
   213  107  108 2    
   214  107  109 am   BACKBONE|DICT|INTERRES
   215  109  110 1    
   216  109  230 1    
   217  110  111 1    
   218  110  112 1    
   219  110  231 1    
   220  111  232 1    
   221  111  233 1    
   222  111  234 1    
   223  112  113 2    
   224  112  114 am   BACKBONE|DICT|INTERRES
   225  114  115 1    
   226  114  235 1    
   227  115  116 1    
   228  115  117 1    
   229  115  236 1    
   230  116  237 1    
   231  116  238 1    
   232  116  239 1    
   233  117  118 2    
   234  117  119 am   BACKBONE|DICT|INTERRES
   235  119  120 1    
   236  119  240 1    
   237  120  121 1    
   238  120  124 1    
   239  120  241 1    
   240  121  122 am   BACKBONE|DICT|INTERRES
   241  121  123 2    
   242  122  242 1    
   243  122  243 1    
   244  124  125 1    
   245  124  244 1    
   246  124  245 1    
   247  125  126 1    
   248  126  246 1    
   249  126  247 1    
@<TRIPOS>SUBSTRUCTURE
     1 UNK         1 GROUP             0       ****    0 ROOT    
