@<TRIPOS>MOLECULE
3R540
247   249    1
SMALL
USER_CHARGES


@<TRIPOS>ATOM
      1 CA         -5.3996  -16.3243  -44.0645 C.3       0 UNK        -0.1800 
      2 C          -4.7104  -15.0998  -44.6484 C.2       0 UNK         0.5000 
      3 O          -5.2821  -14.0097  -44.6383 O.2       0 UNK        -0.5000 
      4 N          -3.4835  -15.2770  -45.1521 N.am      1 UNK        -0.5000 
      5 CA         -2.6259  -14.2121  -45.6823 C.3       1 UNK         0.1400 
      6 C6         -1.4710  -14.8051  -46.5249 C.3       23 UNK        -0.0398 
      7 S7         -0.9831  -13.7701  -47.9469 S.3       23 UNK        -0.2404 
      8 C8         -2.2238  -14.1976  -49.2214 C.3       23 UNK        -0.0205 
      9 C9         -2.4752  -15.6952  -49.3485 C.ar      23 UNK        -0.0193 
     10 C10        -1.4455  -16.5600  -49.7299 C.ar      23 UNK        -0.1150 
     11 C11        -1.6598  -17.9407  -49.7745 C.ar      23 UNK        -0.0193 
     12 C12        -2.9218  -18.4543  -49.4566 C.ar      23 UNK        -0.1150 
     13 C13        -3.9679  -17.5961  -49.1061 C.ar      23 UNK        -0.0193 
     14 C14        -3.7353  -16.2195  -49.0466 C.ar      23 UNK        -0.1150 
     15 C15        -5.3561  -18.1398  -48.8071 C.3       23 UNK        -0.0205 
     16 S16        -5.5797  -18.4912  -47.0352 S.3       23 UNK        -0.2404 
     17 C17        -5.4067  -20.3082  -46.9614 C.3       23 UNK        -0.0398 
     18 CA         -4.0572  -20.7717  -46.3653 C.3       11 UNK         0.1400 
     19 N          -3.8023  -20.1942  -45.0369 N.am      11 UNK        -0.5000 
     20 C          -2.6558  -20.3249  -44.3582 C.2       10 UNK         0.5000 
     21 O          -1.7161  -21.0304  -44.7318 O.2       10 UNK        -0.5000 
     22 CA         -2.5395  -19.5697  -43.0301 C.3       10 UNK         0.1400 
     23 CB         -2.5799  -20.5470  -41.8451 C.3       10 UNK        -0.1800 
     24 N          -1.2542  -18.8875  -43.0504 N.am      10 UNK        -0.5000 
     25 C          -1.0913  -17.5629  -43.1067 C.2       9 UNK         0.5000 
     26 O          -1.9937  -16.7415  -42.9424 O.2       9 UNK        -0.5000 
     27 CA          0.3186  -17.0673  -43.4702 C.3       9 UNK         0.1400 
     28 CB          1.1973  -17.0261  -42.2122 C.3       9 UNK        -0.1800 
     29 N           0.9927  -17.8494  -44.5149 N.am      9 UNK        -0.5000 
     30 C           0.4929  -18.1783  -45.7182 C.2       8 UNK         0.5000 
     31 O          -0.6537  -17.9131  -46.0735 O.2       8 UNK        -0.5000 
     32 CA          1.4148  -18.9108  -46.7081 C.3       8 UNK         0.1400 
     33 CB          2.0052  -17.9192  -47.7225 C.3       8 UNK        -0.1800 
     34 N           2.5165  -19.6175  -46.0539 N.am      8 UNK        -0.5000 
     35 C           2.8318  -20.9039  -46.2545 C.2       7 UNK         0.5000 
     36 O           2.2099  -21.6459  -47.0146 O.2       7 UNK        -0.5000 
     37 CA          4.0622  -21.4682  -45.5093 C.3       7 UNK         0.1400 
     38 CB          5.2367  -21.6535  -46.4830 C.3       7 UNK        -0.1800 
     39 N           4.5151  -20.6422  -44.3885 N.am      7 UNK        -0.5000 
     40 C           3.8729  -20.5063  -43.2210 C.2       6 UNK         0.5000 
     41 O           2.8470  -21.1215  -42.9319 O.2       6 UNK        -0.5000 
     42 CA          4.4531  -19.4882  -42.2145 C.3       6 UNK         0.1400 
     43 CB          5.3162  -20.2098  -41.1684 C.3       6 UNK        -0.1800 
     44 N           5.2329  -18.3809  -42.7903 N.am      6 UNK        -0.5000 
     45 C           4.8215  -17.5425  -43.7509 C.2       5 UNK         0.5000 
     46 O           3.7735  -17.6969  -44.3808 O.2       5 UNK        -0.5000 
     47 CA          5.7498  -16.3602  -44.0921 C.3       5 UNK         0.1400 
     48 CB          6.9044  -16.8327  -44.9892 C.3       5 UNK        -0.1800 
     49 N           5.0285  -15.2888  -44.7842 N.am      5 UNK        -0.5000 
     50 C           4.0595  -14.5412  -44.2390 C.2       4 UNK         0.5000 
     51 O           3.7698  -14.5706  -43.0405 O.2       4 UNK        -0.5000 
     52 CA          3.2737  -13.6434  -45.2177 C.3       4 UNK         0.1400 
     53 CB          2.5136  -14.4916  -46.2507 C.3       4 UNK        -0.1800 
     54 N           2.3080  -12.7799  -44.5396 N.am      4 UNK        -0.5000 
     55 C           2.6122  -11.6792  -43.8419 C.2       3 UNK         0.5000 
     56 O           3.7570  -11.2383  -43.7256 O.2       3 UNK        -0.5000 
     57 CA          1.4409  -10.9237  -43.1847 C.3       3 UNK         0.1400 
     58 CB          1.1103   -9.6521  -43.9819 C.3       3 UNK        -0.1800 
     59 N           0.2205  -11.7251  -43.0643 N.am      3 UNK        -0.5000 
     60 C          -0.0248  -12.6239  -42.1053 C.2       2 UNK         0.5000 
     61 O           0.7871  -12.9211  -41.2294 O.2       2 UNK        -0.5000 
     62 CA         -1.4144  -13.2934  -42.1039 C.3       2 UNK         0.1400 
     63 CB         -2.4883  -12.3342  -41.5575 C.3       2 UNK        -0.1800 
     64 N          -1.8408  -13.8835  -43.3794 N.am      2 UNK        -0.5000 
     65 C          -2.0922  -13.2943  -44.5603 C.2       1 UNK         0.5000 
     66 O          -1.9343  -12.0930  -44.7810 O.2       1 UNK        -0.5000 
     67 C          -3.9814  -22.3139  -46.3763 C.2       11 UNK         0.5000 
     68 O          -3.6383  -22.8984  -47.4039 O.2       11 UNK        -0.5000 
     69 N          -4.2620  -22.9448  -45.2266 N.am      12 UNK        -0.5000 
     70 CA         -4.1554  -24.3863  -44.9950 C.3       12 UNK         0.1400 
     71 CB         -4.6795  -24.7054  -43.5874 C.3       12 UNK        -0.1800 
     72 C          -2.7297  -24.9446  -45.1778 C.2       12 UNK         0.5000 
     73 O          -2.5882  -26.1116  -45.5433 O.2       12 UNK        -0.5000 
     74 N          -1.7007  -24.1050  -44.9802 N.am      13 UNK        -0.5000 
     75 CA         -0.2994  -24.4467  -45.2451 C.3       13 UNK         0.1400 
     76 CB          0.6130  -23.4118  -44.5720 C.3       13 UNK        -0.1800 
     77 C           0.0124  -24.5694  -46.7525 C.2       13 UNK         0.5000 
     78 O           0.9630  -25.2609  -47.1182 O.2       13 UNK        -0.5000 
     79 N          -0.8260  -23.9492  -47.5940 N.am      14 UNK        -0.5000 
     80 CA         -0.8340  -24.0694  -49.0513 C.3       14 UNK         0.1400 
     81 CB         -0.9187  -22.6595  -49.6586 C.3       14 UNK        -0.1800 
     82 C          -1.9950  -24.9723  -49.5220 C.2       14 UNK         0.5000 
     83 O          -2.4775  -24.8173  -50.6449 O.2       14 UNK        -0.5000 
     84 N          -2.4527  -25.8792  -48.6427 N.am      15 UNK        -0.5000 
     85 CA         -3.5200  -26.8686  -48.8411 C.3       15 UNK         0.1400 
     86 CB         -3.0879  -27.9184  -49.8860 C.3       15 UNK        -0.1800 
     87 C          -4.9033  -26.2590  -49.1596 C.2       15 UNK         0.5000 
     88 O          -5.7552  -26.9479  -49.7230 O.2       15 UNK        -0.5000 
     89 N          -5.0987  -24.9791  -48.8053 N.am      16 UNK        -0.5000 
     90 CA         -6.2698  -24.1442  -49.0888 C.3       16 UNK         0.1400 
     91 CB         -7.5182  -24.6700  -48.3508 C.3       16 UNK        -0.1800 
     92 C          -6.5100  -23.9013  -50.5958 C.2       16 UNK         0.5000 
     93 O          -7.6332  -23.5813  -50.9880 O.2       16 UNK        -0.5000 
     94 N          -5.4548  -24.0306  -51.4162 N.am      17 UNK        -0.5000 
     95 CA         -5.4963  -23.7833  -52.8603 C.3       17 UNK         0.1400 
     96 CB         -4.2471  -24.3932  -53.5123 C.3       17 UNK        -0.1800 
     97 C          -5.6052  -22.2870  -53.2083 C.2       17 UNK         0.5000 
     98 O          -6.1504  -21.9482  -54.2598 O.2       17 UNK        -0.5000 
     99 N          -5.0894  -21.4280  -52.3156 N.am      18 UNK        -0.5000 
    100 CA        -5.0401  -19.9686  -52.4230 C.3       18 UNK         0.1400 
    101 CB        -6.4560  -19.3673  -52.2784 C.3       18 UNK        -0.1800 
    102 C         -4.2816  -19.5136  -53.6865 C.2       18 UNK         0.5000 
    103 O         -3.2564  -20.1120  -54.0167 O.2       18 UNK        -0.5000 
    104 N         -4.7850  -18.4816  -54.3773 N.am      19 UNK        -0.5000 
    105 CA        -4.1703  -17.8327  -55.5414 C.3       19 UNK         0.1400 
    106 CB        -5.0871  -16.6954  -56.0156 C.3       19 UNK        -0.1800 
    107 C         -3.8197  -18.7656  -56.7196 C.2       19 UNK         0.5000 
    108 O         -2.9231  -18.4331  -57.4952 O.2       19 UNK        -0.5000 
    109 N         -4.4869  -19.9251  -56.8155 N.am      20 UNK        -0.5000 
    110 CA        -4.1855  -20.9803  -57.7861 C.3       20 UNK         0.1400 
    111 CB        -5.2766  -22.0590  -57.7150 C.3       20 UNK        -0.1800 
    112 C         -2.7904  -21.6123  -57.5943 C.2       20 UNK         0.5000 
    113 O         -2.2092  -22.0866  -58.5713 O.2       20 UNK        -0.5000 
    114 N         -2.2783  -21.5944  -56.3564 N.am      21 UNK        -0.5000 
    115 CA        -0.9296  -22.0332  -56.0016 C.3       21 UNK         0.1400 
    116 CB        -1.0171  -23.0261  -54.8314 C.3       21 UNK        -0.1800 
    117 C         -0.0453  -20.8360  -55.6156 C.2       21 UNK         0.5000 
    118 O          1.1227  -20.7918  -56.0037 O.2       21 UNK        -0.5000 
    119 N         -0.6120  -19.8999  -54.8464 N.am      22 UNK        -0.5000 
    120 CA         0.0893  -18.7623  -54.2332 C.3       22 UNK         0.1400 
    121 C          0.3145  -17.5480  -55.1788 C.2       22 UNK         0.5000 
    122 N         -0.2952  -17.4859  -56.3562 N.am      22 UNK        -0.7600 
    123 O          1.0711  -16.6424  -54.8397 O.2       22 UNK        -0.5000 
    124 C124       -0.6029  -18.3202  -52.9167 C.3       23 UNK        -0.0398 
    125 S125       -0.7915  -19.7016  -51.7342 S.3       23 UNK        -0.2404 
    126 C126       -0.5209  -18.8803  -50.1373 C.3       23 UNK        -0.0205 
    127 H127       -5.5926  -16.1755  -43.0022 H         1 UNK         0.0600 
    128 H128       -4.7895  -17.2202  -44.1768 H         1 UNK         0.0600 
    129 H129       -6.3515  -16.4961  -44.5670 H         1 UNK         0.0600 
    130 H130       -3.0656  -16.1963  -45.1081 H         1 UNK         0.3000 
    131 H131       -3.2527  -13.5996  -46.3340 H         1 UNK         0.0600 
    132 H132       -0.5855  -14.9932  -45.9170 H         1 UNK         0.0800 
    133 H133       -1.7487  -15.7871  -46.9013 H         1 UNK         0.0800 
    134 H134       -1.8879  -13.8104  -50.1841 H         1 UNK         0.0800 
    135 H135       -3.1515  -13.6722  -48.9898 H         1 UNK         0.0800 
    136 H136       -0.4692  -16.1565  -49.9585 H         1 UNK         0.1150 
    137 H137       -3.0873  -19.5217  -49.4901 H         1 UNK         0.1150 
    138 H138       -4.5374  -15.5569  -48.7529 H         1 UNK         0.1150 
    139 H139       -5.5553  -19.0255  -49.4094 H         1 UNK         0.0800 
    140 H140       -6.1054  -17.4063  -49.1085 H         1 UNK         0.0800 
    141 H141       -5.5479  -20.7292  -47.9578 H         1 UNK         0.0800 
    142 H142       -6.2346  -20.6887  -46.3602 H         1 UNK         0.0800 
    143 H143       -3.2612  -20.4158  -47.0234 H         1 UNK         0.0600 
    144 H144       -4.5315  -19.5995  -44.6712 H         1 UNK         0.3000 
    145 H145       -3.3648  -18.8614  -42.9351 H         1 UNK         0.0600 
    146 H146       -2.4705  -20.0182  -40.8981 H         1 UNK         0.0600 
    147 H147       -3.5296  -21.0821  -41.8121 H         1 UNK         0.0600 
    148 H148       -1.7841  -21.2910  -41.9054 H         1 UNK         0.0600 
    149 H149       -0.4647  -19.4723  -43.2891 H         1 UNK         0.3000 
    150 H150        0.2228  -16.0480  -43.8470 H         1 UNK         0.0600 
    151 H151        1.3556  -18.0233  -41.8004 H         1 UNK         0.0600 
    152 H152        0.7373  -16.4162  -41.4333 H         1 UNK         0.0600 
    153 H153        2.1730  -16.5920  -42.4230 H         1 UNK         0.0600 
    154 H154        1.9813  -18.0179  -44.3552 H         1 UNK         0.3000 
    155 H155        0.7766  -19.6148  -47.2455 H         1 UNK         0.0600 
    156 H156        2.7680  -17.2915  -47.2630 H         1 UNK         0.0600 
    157 H157        1.2383  -17.2602  -48.1319 H         1 UNK         0.0600 
    158 H158        2.4682  -18.4448  -48.5576 H         1 UNK         0.0600 
    159 H159        3.0935  -19.0641  -45.4267 H         1 UNK         0.3000 
    160 H160        3.7849  -22.4497  -45.1200 H         1 UNK         0.0600 
    161 H161        5.5672  -20.7010  -46.8993 H         1 UNK         0.0600 
    162 H162        4.9554  -22.2966  -47.3180 H         1 UNK         0.0600 
    163 H163        6.0895  -22.1199  -45.9895 H         1 UNK         0.0600 
    164 H164        5.3466  -20.0907  -44.5398 H         1 UNK         0.3000 
    165 H165        3.6033  -19.0401  -41.6968 H         1 UNK         0.0600 
    166 H166        5.6290  -19.5297  -40.3759 H         1 UNK         0.0600 
    167 H167        6.2126  -20.6405  -41.6164 H         1 UNK         0.0600 
    168 H168        4.7626  -21.0223  -40.6955 H         1 UNK         0.0600 
    169 H169        6.1226  -18.1994  -42.3480 H         1 UNK         0.3000 
    170 H170        6.1589  -15.9586  -43.1629 H         1 UNK         0.0600 
    171 H171        7.4967  -17.6049  -44.4967 H         1 UNK         0.0600 
    172 H172        6.5393  -17.2492  -45.9292 H         1 UNK         0.0600 
    173 H173        7.5807  -16.0113  -45.2267 H         1 UNK         0.0600 
    174 H174        5.1873  -15.2228  -45.7785 H         1 UNK         0.3000 
    175 H175        3.9899  -13.0110  -45.7465 H         1 UNK         0.0600 
    176 H176        1.8647  -15.2253  -45.7718 H         1 UNK         0.0600 
    177 H177        1.8988  -13.8687  -46.9002 H         1 UNK         0.0600 
    178 H178        3.2049  -15.0328  -46.8961 H         1 UNK         0.0600 
    179 H179        1.3449  -13.0759  -44.5510 H         1 UNK         0.3000 
    180 H180        1.7646  -10.6244  -42.1856 H         1 UNK         0.0600 
    181 H181        0.7669   -9.8885  -44.9899 H         1 UNK         0.0600 
    182 H182        1.9856   -9.0077  -44.0747 H         1 UNK         0.0600 
    183 H183        0.3307   -9.0702  -43.4899 H         1 UNK         0.0600 
    184 H184       -0.5092  -11.5710  -43.7572 H         1 UNK         0.3000 
    185 H185       -1.3498  -14.1329  -41.4096 H         1 UNK         0.0600 
    186 H186       -3.4509  -12.8366  -41.4614 H         1 UNK         0.0600 
    187 H187       -2.2140  -11.9647  -40.5686 H         1 UNK         0.0600 
    188 H188       -2.6274  -11.4662  -42.2025 H         1 UNK         0.0600 
    189 H189       -2.0208  -14.8833  -43.3224 H         1 UNK         0.3000 
    190 H190       -4.5306  -22.3829  -44.4324 H         1 UNK         0.3000 
    191 H191       -4.7978  -24.8872  -45.7224 H         1 UNK         0.0600 
    192 H192       -4.6383  -25.7773  -43.3885 H         1 UNK         0.0600 
    193 H193       -5.7185  -24.3956  -43.4732 H         1 UNK         0.0600 
    194 H194       -4.0919  -24.2052  -42.8165 H         1 UNK         0.0600 
    195 H195       -1.8847  -23.1413  -44.7236 H         1 UNK         0.3000 
    196 H196       -0.0957  -25.4181  -44.7896 H         1 UNK         0.0600 
    197 H197        0.4809  -22.4194  -45.0022 H         1 UNK         0.0600 
    198 H198        0.4156  -23.3414  -43.5024 H         1 UNK         0.0600 
    199 H199        1.6623  -23.6824  -44.6920 H         1 UNK         0.0600 
    200 H200       -1.6065  -23.4347  -47.2043 H         1 UNK         0.3000 
    201 H201        0.0913  -24.5322  -49.3993 H         1 UNK         0.0600 
    202 H202       -1.8446  -22.1533  -49.3835 H         1 UNK         0.0600 
    203 H203       -0.8741  -22.6954  -50.7479 H         1 UNK         0.0600 
    204 H204       -0.0854  -22.0421  -49.3229 H         1 UNK         0.0600 
    205 H205       -2.0267  -25.8976  -47.7249 H         1 UNK         0.3000 
    206 H206       -3.6347  -27.3827  -47.8860 H         1 UNK         0.0600 
    207 H207       -2.1158  -28.3446  -49.6381 H         1 UNK         0.0600 
    208 H208       -3.7987  -28.7443  -49.9317 H         1 UNK         0.0600 
    209 H209       -3.0213  -27.4892  -50.8862 H         1 UNK         0.0600 
    210 H210       -4.3313  -24.4853  -48.3599 H         1 UNK         0.3000 
    211 H211       -6.0428  -23.1629  -48.6722 H         1 UNK         0.0600 
    212 H212       -8.3443  -23.9621  -48.4255 H         1 UNK         0.0600 
    213 H213       -7.3150  -24.8173  -47.2900 H         1 UNK         0.0600 
    214 H214       -7.8646  -25.6183  -48.7622 H         1 UNK         0.0600 
    215 H215       -4.5607  -24.3144  -51.0305 H         1 UNK         0.3000 
    216 H216       -6.3748  -24.2845  -53.2721 H         1 UNK         0.0600 
    217 H217       -3.3342  -23.9454  -53.1193 H         1 UNK         0.0600 
    218 H218       -4.2516  -24.2380  -54.5921 H         1 UNK         0.0600 
    219 H219       -4.1941  -25.4677  -53.3358 H         1 UNK         0.0600 
    220 H220       -4.6234  -21.8247  -51.5135 H         1 UNK         0.3000 
    221 H221       -4.4424  -19.6225  -51.5807 H         1 UNK         0.0600 
    222 H222       -6.9549  -19.7553  -51.3902 H         1 UNK         0.0600 
    223 H223       -7.0888  -19.6003  -53.1356 H         1 UNK         0.0600 
    224 H224       -6.4183  -18.2826  -52.1719 H         1 UNK         0.0600 
    225 H225       -5.6473  -18.0714  -54.0498 H         1 UNK         0.3000 
    226 H226       -3.2318  -17.3911  -55.2005 H         1 UNK         0.0600 
    227 H227       -6.0614  -17.0709  -56.3310 H         1 UNK         0.0600 
    228 H228       -5.2481  -15.9614  -55.2258 H         1 UNK         0.0600 
    229 H229       -4.6492  -16.1659  -56.8630 H         1 UNK         0.0600 
    230 H230       -5.1886  -20.1365  -56.1195 H         1 UNK         0.3000 
    231 H231       -4.2109  -20.5337  -58.7823 H         1 UNK         0.0600 
    232 H232       -5.2846  -22.5586  -56.7458 H         1 UNK         0.0600 
    233 H233       -5.1175  -22.8245  -58.4755 H         1 UNK         0.0600 
    234 H234       -6.2663  -21.6344  -57.8834 H         1 UNK         0.0600 
    235 H235       -2.8168  -21.1578  -55.6148 H         1 UNK         0.3000 
    236 H236       -0.4531  -22.5419  -56.8421 H         1 UNK         0.0600 
    237 H237       -1.6033  -23.9036  -55.1040 H         1 UNK         0.0600 
    238 H238       -0.0259  -23.3747  -54.5393 H         1 UNK         0.0600 
    239 H239       -1.4777  -22.5731  -53.9521 H         1 UNK         0.0600 
    240 H240       -1.5741  -20.0275  -54.5396 H         1 UNK         0.3000 
    241 H241        1.0894  -19.1071  -53.9628 H         1 UNK         0.0600 
    242 H242       -0.1253  -16.6932  -56.9543 H         1 UNK         0.3800 
    243 H243       -0.9494  -18.1973  -56.6536 H         1 UNK         0.3800 
    244 H244       -1.5918  -17.9070  -53.1206 H         1 UNK         0.0800 
    245 H245       -0.0307  -17.5228  -52.4397 H         1 UNK         0.0800 
    246 H246        0.4333  -18.3537  -50.1648 H         1 UNK         0.0800 
    247 H247       -0.4314  -19.6393  -49.3603 H         1 UNK         0.0800 
@<TRIPOS>BOND
     1    1    2 1    
     2    1  127 1    
     3    1  128 1    
     4    1  129 1    
     5    2    3 2    
     6    2    4 am   BACKBONE|DICT|INTERRES
     7    4    5 1    
     8    4  130 1    
     9    5    6 1    
    10    5   65 1    
    11    5  131 1    
    12    6    7 1    
    13    6  132 1    
    14    6  133 1    
    15    7    8 1    
    16    8    9 1    
    17    8  134 1    
    18    8  135 1    
    19    9   10 ar   
    20    9   14 ar   
    21   10   11 ar   
    22   10  136 1    
    23   11   12 ar   
    24   11  126 1    
    25   12   13 ar   
    26   12  137 1    
    27   13   14 ar   
    28   13   15 1    
    29   14  138 1    
    30   15   16 1    
    31   15  139 1    
    32   15  140 1    
    33   16   17 1    
    34   17   18 1    
    35   17  141 1    
    36   17  142 1    
    37   18   19 1    
    38   18   67 1    
    39   18  143 1    
    40   19   20 am   BACKBONE|DICT|INTERRES
    41   19  144 1    
    42   20   21 2    
    43   20   22 1    
    44   22   23 1    
    45   22   24 1    
    46   22  145 1    
    47   23  146 1    
    48   23  147 1    
    49   23  148 1    
    50   24   25 am   BACKBONE|DICT|INTERRES
    51   24  149 1    
    52   25   26 2    
    53   25   27 1    
    54   27   28 1    
    55   27   29 1    
    56   27  150 1    
    57   28  151 1    
    58   28  152 1    
    59   28  153 1    
    60   29   30 am   BACKBONE|DICT|INTERRES
    61   29  154 1    
    62   30   31 2    
    63   30   32 1    
    64   32   33 1    
    65   32   34 1    
    66   32  155 1    
    67   33  156 1    
    68   33  157 1    
    69   33  158 1    
    70   34   35 am   BACKBONE|DICT|INTERRES
    71   34  159 1    
    72   35   36 2    
    73   35   37 1    
    74   37   38 1    
    75   37   39 1    
    76   37  160 1    
    77   38  161 1    
    78   38  162 1    
    79   38  163 1    
    80   39   40 am   BACKBONE|DICT|INTERRES
    81   39  164 1    
    82   40   41 2    
    83   40   42 1    
    84   42   43 1    
    85   42   44 1    
    86   42  165 1    
    87   43  166 1    
    88   43  167 1    
    89   43  168 1    
    90   44   45 am   BACKBONE|DICT|INTERRES
    91   44  169 1    
    92   45   46 2    
    93   45   47 1    
    94   47   48 1    
    95   47   49 1    
    96   47  170 1    
    97   48  171 1    
    98   48  172 1    
    99   48  173 1    
   100   49   50 am   BACKBONE|DICT|INTERRES
   101   49  174 1    
   102   50   51 2    
   103   50   52 1    
   104   52   53 1    
   105   52   54 1    
   106   52  175 1    
   107   53  176 1    
   108   53  177 1    
   109   53  178 1    
   110   54   55 am   BACKBONE|DICT|INTERRES
   111   54  179 1    
   112   55   56 2    
   113   55   57 1    
   114   57   58 1    
   115   57   59 1    
   116   57  180 1    
   117   58  181 1    
   118   58  182 1    
   119   58  183 1    
   120   59   60 am   BACKBONE|DICT|INTERRES
   121   59  184 1    
   122   60   61 2    
   123   60   62 1    
   124   62   63 1    
   125   62   64 1    
   126   62  185 1    
   127   63  186 1    
   128   63  187 1    
   129   63  188 1    
   130   64   65 am   BACKBONE|DICT|INTERRES
   131   64  189 1    
   132   65   66 2    
   133   67   68 2    
   134   67   69 am   BACKBONE|DICT|INTERRES
   135   69   70 1    
   136   69  190 1    
   137   70   71 1    
   138   70   72 1    
   139   70  191 1    
   140   71  192 1    
   141   71  193 1    
   142   71  194 1    
   143   72   73 2    
   144   72   74 am   BACKBONE|DICT|INTERRES
   145   74   75 1    
   146   74  195 1    
   147   75   76 1    
   148   75   77 1    
   149   75  196 1    
   150   76  197 1    
   151   76  198 1    
   152   76  199 1    
   153   77   78 2    
   154   77   79 am   BACKBONE|DICT|INTERRES
   155   79   80 1    
   156   79  200 1    
   157   80   81 1    
   158   80   82 1    
   159   80  201 1    
   160   81  202 1    
   161   81  203 1    
   162   81  204 1    
   163   82   83 2    
   164   82   84 am   BACKBONE|DICT|INTERRES
   165   84   85 1    
   166   84  205 1    
   167   85   86 1    
   168   85   87 1    
   169   85  206 1    
   170   86  207 1    
   171   86  208 1    
   172   86  209 1    
   173   87   88 2    
   174   87   89 am   BACKBONE|DICT|INTERRES
   175   89   90 1    
   176   89  210 1    
   177   90   91 1    
   178   90   92 1    
   179   90  211 1    
   180   91  212 1    
   181   91  213 1    
   182   91  214 1    
   183   92   93 2    
   184   92   94 am   BACKBONE|DICT|INTERRES
   185   94   95 1    
   186   94  215 1    
   187   95   96 1    
   188   95   97 1    
   189   95  216 1    
   190   96  217 1    
   191   96  218 1    
   192   96  219 1    
   193   97   98 2    
   194   97   99 am   BACKBONE|DICT|INTERRES
   195   99  100 1    
   196   99  220 1    
   197  100  101 1    
   198  100  102 1    
   199  100  221 1    
   200  101  222 1    
   201  101  223 1    
   202  101  224 1    
   203  102  103 2    
   204  102  104 am   BACKBONE|DICT|INTERRES
   205  104  105 1    
   206  104  225 1    
   207  105  106 1    
   208  105  107 1    
   209  105  226 1    
   210  106  227 1    
   211  106  228 1    
   212  106  229 1    
   213  107  108 2    
   214  107  109 am   BACKBONE|DICT|INTERRES
   215  109  110 1    
   216  109  230 1    
   217  110  111 1    
   218  110  112 1    
   219  110  231 1    
   220  111  232 1    
   221  111  233 1    
   222  111  234 1    
   223  112  113 2    
   224  112  114 am   BACKBONE|DICT|INTERRES
   225  114  115 1    
   226  114  235 1    
   227  115  116 1    
   228  115  117 1    
   229  115  236 1    
   230  116  237 1    
   231  116  238 1    
   232  116  239 1    
   233  117  118 2    
   234  117  119 am   BACKBONE|DICT|INTERRES
   235  119  120 1    
   236  119  240 1    
   237  120  121 1    
   238  120  124 1    
   239  120  241 1    
   240  121  122 am   BACKBONE|DICT|INTERRES
   241  121  123 2    
   242  122  242 1    
   243  122  243 1    
   244  124  125 1    
   245  124  244 1    
   246  124  245 1    
   247  125  126 1    
   248  126  246 1    
   249  126  247 1    
@<TRIPOS>SUBSTRUCTURE
     1 UNK         1 GROUP             0       ****    0 ROOT    
