@<TRIPOS>MOLECULE
3R540
247   249    1
SMALL
USER_CHARGES


@<TRIPOS>ATOM
      1 CA         -0.4918  -16.0175  -49.5856 C.3       0 UNK        -0.1800 
      2 C          -0.3483  -15.0945  -48.3851 C.2       0 UNK         0.5000 
      3 O           0.6768  -14.4285  -48.2410 O.2       0 UNK        -0.5000 
      4 N          -1.3900  -15.0026  -47.5474 N.am      1 UNK        -0.5000 
      5 CA         -1.4661  -14.1534  -46.3460 C.3       1 UNK         0.1400 
      6 C6         -2.5422  -14.6500  -45.3454 C.3       23 UNK        -0.0398 
      7 S7         -1.8993  -16.0003  -44.2996 S.3       23 UNK        -0.2404 
      8 C8         -2.9037  -17.4210  -44.8319 C.3       23 UNK        -0.0205 
      9 C9         -2.4839  -17.9786  -46.1847 C.ar      23 UNK        -0.0193 
     10 C10        -3.4290  -18.1547  -47.1962 C.ar      23 UNK        -0.1150 
     11 C11        -3.0703  -18.7637  -48.4009 C.ar      23 UNK        -0.0193 
     12 C12        -1.7462  -19.1642  -48.6073 C.ar      23 UNK        -0.1150 
     13 C13        -0.7809  -18.9772  -47.6131 C.ar      23 UNK        -0.0193 
     14 C14        -1.1673  -18.3910  -46.4027 C.ar      23 UNK        -0.1150 
     15 C15         0.6716  -19.3735  -47.8815 C.3       23 UNK        -0.0205 
     16 S16         1.5215  -20.1264  -46.4490 S.3       23 UNK        -0.2404 
     17 C17         1.8814  -21.8201  -47.0206 C.3       23 UNK        -0.0398 
     18 CA          0.8780  -22.9190  -46.5915 C.3       11 UNK         0.1400 
     19 N           0.7210  -23.0816  -45.1413 N.am      11 UNK        -0.5000 
     20 C           0.3291  -24.2383  -44.5808 C.2       10 UNK         0.5000 
     21 O           0.0862  -25.2578  -45.2287 O.2       10 UNK        -0.5000 
     22 CA          0.1357  -24.2605  -43.0528 C.3       10 UNK         0.1400 
     23 CB          1.4914  -24.3217  -42.3330 C.3       10 UNK        -0.1800 
     24 N          -0.6262  -23.1175  -42.5544 N.am      10 UNK        -0.5000 
     25 C          -1.8887  -22.8245  -42.8959 C.2       9 UNK         0.5000 
     26 O          -2.5783  -23.5373  -43.6251 O.2       9 UNK        -0.5000 
     27 CA         -2.4695  -21.4937  -42.3675 C.3       9 UNK         0.1400 
     28 CB         -3.3474  -21.7469  -41.1333 C.3       9 UNK        -0.1800 
     29 N          -1.4707  -20.4655  -42.0426 N.am      9 UNK        -0.5000 
     30 C          -0.5558  -19.9870  -42.8961 C.2       8 UNK         0.5000 
     31 O          -0.4332  -20.4054  -44.0473 O.2       8 UNK        -0.5000 
     32 CA          0.3999  -18.9090  -42.3614 C.3       8 UNK         0.1400 
     33 CB          1.2832  -19.4671  -41.2277 C.3       8 UNK        -0.1800 
     34 N           1.2487  -18.4180  -43.4457 N.am      8 UNK        -0.5000 
     35 C           1.8927  -17.2459  -43.4510 C.2       7 UNK         0.5000 
     36 O           1.8025  -16.4174  -42.5427 O.2       7 UNK        -0.5000 
     37 CA          2.7722  -16.9425  -44.6812 C.3       7 UNK         0.1400 
     38 CB          1.9570  -16.2723  -45.7946 C.3       7 UNK        -0.1800 
     39 N           3.8854  -16.0541  -44.3515 N.am      7 UNK        -0.5000 
     40 C           4.9766  -16.4078  -43.6609 C.2       6 UNK         0.5000 
     41 O           5.1756  -17.5470  -43.2366 O.2       6 UNK        -0.5000 
     42 CA          6.0295  -15.3148  -43.4093 C.3       6 UNK         0.1400 
     43 CB          6.9307  -15.1417  -44.6426 C.3       6 UNK        -0.1800 
     44 N           5.4073  -14.0296  -43.0899 N.am      6 UNK        -0.5000 
     45 C           5.6019  -13.3374  -41.9581 C.2       5 UNK         0.5000 
     46 O           6.3644  -13.6936  -41.0586 O.2       5 UNK        -0.5000 
     47 CA          4.8150  -12.0185  -41.7936 C.3       5 UNK         0.1400 
     48 CB          5.6778  -10.8220  -42.2228 C.3       5 UNK        -0.1800 
     49 N           3.5675  -11.9999  -42.5577 N.am      5 UNK        -0.5000 
     50 C           2.5024  -12.7687  -42.2956 C.2       4 UNK         0.5000 
     51 O           2.3953  -13.4357  -41.2665 O.2       4 UNK        -0.5000 
     52 CA          1.3752  -12.8165  -43.3527 C.3       4 UNK         0.1400 
     53 CB          0.0837  -12.2077  -42.7839 C.3       4 UNK        -0.1800 
     54 N           1.6762  -12.1795  -44.6462 N.am      4 UNK        -0.5000 
     55 C           2.6653  -12.5140  -45.4897 C.2       3 UNK         0.5000 
     56 O           3.4960  -13.3892  -45.2370 O.2       3 UNK        -0.5000 
     57 CA          2.7368  -11.7343  -46.8174 C.3       3 UNK         0.1400 
     58 CB          3.7402  -12.3543  -47.8064 C.3       3 UNK        -0.1800 
     59 N           1.4185  -11.7043  -47.4450 N.am      3 UNK        -0.5000 
     60 C           0.6356  -10.6255  -47.6000 C.2       2 UNK         0.5000 
     61 O           0.9677   -9.4865  -47.2721 O.2       2 UNK        -0.5000 
     62 CA         -0.7766  -10.8681  -48.1822 C.3       2 UNK         0.1400 
     63 CB         -0.7739  -10.6751  -49.7059 C.3       2 UNK        -0.1800 
     64 N          -1.2613  -12.2141  -47.8716 N.am      2 UNK        -0.5000 
     65 C          -1.5538  -12.6322  -46.6332 C.2       1 UNK         0.5000 
     66 O          -1.7904  -11.8487  -45.7139 O.2       1 UNK        -0.5000 
     67 C          -0.4810  -22.8070  -47.3049 C.2       11 UNK         0.5000 
     68 O          -0.5910  -23.2668  -48.4402 O.2       11 UNK        -0.5000 
     69 N          -1.5013  -22.2709  -46.6171 N.am      12 UNK        -0.5000 
     70 CA         -2.8858  -22.2294  -47.0945 C.3       12 UNK         0.1400 
     71 CB         -3.7610  -21.4467  -46.1029 C.3       12 UNK        -0.1800 
     72 C          -3.4571  -23.6392  -47.3175 C.2       12 UNK         0.5000 
     73 O          -4.0371  -23.9028  -48.3721 O.2       12 UNK        -0.5000 
     74 N          -3.2385  -24.5214  -46.3318 N.am      13 UNK        -0.5000 
     75 CA         -3.6104  -25.9326  -46.3701 C.3       13 UNK         0.1400 
     76 CB         -3.4161  -26.5508  -44.9774 C.3       13 UNK        -0.1800 
     77 C          -2.8280  -26.7207  -47.4340 C.2       13 UNK         0.5000 
     78 O          -3.4350  -27.5010  -48.1673 O.2       13 UNK        -0.5000 
     79 N          -1.5100  -26.4845  -47.5240 N.am      14 UNK        -0.5000 
     80 CA         -0.6213  -27.1210  -48.5014 C.3       14 UNK         0.1400 
     81 CB          0.8396  -26.7800  -48.1742 C.3       14 UNK        -0.1800 
     82 C          -0.9523  -26.7404  -49.9569 C.2       14 UNK         0.5000 
     83 O          -0.9302  -27.6064  -50.8320 O.2       14 UNK        -0.5000 
     84 N          -1.2804  -25.4614  -50.1833 N.am      15 UNK        -0.5000 
     85 CA         -1.7181  -24.9290  -51.4744 C.3       15 UNK         0.1400 
     86 CB         -1.5496  -23.4015  -51.4565 C.3       15 UNK        -0.1800 
     87 C          -3.1769  -25.2823  -51.8221 C.2       15 UNK         0.5000 
     88 O          -3.5845  -25.0848  -52.9688 O.2       15 UNK        -0.5000 
     89 N          -3.9459  -25.7316  -50.8172 N.am      16 UNK        -0.5000 
     90 CA         -5.3929  -25.9720  -50.8334 C.3       16 UNK         0.1400 
     91 CB         -5.7224  -27.2107  -51.6906 C.3       16 UNK        -0.1800 
     92 C          -6.1820  -24.7155  -51.2600 C.2       16 UNK         0.5000 
     93 O          -7.1597  -24.8195  -52.0032 O.2       16 UNK        -0.5000 
     94 N          -5.6838  -23.5426  -50.8368 N.am      17 UNK        -0.5000 
     95 CA         -6.0369  -22.1753  -51.2426 C.3       17 UNK         0.1400 
     96 CB         -7.4922  -21.8384  -50.8665 C.3       17 UNK        -0.1800 
     97 C          -5.7567  -21.8468  -52.7268 C.2       17 UNK         0.5000 
     98 O          -5.2176  -20.7783  -53.0224 O.2       17 UNK        -0.5000 
     99 N          -6.1354  -22.7602  -53.6271 N.am      18 UNK        -0.5000 
    100 CA        -6.1224  -22.6231  -55.0802 C.3       18 UNK         0.1400 
    101 CB        -6.7490  -23.8779  -55.7064 C.3       18 UNK        -0.1800 
    102 C         -4.7364  -22.3531  -55.6860 C.2       18 UNK         0.5000 
    103 O         -4.6176  -21.4578  -56.5228 O.2       18 UNK        -0.5000 
    104 N         -3.7085  -23.0993  -55.2536 N.am      19 UNK        -0.5000 
    105 CA        -2.3509  -22.9903  -55.8062 C.3       19 UNK         0.1400 
    106 CB        -1.5239  -24.2203  -55.4061 C.3       19 UNK        -0.1800 
    107 C         -1.6273  -21.6878  -55.4094 C.2       19 UNK         0.5000 
    108 O         -0.6931  -21.2788  -56.0992 O.2       19 UNK        -0.5000 
    109 N         -2.0868  -21.0514  -54.3250 N.am      20 UNK        -0.5000 
    110 CA        -1.6279  -19.7441  -53.8559 C.3       20 UNK         0.1400 
    111 CB        -1.6758  -19.7408  -52.3218 C.3       20 UNK        -0.1800 
    112 C         -2.4713  -18.5877  -54.4309 C.2       20 UNK         0.5000 
    113 O         -2.1477  -17.4274  -54.1752 O.2       20 UNK        -0.5000 
    114 N         -3.5325  -18.9194  -55.1840 N.am      21 UNK        -0.5000 
    115 CA        -4.5272  -18.0212  -55.7753 C.3       21 UNK         0.1400 
    116 CB        -3.8859  -17.1050  -56.8389 C.3       21 UNK        -0.1800 
    117 C         -5.3524  -17.2504  -54.7224 C.2       21 UNK         0.5000 
    118 O         -5.7648  -16.1166  -54.9752 O.2       21 UNK        -0.5000 
    119 N         -5.5983  -17.8836  -53.5670 N.am      22 UNK        -0.5000 
    120 CA        -6.4310  -17.3352  -52.4831 C.3       22 UNK         0.1400 
    121 C         -7.9634  -17.4412  -52.7448 C.2       22 UNK         0.5000 
    122 N         -8.4231  -18.1844  -53.7447 N.am      22 UNK        -0.7600 
    123 O         -8.7519  -16.8303  -52.0287 O.2       22 UNK        -0.5000 
    124 C124       -6.0779  -17.9552  -51.1091 C.3       23 UNK        -0.0398 
    125 S125       -4.3684  -17.6250  -50.5673 S.3       23 UNK        -0.2404 
    126 C126       -4.1341  -19.0373  -49.4476 C.3       23 UNK        -0.0205 
    127 H127        0.2634  -16.8010  -49.5530 H         1 UNK         0.0600 
    128 H128       -1.4748  -16.4869  -49.6194 H         1 UNK         0.0600 
    129 H129       -0.3564  -15.4543  -50.5087 H         1 UNK         0.0600 
    130 H130       -2.1997  -15.5819  -47.7191 H         1 UNK         0.3000 
    131 H131       -0.5013  -14.2425  -45.8444 H         1 UNK         0.0600 
    132 H132       -3.4487  -14.9594  -45.8671 H         1 UNK         0.0800 
    133 H133       -2.8538  -13.8656  -44.6542 H         1 UNK         0.0800 
    134 H134       -3.9577  -17.1393  -44.8294 H         1 UNK         0.0800 
    135 H135       -2.8006  -18.2147  -44.0912 H         1 UNK         0.0800 
    136 H136       -4.4558  -17.8594  -47.0320 H         1 UNK         0.1150 
    137 H137       -1.4691  -19.6306  -49.5406 H         1 UNK         0.1150 
    138 H138       -0.4488  -18.2636  -45.6101 H         1 UNK         0.1150 
    139 H139        0.7239  -20.0434  -48.7403 H         1 UNK         0.0800 
    140 H140        1.2234  -18.4775  -48.1651 H         1 UNK         0.0800 
    141 H141        2.0063  -21.8235  -48.1045 H         1 UNK         0.0800 
    142 H142        2.8647  -22.0794  -46.6265 H         1 UNK         0.0800 
    143 H143        1.3187  -23.8473  -46.9590 H         1 UNK         0.0600 
    144 H144        0.8111  -22.2469  -44.5761 H         1 UNK         0.3000 
    145 H145       -0.4232  -25.1651  -42.8040 H         1 UNK         0.0600 
    146 H146        1.3612  -24.4339  -41.2565 H         1 UNK         0.0600 
    147 H147        2.0784  -25.1737  -42.6787 H         1 UNK         0.0600 
    148 H148        2.0831  -23.4222  -42.5077 H         1 UNK         0.0600 
    149 H149       -0.1365  -22.4716  -41.9542 H         1 UNK         0.3000 
    150 H150       -3.1039  -21.0862  -43.1564 H         1 UNK         0.0600 
    151 H151       -4.1205  -22.4861  -41.3480 H         1 UNK         0.0600 
    152 H152       -3.8528  -20.8353  -40.8138 H         1 UNK         0.0600 
    153 H153       -2.7607  -22.1198  -40.2929 H         1 UNK         0.0600 
    154 H154       -1.5079  -20.0895  -41.1062 H         1 UNK         0.3000 
    155 H155       -0.2102  -18.0858  -41.9839 H         1 UNK         0.0600 
    156 H156        1.9538  -18.7029  -40.8343 H         1 UNK         0.0600 
    157 H157        1.8964  -20.3006  -41.5729 H         1 UNK         0.0600 
    158 H158        0.6830  -19.8233  -40.3900 H         1 UNK         0.0600 
    159 H159        1.2908  -19.0340  -44.2505 H         1 UNK         0.3000 
    160 H160        3.1824  -17.8797  -45.0626 H         1 UNK         0.0600 
    161 H161        1.4642  -15.3690  -45.4391 H         1 UNK         0.0600 
    162 H162        1.1871  -16.9340  -46.1794 H         1 UNK         0.0600 
    163 H163        2.5881  -15.9957  -46.6395 H         1 UNK         0.0600 
    164 H164        3.7871  -15.0933  -44.6673 H         1 UNK         0.3000 
    165 H165        6.6534  -15.6559  -42.5806 H         1 UNK         0.0600 
    166 H166        6.3662  -14.7905  -45.5077 H         1 UNK         0.0600 
    167 H167        7.7268  -14.4228  -44.4488 H         1 UNK         0.0600 
    168 H168        7.4036  -16.0853  -44.9177 H         1 UNK         0.0600 
    169 H169        4.7475  -13.6690  -43.7716 H         1 UNK         0.3000 
    170 H170        4.5721  -11.9054  -40.7349 H         1 UNK         0.0600 
    171 H171        6.6075  -10.7871  -41.6533 H         1 UNK         0.0600 
    172 H172        5.9422  -10.8748  -43.2798 H         1 UNK         0.0600 
    173 H173        5.1582   -9.8789  -42.0522 H         1 UNK         0.0600 
    174 H174        3.5684  -11.4680  -43.4147 H         1 UNK         0.3000 
    175 H175        1.1866  -13.8735  -43.5483 H         1 UNK         0.0600 
    176 H176        0.1614  -11.1253  -42.6768 H         1 UNK         0.0600 
    177 H177       -0.7695  -12.4261  -43.4232 H         1 UNK         0.0600 
    178 H178       -0.1501  -12.6195  -41.8011 H         1 UNK         0.0600 
    179 H179        1.0476  -11.4405  -44.9279 H         1 UNK         0.3000 
    180 H180        3.0751  -10.7243  -46.5790 H         1 UNK         0.0600 
    181 H181        3.4739  -13.3828  -48.0550 H         1 UNK         0.0600 
    182 H182        4.7482  -12.3652  -47.3900 H         1 UNK         0.0600 
    183 H183        3.7791  -11.7853  -48.7353 H         1 UNK         0.0600 
    184 H184        1.0656  -12.6126  -47.7375 H         1 UNK         0.3000 
    185 H185       -1.4572  -10.1371  -47.7406 H         1 UNK         0.0600 
    186 H186       -0.4362   -9.6724  -49.9711 H         1 UNK         0.0600 
    187 H187       -0.1117  -11.3867  -50.2011 H         1 UNK         0.0600 
    188 H188       -1.7739  -10.8014  -50.1211 H         1 UNK         0.0600 
    189 H189       -1.0715  -12.9250  -48.5632 H         1 UNK         0.3000 
    190 H190       -1.3130  -21.8779  -45.7040 H         1 UNK         0.3000 
    191 H191       -2.8880  -21.7061  -48.0518 H         1 UNK         0.0600 
    192 H192       -4.6836  -21.1181  -46.5819 H         1 UNK         0.0600 
    193 H193       -3.2491  -20.5620  -45.7304 H         1 UNK         0.0600 
    194 H194       -4.0430  -22.0456  -45.2375 H         1 UNK         0.0600 
    195 H195       -2.7922  -24.1950  -45.4795 H         1 UNK         0.3000 
    196 H196       -4.6709  -25.9919  -46.6238 H         1 UNK         0.0600 
    197 H197       -3.6981  -27.6044  -44.9737 H         1 UNK         0.0600 
    198 H198       -4.0328  -26.0456  -44.2338 H         1 UNK         0.0600 
    199 H199       -2.3784  -26.4855  -44.6481 H         1 UNK         0.0600 
    200 H200       -1.0772  -25.8602  -46.8518 H         1 UNK         0.3000 
    201 H201       -0.7451  -28.2016  -48.4044 H         1 UNK         0.0600 
    202 H202        1.0952  -27.0646  -47.1534 H         1 UNK         0.0600 
    203 H203        1.0372  -25.7148  -48.2883 H         1 UNK         0.0600 
    204 H204        1.5209  -27.3109  -48.8403 H         1 UNK         0.0600 
    205 H205       -1.2097  -24.7895  -49.4230 H         1 UNK         0.3000 
    206 H206       -1.0795  -25.3423  -52.2571 H         1 UNK         0.0600 
    207 H207       -0.5096  -23.1197  -51.2912 H         1 UNK         0.0600 
    208 H208       -1.8589  -22.9607  -52.4020 H         1 UNK         0.0600 
    209 H209       -2.1514  -22.9396  -50.6725 H         1 UNK         0.0600 
    210 H210       -3.5074  -25.8310  -49.9114 H         1 UNK         0.3000 
    211 H211       -5.6835  -26.1865  -49.8041 H         1 UNK         0.0600 
    212 H212       -5.5001  -27.0439  -52.7451 H         1 UNK         0.0600 
    213 H213       -6.7791  -27.4694  -51.6150 H         1 UNK         0.0600 
    214 H214       -5.1518  -28.0789  -51.3607 H         1 UNK         0.0600 
    215 H215       -4.9077  -23.6051  -50.1842 H         1 UNK         0.3000 
    216 H216       -5.3905  -21.5246  -50.6555 H         1 UNK         0.0600 
    217 H217       -8.2080  -22.4731  -51.3890 H         1 UNK         0.0600 
    218 H218       -7.7386  -20.8073  -51.1199 H         1 UNK         0.0600 
    219 H219       -7.6581  -21.9588  -49.7960 H         1 UNK         0.0600 
    220 H220       -6.5599  -23.6076  -53.2582 H         1 UNK         0.3000 
    221 H221       -6.7569  -21.7697  -55.3274 H         1 UNK         0.0600 
    222 H222       -6.1913  -24.7783  -55.4446 H         1 UNK         0.0600 
    223 H223       -7.7775  -24.0135  -55.3712 H         1 UNK         0.0600 
    224 H224       -6.7688  -23.8063  -56.7947 H         1 UNK         0.0600 
    225 H225       -3.8611  -23.8038  -54.5371 H         1 UNK         0.3000 
    226 H226       -2.4343  -22.9918  -56.8952 H         1 UNK         0.0600 
    227 H227       -2.0328  -25.1462  -55.6744 H         1 UNK         0.0600 
    228 H228       -0.5583  -24.2203  -55.9131 H         1 UNK         0.0600 
    229 H229       -1.3268  -24.2422  -54.3366 H         1 UNK         0.0600 
    230 H230       -2.8817  -21.4459  -53.8414 H         1 UNK         0.3000 
    231 H231       -0.5937  -19.5780  -54.1642 H         1 UNK         0.0600 
    232 H232       -2.6810  -19.9557  -51.9628 H         1 UNK         0.0600 
    233 H233       -1.0008  -20.4876  -51.9043 H         1 UNK         0.0600 
    234 H234       -1.3798  -18.7722  -51.9162 H         1 UNK         0.0600 
    235 H235       -3.7021  -19.9033  -55.3524 H         1 UNK         0.3000 
    236 H236       -5.2384  -18.6668  -56.2922 H         1 UNK         0.0600 
    237 H237       -3.3168  -17.6843  -57.5660 H         1 UNK         0.0600 
    238 H238       -4.6483  -16.5541  -57.3908 H         1 UNK         0.0600 
    239 H239       -3.2138  -16.3718  -56.3926 H         1 UNK         0.0600 
    240 H240       -5.2478  -18.8266  -53.4295 H         1 UNK         0.3000 
    241 H241       -6.2201  -16.2663  -52.4125 H         1 UNK         0.0600 
    242 H242       -7.7891  -18.6902  -54.3409 H         1 UNK         0.3800 
    243 H243       -9.4166  -18.2384  -53.9062 H         1 UNK         0.3800 
    244 H244       -6.7386  -17.5706  -50.3299 H         1 UNK         0.0800 
    245 H245       -6.2379  -19.0320  -51.1409 H         1 UNK         0.0800 
    246 H246       -3.8697  -19.9213  -50.0255 H         1 UNK         0.0800 
    247 H247       -5.0747  -19.2717  -48.9463 H         1 UNK         0.0800 
@<TRIPOS>BOND
     1    1    2 1    
     2    1  127 1    
     3    1  128 1    
     4    1  129 1    
     5    2    3 2    
     6    2    4 am   BACKBONE|DICT|INTERRES
     7    4    5 1    
     8    4  130 1    
     9    5    6 1    
    10    5   65 1    
    11    5  131 1    
    12    6    7 1    
    13    6  132 1    
    14    6  133 1    
    15    7    8 1    
    16    8    9 1    
    17    8  134 1    
    18    8  135 1    
    19    9   10 ar   
    20    9   14 ar   
    21   10   11 ar   
    22   10  136 1    
    23   11   12 ar   
    24   11  126 1    
    25   12   13 ar   
    26   12  137 1    
    27   13   14 ar   
    28   13   15 1    
    29   14  138 1    
    30   15   16 1    
    31   15  139 1    
    32   15  140 1    
    33   16   17 1    
    34   17   18 1    
    35   17  141 1    
    36   17  142 1    
    37   18   19 1    
    38   18   67 1    
    39   18  143 1    
    40   19   20 am   BACKBONE|DICT|INTERRES
    41   19  144 1    
    42   20   21 2    
    43   20   22 1    
    44   22   23 1    
    45   22   24 1    
    46   22  145 1    
    47   23  146 1    
    48   23  147 1    
    49   23  148 1    
    50   24   25 am   BACKBONE|DICT|INTERRES
    51   24  149 1    
    52   25   26 2    
    53   25   27 1    
    54   27   28 1    
    55   27   29 1    
    56   27  150 1    
    57   28  151 1    
    58   28  152 1    
    59   28  153 1    
    60   29   30 am   BACKBONE|DICT|INTERRES
    61   29  154 1    
    62   30   31 2    
    63   30   32 1    
    64   32   33 1    
    65   32   34 1    
    66   32  155 1    
    67   33  156 1    
    68   33  157 1    
    69   33  158 1    
    70   34   35 am   BACKBONE|DICT|INTERRES
    71   34  159 1    
    72   35   36 2    
    73   35   37 1    
    74   37   38 1    
    75   37   39 1    
    76   37  160 1    
    77   38  161 1    
    78   38  162 1    
    79   38  163 1    
    80   39   40 am   BACKBONE|DICT|INTERRES
    81   39  164 1    
    82   40   41 2    
    83   40   42 1    
    84   42   43 1    
    85   42   44 1    
    86   42  165 1    
    87   43  166 1    
    88   43  167 1    
    89   43  168 1    
    90   44   45 am   BACKBONE|DICT|INTERRES
    91   44  169 1    
    92   45   46 2    
    93   45   47 1    
    94   47   48 1    
    95   47   49 1    
    96   47  170 1    
    97   48  171 1    
    98   48  172 1    
    99   48  173 1    
   100   49   50 am   BACKBONE|DICT|INTERRES
   101   49  174 1    
   102   50   51 2    
   103   50   52 1    
   104   52   53 1    
   105   52   54 1    
   106   52  175 1    
   107   53  176 1    
   108   53  177 1    
   109   53  178 1    
   110   54   55 am   BACKBONE|DICT|INTERRES
   111   54  179 1    
   112   55   56 2    
   113   55   57 1    
   114   57   58 1    
   115   57   59 1    
   116   57  180 1    
   117   58  181 1    
   118   58  182 1    
   119   58  183 1    
   120   59   60 am   BACKBONE|DICT|INTERRES
   121   59  184 1    
   122   60   61 2    
   123   60   62 1    
   124   62   63 1    
   125   62   64 1    
   126   62  185 1    
   127   63  186 1    
   128   63  187 1    
   129   63  188 1    
   130   64   65 am   BACKBONE|DICT|INTERRES
   131   64  189 1    
   132   65   66 2    
   133   67   68 2    
   134   67   69 am   BACKBONE|DICT|INTERRES
   135   69   70 1    
   136   69  190 1    
   137   70   71 1    
   138   70   72 1    
   139   70  191 1    
   140   71  192 1    
   141   71  193 1    
   142   71  194 1    
   143   72   73 2    
   144   72   74 am   BACKBONE|DICT|INTERRES
   145   74   75 1    
   146   74  195 1    
   147   75   76 1    
   148   75   77 1    
   149   75  196 1    
   150   76  197 1    
   151   76  198 1    
   152   76  199 1    
   153   77   78 2    
   154   77   79 am   BACKBONE|DICT|INTERRES
   155   79   80 1    
   156   79  200 1    
   157   80   81 1    
   158   80   82 1    
   159   80  201 1    
   160   81  202 1    
   161   81  203 1    
   162   81  204 1    
   163   82   83 2    
   164   82   84 am   BACKBONE|DICT|INTERRES
   165   84   85 1    
   166   84  205 1    
   167   85   86 1    
   168   85   87 1    
   169   85  206 1    
   170   86  207 1    
   171   86  208 1    
   172   86  209 1    
   173   87   88 2    
   174   87   89 am   BACKBONE|DICT|INTERRES
   175   89   90 1    
   176   89  210 1    
   177   90   91 1    
   178   90   92 1    
   179   90  211 1    
   180   91  212 1    
   181   91  213 1    
   182   91  214 1    
   183   92   93 2    
   184   92   94 am   BACKBONE|DICT|INTERRES
   185   94   95 1    
   186   94  215 1    
   187   95   96 1    
   188   95   97 1    
   189   95  216 1    
   190   96  217 1    
   191   96  218 1    
   192   96  219 1    
   193   97   98 2    
   194   97   99 am   BACKBONE|DICT|INTERRES
   195   99  100 1    
   196   99  220 1    
   197  100  101 1    
   198  100  102 1    
   199  100  221 1    
   200  101  222 1    
   201  101  223 1    
   202  101  224 1    
   203  102  103 2    
   204  102  104 am   BACKBONE|DICT|INTERRES
   205  104  105 1    
   206  104  225 1    
   207  105  106 1    
   208  105  107 1    
   209  105  226 1    
   210  106  227 1    
   211  106  228 1    
   212  106  229 1    
   213  107  108 2    
   214  107  109 am   BACKBONE|DICT|INTERRES
   215  109  110 1    
   216  109  230 1    
   217  110  111 1    
   218  110  112 1    
   219  110  231 1    
   220  111  232 1    
   221  111  233 1    
   222  111  234 1    
   223  112  113 2    
   224  112  114 am   BACKBONE|DICT|INTERRES
   225  114  115 1    
   226  114  235 1    
   227  115  116 1    
   228  115  117 1    
   229  115  236 1    
   230  116  237 1    
   231  116  238 1    
   232  116  239 1    
   233  117  118 2    
   234  117  119 am   BACKBONE|DICT|INTERRES
   235  119  120 1    
   236  119  240 1    
   237  120  121 1    
   238  120  124 1    
   239  120  241 1    
   240  121  122 am   BACKBONE|DICT|INTERRES
   241  121  123 2    
   242  122  242 1    
   243  122  243 1    
   244  124  125 1    
   245  124  244 1    
   246  124  245 1    
   247  125  126 1    
   248  126  246 1    
   249  126  247 1    
@<TRIPOS>SUBSTRUCTURE
     1 UNK         1 GROUP             0       ****    0 ROOT    
