@<TRIPOS>MOLECULE
3R540
247   249    1
SMALL
USER_CHARGES


@<TRIPOS>ATOM
      1 CA         -2.5859  -14.9171  -49.8815 C.3       0 UNK        -0.1800 
      2 C          -1.4109  -14.0022  -50.2013 C.2       0 UNK         0.5000 
      3 O          -1.2778  -13.5509  -51.3383 O.2       0 UNK        -0.5000 
      4 N          -0.5750  -13.7150  -49.1980 N.am      1 UNK        -0.5000 
      5 CA          0.5899  -12.8393  -49.2799 C.3       1 UNK         0.1400 
      6 C6          1.8696  -13.6656  -49.5870 C.3       23 UNK        -0.0398 
      7 S7          2.3404  -14.8087  -48.2380 S.3       23 UNK        -0.2404 
      8 C8          3.8895  -15.5066  -48.8782 C.3       23 UNK        -0.0205 
      9 C9          3.6191  -16.6355  -49.8574 C.ar      23 UNK        -0.0193 
     10 C10         3.5555  -16.3862  -51.2307 C.ar      23 UNK        -0.1150 
     11 C11         3.2966  -17.4181  -52.1385 C.ar      23 UNK        -0.0193 
     12 C12         3.1161  -18.7189  -51.6446 C.ar      23 UNK        -0.1150 
     13 C13         3.1667  -18.9791  -50.2717 C.ar      23 UNK        -0.0193 
     14 C14         3.4245  -17.9338  -49.3840 C.ar      23 UNK        -0.1150 
     15 C15         2.9331  -20.3872  -49.7489 C.3       23 UNK        -0.0205 
     16 S16         1.2779  -20.5491  -49.0107 S.3       23 UNK        -0.2404 
     17 C17         0.9735  -22.3332  -49.2425 C.3       23 UNK        -0.0398 
     18 CA          0.1828  -23.0138  -48.1017 C.3       11 UNK         0.1400 
     19 N           0.8004  -22.8363  -46.7858 N.am      11 UNK        -0.5000 
     20 C           0.5337  -23.6080  -45.7260 C.2       10 UNK         0.5000 
     21 O          -0.3242  -24.4900  -45.7481 O.2       10 UNK        -0.5000 
     22 CA          1.2954  -23.3622  -44.4110 C.3       10 UNK         0.1400 
     23 CB          2.1288  -24.5923  -44.0024 C.3       10 UNK        -0.1800 
     24 N           2.0892  -22.1309  -44.3607 N.am      10 UNK        -0.5000 
     25 C           3.2476  -21.8328  -44.9666 C.2       9 UNK         0.5000 
     26 O           3.8214  -22.5868  -45.7521 O.2       9 UNK        -0.5000 
     27 CA          3.8680  -20.4499  -44.6618 C.3       9 UNK         0.1400 
     28 CB          3.9442  -19.6047  -45.9422 C.3       9 UNK        -0.1800 
     29 N           3.1388  -19.6908  -43.6409 N.am      9 UNK        -0.5000 
     30 C           3.1644  -19.9299  -42.3221 C.2       8 UNK         0.5000 
     31 O           3.8977  -20.7655  -41.7933 O.2       8 UNK        -0.5000 
     32 CA          2.1496  -19.1503  -41.4604 C.3       8 UNK         0.1400 
     33 CB          2.7292  -17.8035  -41.0027 C.3       8 UNK        -0.1800 
     34 N           0.8753  -18.9333  -42.1541 N.am      8 UNK        -0.5000 
     35 C           0.0266  -19.9140  -42.4983 C.2       7 UNK         0.5000 
     36 O           0.1939  -21.0933  -42.1931 O.2       7 UNK        -0.5000 
     37 CA         -1.1722  -19.5359  -43.3828 C.3       7 UNK         0.1400 
     38 CB         -2.3493  -19.0394  -42.5327 C.3       7 UNK        -0.1800 
     39 N          -0.8104  -18.5329  -44.3833 N.am      7 UNK        -0.5000 
     40 C          -0.0693  -18.7839  -45.4716 C.2       6 UNK         0.5000 
     41 O           0.2729  -19.9185  -45.8041 O.2       6 UNK        -0.5000 
     42 CA          0.3664  -17.5771  -46.3261 C.3       6 UNK         0.1400 
     43 CB         -0.6196  -17.3196  -47.4669 C.3       6 UNK        -0.1800 
     44 N           0.5224  -16.3524  -45.5453 N.am      6 UNK        -0.5000 
     45 C           1.4999  -16.1539  -44.6534 C.2       5 UNK         0.5000 
     46 O           2.3787  -16.9798  -44.4109 O.2       5 UNK        -0.5000 
     47 CA          1.4479  -14.8396  -43.8582 C.3       5 UNK         0.1400 
     48 CB          2.0674  -13.6838  -44.6567 C.3       5 UNK        -0.1800 
     49 N           0.0795  -14.4938  -43.4728 N.am      5 UNK        -0.5000 
     50 C          -0.6297  -15.1511  -42.5452 C.2       4 UNK         0.5000 
     51 O          -0.1919  -16.1055  -41.9022 O.2       4 UNK        -0.5000 
     52 CA         -2.0828  -14.6877  -42.3293 C.3       4 UNK         0.1400 
     53 CB         -2.1301  -13.4664  -41.3991 C.3       4 UNK        -0.1800 
     54 N          -2.7704  -14.3706  -43.5831 N.am      4 UNK        -0.5000 
     55 C          -3.0798  -15.2765  -44.5210 C.2       3 UNK         0.5000 
     56 O          -2.8328  -16.4754  -44.4180 O.2       3 UNK        -0.5000 
     57 CA         -3.7298  -14.7558  -45.8157 C.3       3 UNK         0.1400 
     58 CB         -5.2559  -14.6846  -45.6628 C.3       3 UNK        -0.1800 
     59 N          -3.2249  -13.4558  -46.2695 N.am      3 UNK        -0.5000 
     60 C          -1.9410  -13.1748  -46.5263 C.2       2 UNK         0.5000 
     61 O          -1.0236  -13.9787  -46.3416 O.2       2 UNK        -0.5000 
     62 CA         -1.6430  -11.7999  -47.1619 C.3       2 UNK         0.1400 
     63 CB         -2.3163  -10.6648  -46.3689 C.3       2 UNK        -0.1800 
     64 N          -0.2080  -11.5088  -47.2218 N.am      2 UNK        -0.5000 
     65 C           0.7741  -11.8751  -48.0685 C.2       1 UNK         0.5000 
     66 O           1.8954  -11.3994  -47.8922 O.2       1 UNK        -0.5000 
     67 C          -1.3179  -22.6586  -48.1038 C.2       11 UNK         0.5000 
     68 O          -2.1189  -23.4476  -48.6072 O.2       11 UNK        -0.5000 
     69 N          -1.6936  -21.5308  -47.4787 N.am      12 UNK        -0.5000 
     70 CA         -3.1032  -21.1545  -47.3100 C.3       12 UNK         0.1400 
     71 CB         -3.2525  -19.6482  -47.0562 C.3       12 UNK        -0.1800 
     72 C          -3.8030  -21.9501  -46.1963 C.2       12 UNK         0.5000 
     73 O          -5.0300  -21.9879  -46.1811 O.2       12 UNK        -0.5000 
     74 N          -3.0365  -22.5821  -45.2969 N.am      13 UNK        -0.5000 
     75 CA         -3.5721  -23.4997  -44.2915 C.3       13 UNK         0.1400 
     76 CB         -2.5610  -23.6800  -43.1486 C.3       13 UNK        -0.1800 
     77 C          -3.9494  -24.8499  -44.9277 C.2       13 UNK         0.5000 
     78 O          -5.0339  -25.3663  -44.6591 O.2       13 UNK        -0.5000 
     79 N          -3.0605  -25.3764  -45.7825 N.am      14 UNK        -0.5000 
     80 CA         -3.2395  -26.6291  -46.5138 C.3       14 UNK         0.1400 
     81 CB         -1.8990  -27.0495  -47.1370 C.3       14 UNK        -0.1800 
     82 C          -4.3353  -26.5418  -47.5899 C.2       14 UNK         0.5000 
     83 O          -5.1983  -27.4185  -47.6481 O.2       14 UNK        -0.5000 
     84 N          -4.2859  -25.4898  -48.4193 N.am      15 UNK        -0.5000 
     85 CA         -5.2290  -25.2771  -49.5217 C.3       15 UNK         0.1400 
     86 CB         -4.5435  -24.4318  -50.6001 C.3       15 UNK        -0.1800 
     87 C          -6.5480  -24.6124  -49.0881 C.2       15 UNK         0.5000 
     88 O          -7.4915  -24.5838  -49.8779 O.2       15 UNK        -0.5000 
     89 N          -6.5770  -24.0658  -47.8652 N.am      16 UNK        -0.5000 
     90 CA         -7.6677  -23.3278  -47.2164 C.3       16 UNK         0.1400 
     91 CB         -8.9618  -24.1659  -47.1561 C.3       16 UNK        -0.1800 
     92 C          -7.9221  -21.9132  -47.7845 C.2       16 UNK         0.5000 
     93 O          -8.7641  -21.2022  -47.2327 O.2       16 UNK        -0.5000 
     94 N          -7.2040  -21.5054  -48.8411 N.am      17 UNK        -0.5000 
     95 CA         -7.3376  -20.2109  -49.5033 C.3       17 UNK         0.1400 
     96 CB         -8.6741  -20.1462  -50.2735 C.3       17 UNK        -0.1800 
     97 C          -6.1679  -19.9701  -50.4710 C.2       17 UNK         0.5000 
     98 O          -5.4508  -20.9083  -50.8333 O.2       17 UNK        -0.5000 
     99 N          -6.0408  -18.7038  -50.8971 N.am      18 UNK        -0.5000 
    100 CA        -5.3001  -18.1995  -52.0640 C.3       18 UNK         0.1400 
    101 CB        -5.9808  -18.6980  -53.3564 C.3       18 UNK        -0.1800 
    102 C         -3.7827  -18.4731  -52.0919 C.2       18 UNK         0.5000 
    103 O         -3.1736  -18.3473  -53.1565 O.2       18 UNK        -0.5000 
    104 N         -3.1984  -18.8674  -50.9509 N.am      19 UNK        -0.5000 
    105 CA        -1.8091  -19.3225  -50.8045 C.3       19 UNK         0.1400 
    106 CB        -0.8285  -18.1469  -51.0115 C.3       19 UNK        -0.1800 
    107 C         -1.4934  -20.5364  -51.7055 C.2       19 UNK         0.5000 
    108 O         -0.4134  -20.6043  -52.2884 O.2       19 UNK        -0.5000 
    109 N         -2.4695  -21.4484  -51.8487 N.am      20 UNK        -0.5000 
    110 CA        -2.4508  -22.5977  -52.7645 C.3       20 UNK         0.1400 
    111 CB        -1.3706  -23.6214  -52.3536 C.3       20 UNK        -0.1800 
    112 C         -2.3575  -22.1685  -54.2448 C.2       20 UNK         0.5000 
    113 O         -1.6092  -22.7607  -55.0234 O.2       20 UNK        -0.5000 
    114 N         -3.1222  -21.1198  -54.5831 N.am      21 UNK        -0.5000 
    115 CA        -3.2084  -20.4328  -55.8778 C.3       21 UNK         0.1400 
    116 CB        -3.6378  -21.3954  -57.0046 C.3       21 UNK        -0.1800 
    117 C         -1.9550  -19.6071  -56.2423 C.2       21 UNK         0.5000 
    118 O         -1.8432  -19.1482  -57.3805 O.2       21 UNK        -0.5000 
    119 N         -1.0522  -19.3995  -55.2760 N.am      22 UNK        -0.5000 
    120 CA         0.1039  -18.4991  -55.3841 C.3       22 UNK         0.1400 
    121 C         -0.2758  -16.9922  -55.2725 C.2       22 UNK         0.5000 
    122 N         -1.4016  -16.6345  -54.6640 N.am      22 UNK        -0.7600 
    123 O          0.4492  -16.1333  -55.7663 O.2       22 UNK        -0.5000 
    124 C124        1.1878  -18.8956  -54.3527 C.3       23 UNK        -0.0398 
    125 S125        2.8904  -18.4180  -54.8007 S.3       23 UNK        -0.2404 
    126 C126        3.2114  -17.0537  -53.6254 C.3       23 UNK        -0.0205 
    127 H127       -3.5005  -14.3319  -49.7887 H         1 UNK         0.0600 
    128 H128       -2.7282  -15.6446  -50.6806 H         1 UNK         0.0600 
    129 H129       -2.4330  -15.4611  -48.9499 H         1 UNK         0.0600 
    130 H130       -0.7182  -14.1151  -48.2763 H         1 UNK         0.3000 
    131 H131        0.4439  -12.1611  -50.1228 H         1 UNK         0.0600 
    132 H132        1.7141  -14.2498  -50.4946 H         1 UNK         0.0800 
    133 H133        2.7110  -13.0050  -49.8020 H         1 UNK         0.0800 
    134 H134        4.4756  -15.8833  -48.0386 H         1 UNK         0.0800 
    135 H135        4.4913  -14.7241  -49.3428 H         1 UNK         0.0800 
    136 H136        3.6994  -15.3787  -51.5951 H         1 UNK         0.1150 
    137 H137        2.9186  -19.5406  -52.3158 H         1 UNK         0.1150 
    138 H138        3.4587  -18.1271  -48.3222 H         1 UNK         0.1150 
    139 H139        3.0443  -21.1051  -50.5629 H         1 UNK         0.0800 
    140 H140        3.6891  -20.6418  -49.0051 H         1 UNK         0.0800 
    141 H141        1.9352  -22.8387  -49.3391 H         1 UNK         0.0800 
    142 H142        0.4716  -22.4772  -50.2004 H         1 UNK         0.0800 
    143 H143        0.2251  -24.0846  -48.3156 H         1 UNK         0.0600 
    144 H144        1.4652  -22.0813  -46.6899 H         1 UNK         0.3000 
    145 H145        0.5265  -23.2365  -43.6497 H         1 UNK         0.0600 
    146 H146        2.6314  -24.4295  -43.0489 H         1 UNK         0.0600 
    147 H147        1.4932  -25.4712  -43.8873 H         1 UNK         0.0600 
    148 H148        2.8867  -24.8383  -44.7463 H         1 UNK         0.0600 
    149 H149        1.6967  -21.4186  -43.7591 H         1 UNK         0.3000 
    150 H150        4.8851  -20.6193  -44.3031 H         1 UNK         0.0600 
    151 H151        4.5826  -20.0800  -46.6876 H         1 UNK         0.0600 
    152 H152        4.3573  -18.6154  -45.7444 H         1 UNK         0.0600 
    153 H153        2.9596  -19.4760  -46.3903 H         1 UNK         0.0600 
    154 H154        2.5760  -18.9142  -43.9741 H         1 UNK         0.3000 
    155 H155        1.9458  -19.7480  -40.5694 H         1 UNK         0.0600 
    156 H156        2.9655  -17.1549  -41.8456 H         1 UNK         0.0600 
    157 H157        3.6488  -17.9491  -40.4347 H         1 UNK         0.0600 
    158 H158        2.0289  -17.2718  -40.3583 H         1 UNK         0.0600 
    159 H159        0.6422  -17.9759  -42.3925 H         1 UNK         0.3000 
    160 H160       -1.4970  -20.4388  -43.9038 H         1 UNK         0.0600 
    161 H161       -3.2315  -18.8662  -43.1490 H         1 UNK         0.0600 
    162 H162       -2.1117  -18.1087  -42.0172 H         1 UNK         0.0600 
    163 H163       -2.6227  -19.7757  -41.7760 H         1 UNK         0.0600 
    164 H164       -1.1630  -17.5938  -44.2346 H         1 UNK         0.3000 
    165 H165        1.3324  -17.8184  -46.7730 H         1 UNK         0.0600 
    166 H166       -0.2737  -16.5071  -48.1050 H         1 UNK         0.0600 
    167 H167       -0.7086  -18.2058  -48.0931 H         1 UNK         0.0600 
    168 H168       -1.6109  -17.0612  -47.0944 H         1 UNK         0.0600 
    169 H169       -0.1384  -15.6011  -45.7182 H         1 UNK         0.3000 
    170 H170        2.0376  -14.9764  -42.9493 H         1 UNK         0.0600 
    171 H171        3.0896  -13.9195  -44.9553 H         1 UNK         0.0600 
    172 H172        1.5038  -13.4735  -45.5651 H         1 UNK         0.0600 
    173 H173        2.1025  -12.7689  -44.0654 H         1 UNK         0.0600 
    174 H174       -0.3748  -13.7725  -44.0139 H         1 UNK         0.3000 
    175 H175       -2.6220  -15.5047  -41.8450 H         1 UNK         0.0600 
    176 H176       -3.1582  -13.1824  -41.1737 H         1 UNK         0.0600 
    177 H177       -1.6376  -13.6803  -40.4496 H         1 UNK         0.0600 
    178 H178       -1.6317  -12.6023  -41.8403 H         1 UNK         0.0600 
    179 H179       -3.0028  -13.4029  -43.7500 H         1 UNK         0.3000 
    180 H180       -3.5054  -15.4811  -46.6001 H         1 UNK         0.0600 
    181 H181       -5.5523  -13.9410  -44.9220 H         1 UNK         0.0600 
    182 H182       -5.6620  -15.6459  -45.3444 H         1 UNK         0.0600 
    183 H183       -5.7359  -14.4287  -46.6076 H         1 UNK         0.0600 
    184 H184       -3.9230  -12.7500  -46.4538 H         1 UNK         0.3000 
    185 H185       -2.0504  -11.7878  -48.1735 H         1 UNK         0.0600 
    186 H186       -2.0078  -10.6649  -45.3224 H         1 UNK         0.0600 
    187 H187       -2.0652   -9.6901  -46.7885 H         1 UNK         0.0600 
    188 H188       -3.4035  -10.7444  -46.3929 H         1 UNK         0.0600 
    189 H189        0.0942  -10.9100  -46.4691 H         1 UNK         0.3000 
    190 H190       -0.9860  -20.9503  -47.0372 H         1 UNK         0.3000 
    191 H191       -3.6326  -21.3772  -48.2396 H         1 UNK         0.0600 
    192 H192       -2.8341  -19.0607  -47.8688 H         1 UNK         0.0600 
    193 H193       -2.7798  -19.3443  -46.1246 H         1 UNK         0.0600 
    194 H194       -4.3053  -19.3725  -46.9809 H         1 UNK         0.0600 
    195 H195       -2.0341  -22.5318  -45.3934 H         1 UNK         0.3000 
    196 H196       -4.4772  -23.0610  -43.8653 H         1 UNK         0.0600 
    197 H197       -2.9968  -24.2676  -42.3399 H         1 UNK         0.0600 
    198 H198       -2.2614  -22.7203  -42.7269 H         1 UNK         0.0600 
    199 H199       -1.6620  -24.2009  -43.4749 H         1 UNK         0.0600 
    200 H200       -2.1615  -24.9172  -45.9013 H         1 UNK         0.3000 
    201 H201       -3.5352  -27.3987  -45.7978 H         1 UNK         0.0600 
    202 H202       -1.1412  -27.2064  -46.3692 H         1 UNK         0.0600 
    203 H203       -1.5206  -26.2947  -47.8278 H         1 UNK         0.0600 
    204 H204       -1.9995  -27.9837  -47.6909 H         1 UNK         0.0600 
    205 H205       -3.5255  -24.8205  -48.3354 H         1 UNK         0.3000 
    206 H206       -5.4824  -26.2422  -49.9657 H         1 UNK         0.0600 
    207 H207       -3.6402  -24.9231  -50.9600 H         1 UNK         0.0600 
    208 H208       -5.1996  -24.2847  -51.4591 H         1 UNK         0.0600 
    209 H209       -4.2680  -23.4456  -50.2249 H         1 UNK         0.0600 
    210 H210       -5.7305  -24.1247  -47.3168 H         1 UNK         0.3000 
    211 H211       -7.3445  -23.1804  -46.1854 H         1 UNK         0.0600 
    212 H212       -9.4198  -24.2834  -48.1383 H         1 UNK         0.0600 
    213 H213       -9.7021  -23.6909  -46.5114 H         1 UNK         0.0600 
    214 H214       -8.7707  -25.1596  -46.7509 H         1 UNK         0.0600 
    215 H215       -6.5140  -22.1223  -49.2482 H         1 UNK         0.3000 
    216 H216       -7.3140  -19.4279  -48.7427 H         1 UNK         0.0600 
    217 H217       -8.7836  -19.2014  -50.8072 H         1 UNK         0.0600 
    218 H218       -9.5311  -20.2298  -49.6056 H         1 UNK         0.0600 
    219 H219       -8.7472  -20.9476  -51.0098 H         1 UNK         0.0600 
    220 H220       -6.6528  -18.0180  -50.4766 H         1 UNK         0.3000 
    221 H221       -5.3995  -17.1135  -52.0378 H         1 UNK         0.0600 
    222 H222       -5.8780  -19.7770  -53.4764 H         1 UNK         0.0600 
    223 H223       -7.0453  -18.4631  -53.3560 H         1 UNK         0.0600 
    224 H224       -5.5515  -18.2255  -54.2408 H         1 UNK         0.0600 
    225 H225       -3.7905  -18.9611  -50.1391 H         1 UNK         0.3000 
    226 H226       -1.6915  -19.6779  -49.7819 H         1 UNK         0.0600 
    227 H227       -1.0449  -17.3272  -50.3306 H         1 UNK         0.0600 
    228 H228        0.2014  -18.4512  -50.8257 H         1 UNK         0.0600 
    229 H229       -0.8705  -17.7507  -52.0248 H         1 UNK         0.0600 
    230 H230       -3.3453  -21.2927  -51.3613 H         1 UNK         0.3000 
    231 H231       -3.4215  -23.0812  -52.6677 H         1 UNK         0.0600 
    232 H232       -1.4528  -23.8821  -51.2988 H         1 UNK         0.0600 
    233 H233       -0.3631  -23.2428  -52.5269 H         1 UNK         0.0600 
    234 H234       -1.4734  -24.5442  -52.9252 H         1 UNK         0.0600 
    235 H235       -3.6502  -20.6809  -53.8424 H         1 UNK         0.3000 
    236 H236       -4.0087  -19.7009  -55.7607 H         1 UNK         0.0600 
    237 H237       -3.8814  -20.8463  -57.9148 H         1 UNK         0.0600 
    238 H238       -2.8496  -22.1048  -57.2571 H         1 UNK         0.0600 
    239 H239       -4.5250  -21.9626  -56.7233 H         1 UNK         0.0600 
    240 H240       -1.2216  -19.7991  -54.3628 H         1 UNK         0.3000 
    241 H241        0.5280  -18.6419  -56.3799 H         1 UNK         0.0600 
    242 H242       -1.6390  -15.6578  -54.6054 H         1 UNK         0.3800 
    243 H243       -2.0102  -17.3245  -54.2305 H         1 UNK         0.3800 
    244 H244        0.9326  -18.5156  -53.3637 H         1 UNK         0.0800 
    245 H245        1.2127  -19.9815  -54.2510 H         1 UNK         0.0800 
    246 H246        2.4379  -16.2957  -53.7567 H         1 UNK         0.0800 
    247 H247        4.1515  -16.5828  -53.9159 H         1 UNK         0.0800 
@<TRIPOS>BOND
     1    1    2 1    
     2    1  127 1    
     3    1  128 1    
     4    1  129 1    
     5    2    3 2    
     6    2    4 am   BACKBONE|DICT|INTERRES
     7    4    5 1    
     8    4  130 1    
     9    5    6 1    
    10    5   65 1    
    11    5  131 1    
    12    6    7 1    
    13    6  132 1    
    14    6  133 1    
    15    7    8 1    
    16    8    9 1    
    17    8  134 1    
    18    8  135 1    
    19    9   10 ar   
    20    9   14 ar   
    21   10   11 ar   
    22   10  136 1    
    23   11   12 ar   
    24   11  126 1    
    25   12   13 ar   
    26   12  137 1    
    27   13   14 ar   
    28   13   15 1    
    29   14  138 1    
    30   15   16 1    
    31   15  139 1    
    32   15  140 1    
    33   16   17 1    
    34   17   18 1    
    35   17  141 1    
    36   17  142 1    
    37   18   19 1    
    38   18   67 1    
    39   18  143 1    
    40   19   20 am   BACKBONE|DICT|INTERRES
    41   19  144 1    
    42   20   21 2    
    43   20   22 1    
    44   22   23 1    
    45   22   24 1    
    46   22  145 1    
    47   23  146 1    
    48   23  147 1    
    49   23  148 1    
    50   24   25 am   BACKBONE|DICT|INTERRES
    51   24  149 1    
    52   25   26 2    
    53   25   27 1    
    54   27   28 1    
    55   27   29 1    
    56   27  150 1    
    57   28  151 1    
    58   28  152 1    
    59   28  153 1    
    60   29   30 am   BACKBONE|DICT|INTERRES
    61   29  154 1    
    62   30   31 2    
    63   30   32 1    
    64   32   33 1    
    65   32   34 1    
    66   32  155 1    
    67   33  156 1    
    68   33  157 1    
    69   33  158 1    
    70   34   35 am   BACKBONE|DICT|INTERRES
    71   34  159 1    
    72   35   36 2    
    73   35   37 1    
    74   37   38 1    
    75   37   39 1    
    76   37  160 1    
    77   38  161 1    
    78   38  162 1    
    79   38  163 1    
    80   39   40 am   BACKBONE|DICT|INTERRES
    81   39  164 1    
    82   40   41 2    
    83   40   42 1    
    84   42   43 1    
    85   42   44 1    
    86   42  165 1    
    87   43  166 1    
    88   43  167 1    
    89   43  168 1    
    90   44   45 am   BACKBONE|DICT|INTERRES
    91   44  169 1    
    92   45   46 2    
    93   45   47 1    
    94   47   48 1    
    95   47   49 1    
    96   47  170 1    
    97   48  171 1    
    98   48  172 1    
    99   48  173 1    
   100   49   50 am   BACKBONE|DICT|INTERRES
   101   49  174 1    
   102   50   51 2    
   103   50   52 1    
   104   52   53 1    
   105   52   54 1    
   106   52  175 1    
   107   53  176 1    
   108   53  177 1    
   109   53  178 1    
   110   54   55 am   BACKBONE|DICT|INTERRES
   111   54  179 1    
   112   55   56 2    
   113   55   57 1    
   114   57   58 1    
   115   57   59 1    
   116   57  180 1    
   117   58  181 1    
   118   58  182 1    
   119   58  183 1    
   120   59   60 am   BACKBONE|DICT|INTERRES
   121   59  184 1    
   122   60   61 2    
   123   60   62 1    
   124   62   63 1    
   125   62   64 1    
   126   62  185 1    
   127   63  186 1    
   128   63  187 1    
   129   63  188 1    
   130   64   65 am   BACKBONE|DICT|INTERRES
   131   64  189 1    
   132   65   66 2    
   133   67   68 2    
   134   67   69 am   BACKBONE|DICT|INTERRES
   135   69   70 1    
   136   69  190 1    
   137   70   71 1    
   138   70   72 1    
   139   70  191 1    
   140   71  192 1    
   141   71  193 1    
   142   71  194 1    
   143   72   73 2    
   144   72   74 am   BACKBONE|DICT|INTERRES
   145   74   75 1    
   146   74  195 1    
   147   75   76 1    
   148   75   77 1    
   149   75  196 1    
   150   76  197 1    
   151   76  198 1    
   152   76  199 1    
   153   77   78 2    
   154   77   79 am   BACKBONE|DICT|INTERRES
   155   79   80 1    
   156   79  200 1    
   157   80   81 1    
   158   80   82 1    
   159   80  201 1    
   160   81  202 1    
   161   81  203 1    
   162   81  204 1    
   163   82   83 2    
   164   82   84 am   BACKBONE|DICT|INTERRES
   165   84   85 1    
   166   84  205 1    
   167   85   86 1    
   168   85   87 1    
   169   85  206 1    
   170   86  207 1    
   171   86  208 1    
   172   86  209 1    
   173   87   88 2    
   174   87   89 am   BACKBONE|DICT|INTERRES
   175   89   90 1    
   176   89  210 1    
   177   90   91 1    
   178   90   92 1    
   179   90  211 1    
   180   91  212 1    
   181   91  213 1    
   182   91  214 1    
   183   92   93 2    
   184   92   94 am   BACKBONE|DICT|INTERRES
   185   94   95 1    
   186   94  215 1    
   187   95   96 1    
   188   95   97 1    
   189   95  216 1    
   190   96  217 1    
   191   96  218 1    
   192   96  219 1    
   193   97   98 2    
   194   97   99 am   BACKBONE|DICT|INTERRES
   195   99  100 1    
   196   99  220 1    
   197  100  101 1    
   198  100  102 1    
   199  100  221 1    
   200  101  222 1    
   201  101  223 1    
   202  101  224 1    
   203  102  103 2    
   204  102  104 am   BACKBONE|DICT|INTERRES
   205  104  105 1    
   206  104  225 1    
   207  105  106 1    
   208  105  107 1    
   209  105  226 1    
   210  106  227 1    
   211  106  228 1    
   212  106  229 1    
   213  107  108 2    
   214  107  109 am   BACKBONE|DICT|INTERRES
   215  109  110 1    
   216  109  230 1    
   217  110  111 1    
   218  110  112 1    
   219  110  231 1    
   220  111  232 1    
   221  111  233 1    
   222  111  234 1    
   223  112  113 2    
   224  112  114 am   BACKBONE|DICT|INTERRES
   225  114  115 1    
   226  114  235 1    
   227  115  116 1    
   228  115  117 1    
   229  115  236 1    
   230  116  237 1    
   231  116  238 1    
   232  116  239 1    
   233  117  118 2    
   234  117  119 am   BACKBONE|DICT|INTERRES
   235  119  120 1    
   236  119  240 1    
   237  120  121 1    
   238  120  124 1    
   239  120  241 1    
   240  121  122 am   BACKBONE|DICT|INTERRES
   241  121  123 2    
   242  122  242 1    
   243  122  243 1    
   244  124  125 1    
   245  124  244 1    
   246  124  245 1    
   247  125  126 1    
   248  126  246 1    
   249  126  247 1    
@<TRIPOS>SUBSTRUCTURE
     1 UNK         1 GROUP             0       ****    0 ROOT    
