@<TRIPOS>MOLECULE
3R540
247   249    1
SMALL
USER_CHARGES


@<TRIPOS>ATOM
      1 CA         -0.4575  -10.7684  -48.1577 C.3       0 UNK        -0.1800 
      2 C          -0.0288  -11.8338  -47.1599 C.2       0 UNK         0.5000 
      3 O           0.1153  -11.5373  -45.9734 O.2       0 UNK        -0.5000 
      4 N           0.1570  -13.0759  -47.6316 N.am      1 UNK        -0.5000 
      5 CA          0.6184  -14.2343  -46.8505 C.3       1 UNK         0.1400 
      6 C6          0.8003  -15.4956  -47.7273 C.3       23 UNK        -0.0398 
      7 S7          2.2824  -15.3520  -48.7794 S.3       23 UNK        -0.2404 
      8 C8          1.6487  -15.8537  -50.4110 C.3       23 UNK        -0.0205 
      9 C9          1.1810  -17.3041  -50.4489 C.ar      23 UNK        -0.0193 
     10 C10        -0.1029  -17.6109  -50.9024 C.ar      23 UNK        -0.1150 
     11 C11        -0.5439  -18.9392  -50.9784 C.ar      23 UNK        -0.0193 
     12 C12         0.3336  -19.9627  -50.6009 C.ar      23 UNK        -0.1150 
     13 C13         1.6223  -19.6730  -50.1338 C.ar      23 UNK        -0.0193 
     14 C14         2.0371  -18.3404  -50.0691 C.ar      23 UNK        -0.1150 
     15 C15         2.6094  -20.7714  -49.7425 C.3       23 UNK        -0.0205 
     16 S16         1.8819  -22.1796  -48.8416 S.3       23 UNK        -0.2404 
     17 C17         1.3698  -21.4130  -47.2671 C.3       23 UNK        -0.0398 
     18 CA         -0.0239  -21.9071  -46.8062 C.3       11 UNK         0.1400 
     19 N          -0.2114  -21.7616  -45.3587 N.am      11 UNK        -0.5000 
     20 C          -1.2468  -22.2647  -44.6693 C.2       10 UNK         0.5000 
     21 O          -2.1251  -22.9647  -45.1694 O.2       10 UNK        -0.5000 
     22 CA         -1.3609  -21.8659  -43.1867 C.3       10 UNK         0.1400 
     23 CB         -0.4452  -22.7292  -42.3069 C.3       10 UNK        -0.1800 
     24 N          -1.0707  -20.4478  -42.9762 N.am      10 UNK        -0.5000 
     25 C          -1.8011  -19.4484  -43.4907 C.2       9 UNK         0.5000 
     26 O          -2.8512  -19.6214  -44.1083 O.2       9 UNK        -0.5000 
     27 CA         -1.2411  -18.0242  -43.3476 C.3       9 UNK         0.1400 
     28 CB         -1.6573  -17.3952  -42.0113 C.3       9 UNK        -0.1800 
     29 N           0.2116  -17.9716  -43.4894 N.am      9 UNK        -0.5000 
     30 C           0.8757  -18.2409  -44.6211 C.2       8 UNK         0.5000 
     31 O           0.3242  -18.5407  -45.6785 O.2       8 UNK        -0.5000 
     32 CA          2.4127  -18.2429  -44.5438 C.3       8 UNK         0.1400 
     33 CB          2.9923  -16.8246  -44.6395 C.3       8 UNK        -0.1800 
     34 N           2.8871  -18.8789  -43.3169 N.am      8 UNK        -0.5000 
     35 C           2.7758  -20.1877  -43.0545 C.2       7 UNK         0.5000 
     36 O           2.3063  -21.0053  -43.8467 O.2       7 UNK        -0.5000 
     37 CA          3.2299  -20.6458  -41.6566 C.3       7 UNK         0.1400 
     38 CB          4.7430  -20.9086  -41.6385 C.3       7 UNK        -0.1800 
     39 N           2.8929  -19.6740  -40.6130 N.am      7 UNK        -0.5000 
     40 C           1.6430  -19.4067  -40.2083 C.2       6 UNK         0.5000 
     41 O           0.6462  -19.9718  -40.6563 O.2       6 UNK        -0.5000 
     42 CA          1.4777  -18.2867  -39.1632 C.3       6 UNK         0.1400 
     43 CB          1.7265  -18.8253  -37.7465 C.3       6 UNK        -0.1800 
     44 N           2.3508  -17.1342  -39.4098 N.am      6 UNK        -0.5000 
     45 C           2.2810  -16.3584  -40.4988 C.2       5 UNK         0.5000 
     46 O           1.4778  -16.5421  -41.4147 O.2       5 UNK        -0.5000 
     47 CA          3.3062  -15.2249  -40.6135 C.3       5 UNK         0.1400 
     48 CB          4.6816  -15.7981  -41.0139 C.3       5 UNK        -0.1800 
     49 N           2.8342  -14.2773  -41.6205 N.am      5 UNK        -0.5000 
     50 C           3.3604  -13.0755  -41.8782 C.2       4 UNK         0.5000 
     51 O           4.2967  -12.5857  -41.2451 O.2       4 UNK        -0.5000 
     52 CA          2.7425  -12.2879  -43.0454 C.3       4 UNK         0.1400 
     53 CB          3.2657  -12.8153  -44.3896 C.3       4 UNK        -0.1800 
     54 N           1.2784  -12.3082  -43.0471 N.am      4 UNK        -0.5000 
     55 C           0.5205  -11.5648  -42.2278 C.2       3 UNK         0.5000 
     56 O           0.9883  -10.8777  -41.3183 O.2       3 UNK        -0.5000 
     57 CA         -1.0030  -11.5411  -42.4649 C.3       3 UNK         0.1400 
     58 CB         -1.4686  -10.1217  -42.8321 C.3       3 UNK        -0.1800 
     59 N          -1.4225  -12.4463  -43.5354 N.am      3 UNK        -0.5000 
     60 C          -2.2197  -13.5110  -43.3718 C.2       2 UNK         0.5000 
     61 O          -2.7079  -13.8382  -42.2898 O.2       2 UNK        -0.5000 
     62 CA         -2.5369  -14.3650  -44.6193 C.3       2 UNK         0.1400 
     63 CB         -3.9286  -14.0183  -45.1690 C.3       2 UNK        -0.1800 
     64 N          -1.5626  -14.2548  -45.7081 N.am      2 UNK        -0.5000 
     65 C          -0.2558  -14.5388  -45.6169 C.2       1 UNK         0.5000 
     66 O           0.2827  -14.9450  -44.5889 O.2       1 UNK        -0.5000 
     67 C          -1.1681  -21.2444  -47.6038 C.2       11 UNK         0.5000 
     68 O          -1.7018  -21.8640  -48.5238 O.2       11 UNK        -0.5000 
     69 N          -1.5599  -20.0260  -47.2010 N.am      12 UNK        -0.5000 
     70 CA         -2.6798  -19.2777  -47.7717 C.3       12 UNK         0.1400 
     71 CB         -2.7428  -17.8683  -47.1622 C.3       12 UNK        -0.1800 
     72 C          -4.0237  -20.0169  -47.6327 C.2       12 UNK         0.5000 
     73 O          -4.7694  -20.1094  -48.6077 O.2       12 UNK        -0.5000 
     74 N          -4.2850  -20.5659  -46.4383 N.am      13 UNK        -0.5000 
     75 CA         -5.4689  -21.3678  -46.1274 C.3       13 UNK         0.1400 
     76 CB         -5.5458  -21.5918  -44.6095 C.3       13 UNK        -0.1800 
     77 C          -5.5064  -22.7130  -46.8780 C.2       13 UNK         0.5000 
     78 O          -6.5726  -23.1175  -47.3428 O.2       13 UNK        -0.5000 
     79 N          -4.3477  -23.3763  -46.9927 N.am      14 UNK        -0.5000 
     80 CA         -4.1801  -24.6520  -47.6940 C.3       14 UNK         0.1400 
     81 CB         -2.8583  -25.2965  -47.2472 C.3       14 UNK        -0.1800 
     82 C          -4.2086  -24.5285  -49.2296 C.2       14 UNK         0.5000 
     83 O          -4.3393  -25.5484  -49.9084 O.2       14 UNK        -0.5000 
     84 N          -4.0408  -23.3049  -49.7503 N.am      15 UNK        -0.5000 
     85 CA         -3.8860  -22.9131  -51.1550 C.3       15 UNK         0.1400 
     86 CB         -5.0644  -23.3903  -52.0243 C.3       15 UNK        -0.1800 
     87 C          -2.5141  -23.3191  -51.7255 C.2       15 UNK         0.5000 
     88 O          -1.7869  -22.4532  -52.2115 O.2       15 UNK        -0.5000 
     89 N          -2.1719  -24.6091  -51.5933 N.am      16 UNK        -0.5000 
     90 CA         -0.8511  -25.2262  -51.7460 C.3       16 UNK         0.1400 
     91 CB         -0.0379  -24.9823  -50.4586 C.3       16 UNK        -0.1800 
     92 C          -0.0953  -24.8156  -53.0274 C.2       16 UNK         0.5000 
     93 O          -0.3160  -25.4184  -54.0781 O.2       16 UNK        -0.5000 
     94 N           0.7788  -23.8044  -52.9149 N.am      17 UNK        -0.5000 
     95 CA          1.5895  -23.2402  -53.9968 C.3       17 UNK         0.1400 
     96 CB          2.5547  -22.2043  -53.4017 C.3       17 UNK        -0.1800 
     97 C           0.7677  -22.6109  -55.1396 C.2       17 UNK         0.5000 
     98 O           1.2416  -22.5827  -56.2763 O.2       17 UNK        -0.5000 
     99 N          -0.4460  -22.1437  -54.8288 N.am      18 UNK        -0.5000 
    100 CA        -1.4405  -21.6794  -55.7870 C.3       18 UNK         0.1400 
    101 CB        -1.5595  -20.1473  -55.7179 C.3       18 UNK        -0.1800 
    102 C         -2.7441  -22.4140  -55.4558 C.2       18 UNK         0.5000 
    103 O         -3.6686  -21.8251  -54.8954 O.2       18 UNK        -0.5000 
    104 N         -2.7581  -23.7183  -55.7666 N.am      19 UNK        -0.5000 
    105 CA        -3.7852  -24.7030  -55.4073 C.3       19 UNK         0.1400 
    106 CB        -3.3922  -26.0653  -55.9978 C.3       19 UNK        -0.1800 
    107 C         -5.2301  -24.3468  -55.8101 C.2       19 UNK         0.5000 
    108 O         -6.1675  -24.8448  -55.1856 O.2       19 UNK        -0.5000 
    109 N         -5.3964  -23.4671  -56.8061 N.am      20 UNK        -0.5000 
    110 CA        -6.6671  -22.8908  -57.2516 C.3       20 UNK         0.1400 
    111 CB        -6.4773  -22.3359  -58.6750 C.3       20 UNK        -0.1800 
    112 C         -7.2233  -21.8329  -56.2667 C.2       20 UNK         0.5000 
    113 O         -7.5498  -20.7180  -56.6758 O.2       20 UNK        -0.5000 
    114 N         -7.3265  -22.2152  -54.9864 N.am      21 UNK        -0.5000 
    115 CA        -7.8744  -21.4612  -53.8542 C.3       21 UNK         0.1400 
    116 CB        -9.3847  -21.2102  -54.0515 C.3       21 UNK        -0.1800 
    117 C         -7.0963  -20.1760  -53.4904 C.2       21 UNK         0.5000 
    118 O         -7.6892  -19.2537  -52.9270 O.2       21 UNK        -0.5000 
    119 N         -5.7853  -20.1429  -53.7723 N.am      22 UNK        -0.5000 
    120 CA        -4.8812  -19.0134  -53.4988 C.3       22 UNK         0.1400 
    121 C         -5.2197  -17.7319  -54.3289 C.2       22 UNK         0.5000 
    122 N         -4.7818  -16.5535  -53.9076 N.am      22 UNK        -0.7600 
    123 O         -5.8351  -17.7955  -55.3908 O.2       22 UNK        -0.5000 
    124 C124       -4.7039  -18.7829  -51.9669 C.3       23 UNK        -0.0398 
    125 S125       -3.1519  -17.9432  -51.5006 S.3       23 UNK        -0.2404 
    126 C126       -1.9421  -19.3147  -51.4796 C.3       23 UNK        -0.0205 
    127 H127        0.2770   -9.9636  -48.1836 H         1 UNK         0.0600 
    128 H128       -1.4181  -10.3454  -47.8638 H         1 UNK         0.0600 
    129 H129       -0.5565  -11.1721  -49.1655 H         1 UNK         0.0600 
    130 H130        0.0282  -13.2446  -48.6189 H         1 UNK         0.3000 
    131 H131        1.5974  -13.9631  -46.4544 H         1 UNK         0.0600 
    132 H132       -0.0874  -15.6741  -48.3361 H         1 UNK         0.0800 
    133 H133        0.9303  -16.3921  -47.1208 H         1 UNK         0.0800 
    134 H134        2.4421  -15.7256  -51.1483 H         1 UNK         0.0800 
    135 H135        0.8468  -15.1740  -50.7030 H         1 UNK         0.0800 
    136 H136       -0.7482  -16.8013  -51.2082 H         1 UNK         0.1150 
    137 H137        0.0062  -20.9909  -50.6708 H         1 UNK         0.1150 
    138 H138        3.0360  -18.1038  -49.7302 H         1 UNK         0.1150 
    139 H139        3.0807  -21.1474  -50.6501 H         1 UNK         0.0800 
    140 H140        3.4143  -20.3597  -49.1315 H         1 UNK         0.0800 
    141 H141        1.4004  -20.3251  -47.3439 H         1 UNK         0.0800 
    142 H142        2.1249  -21.6816  -46.5272 H         1 UNK         0.0800 
    143 H143       -0.0786  -22.9799  -47.0048 H         1 UNK         0.0600 
    144 H144        0.4886  -21.2235  -44.8604 H         1 UNK         0.3000 
    145 H145       -2.3920  -22.0435  -42.8741 H         1 UNK         0.0600 
    146 H146       -0.5706  -22.4867  -41.2515 H         1 UNK         0.0600 
    147 H147        0.6061  -22.5934  -42.5581 H         1 UNK         0.0600 
    148 H148       -0.6765  -23.7883  -42.4271 H         1 UNK         0.0600 
    149 H149       -0.2605  -20.2225  -42.4078 H         1 UNK         0.3000 
    150 H150       -1.6653  -17.4290  -44.1552 H         1 UNK         0.0600 
    151 H151       -2.7427  -17.3824  -41.9060 H         1 UNK         0.0600 
    152 H152       -1.3109  -16.3639  -41.9392 H         1 UNK         0.0600 
    153 H153       -1.2484  -17.9449  -41.1633 H         1 UNK         0.0600 
    154 H154        0.7332  -17.6450  -42.6797 H         1 UNK         0.3000 
    155 H155        2.7879  -18.8179  -45.3932 H         1 UNK         0.0600 
    156 H156        4.0814  -16.8383  -44.5990 H         1 UNK         0.0600 
    157 H157        2.7119  -16.3487  -45.5782 H         1 UNK         0.0600 
    158 H158        2.6350  -16.1888  -43.8305 H         1 UNK         0.0600 
    159 H159        3.2434  -18.2707  -42.5964 H         1 UNK         0.3000 
    160 H160        2.7178  -21.5836  -41.4305 H         1 UNK         0.0600 
    161 H161        5.0626  -21.3034  -40.6739 H         1 UNK         0.0600 
    162 H162        5.3139  -20.0004  -41.8359 H         1 UNK         0.0600 
    163 H163        5.0202  -21.6423  -42.3967 H         1 UNK         0.0600 
    164 H164        3.6575  -19.1676  -40.1917 H         1 UNK         0.3000 
    165 H165        0.4439  -17.9387  -39.2163 H         1 UNK         0.0600 
    166 H166        1.5219  -18.0639  -36.9937 H         1 UNK         0.0600 
    167 H167        1.0763  -19.6747  -37.5324 H         1 UNK         0.0600 
    168 H168        2.7566  -19.1592  -37.6157 H         1 UNK         0.0600 
    169 H169        3.0403  -16.9292  -38.7008 H         1 UNK         0.3000 
    170 H170        3.3765  -14.7171  -39.6497 H         1 UNK         0.0600 
    171 H171        4.6487  -16.2714  -41.9958 H         1 UNK         0.0600 
    172 H172        5.4464  -15.0224  -41.0457 H         1 UNK         0.0600 
    173 H173        5.0227  -16.5475  -40.2988 H         1 UNK         0.0600 
    174 H174        2.0371  -14.6056  -42.1540 H         1 UNK         0.3000 
    175 H175        3.0686  -11.2495  -42.9522 H         1 UNK         0.0600 
    176 H176        2.9805  -13.8541  -44.5517 H         1 UNK         0.0600 
    177 H177        2.8823  -12.2237  -45.2211 H         1 UNK         0.0600 
    178 H178        4.3545  -12.7659  -44.4306 H         1 UNK         0.0600 
    179 H179        0.8267  -12.8896  -43.7397 H         1 UNK         0.3000 
    180 H180       -1.4703  -11.8167  -41.5177 H         1 UNK         0.0600 
    181 H181       -2.5509  -10.0829  -42.9569 H         1 UNK         0.0600 
    182 H182       -1.0116   -9.7786  -43.7614 H         1 UNK         0.0600 
    183 H183       -1.2075   -9.4055  -42.0520 H         1 UNK         0.0600 
    184 H184       -1.0541  -12.2386  -44.4585 H         1 UNK         0.3000 
    185 H185       -2.5563  -15.4044  -44.2952 H         1 UNK         0.0600 
    186 H186       -3.9692  -12.9939  -45.5411 H         1 UNK         0.0600 
    187 H187       -4.2083  -14.6854  -45.9847 H         1 UNK         0.0600 
    188 H188       -4.6913  -14.1172  -44.3953 H         1 UNK         0.0600 
    189 H189       -1.9076  -13.8855  -46.5820 H         1 UNK         0.3000 
    190 H190       -1.0217  -19.5589  -46.4755 H         1 UNK         0.3000 
    191 H191       -2.4757  -19.1589  -48.8319 H         1 UNK         0.0600 
    192 H192       -1.7908  -17.3483  -47.2692 H         1 UNK         0.0600 
    193 H193       -2.9951  -17.8927  -46.1033 H         1 UNK         0.0600 
    194 H194       -3.5007  -17.2651  -47.6633 H         1 UNK         0.0600 
    195 H195       -3.6355  -20.3988  -45.6739 H         1 UNK         0.3000 
    196 H196       -6.3481  -20.7954  -46.4302 H         1 UNK         0.0600 
    197 H197       -5.6023  -20.6439  -44.0741 H         1 UNK         0.0600 
    198 H198       -4.6747  -22.1327  -44.2383 H         1 UNK         0.0600 
    199 H199       -6.4313  -22.1701  -44.3432 H         1 UNK         0.0600 
    200 H200       -3.5230  -23.0084  -46.5260 H         1 UNK         0.3000 
    201 H201       -4.9977  -25.3152  -47.4047 H         1 UNK         0.0600 
    202 H202       -2.8470  -25.4679  -46.1707 H         1 UNK         0.0600 
    203 H203       -2.0031  -24.6669  -47.4963 H         1 UNK         0.0600 
    204 H204       -2.7068  -26.2627  -47.7302 H         1 UNK         0.0600 
    205 H205       -3.8480  -22.5629  -49.0885 H         1 UNK         0.3000 
    206 H206       -3.9132  -21.8252  -51.1497 H         1 UNK         0.0600 
    207 H207       -5.0613  -24.4696  -52.1751 H         1 UNK         0.0600 
    208 H208       -6.0178  -23.1188  -51.5720 H         1 UNK         0.0600 
    209 H209       -5.0306  -22.9270  -53.0080 H         1 UNK         0.0600 
    210 H210       -2.8797  -25.2085  -51.1797 H         1 UNK         0.3000 
    211 H211       -1.0202  -26.3009  -51.8260 H         1 UNK         0.0600 
    212 H212        0.0237  -23.9215  -50.2174 H         1 UNK         0.0600 
    213 H213        0.9781  -25.3698  -50.5449 H         1 UNK         0.0600 
    214 H214       -0.5015  -25.4803  -49.6070 H         1 UNK         0.0600 
    215 H215        0.8556  -23.3502  -52.0167 H         1 UNK         0.3000 
    216 H216        2.1784  -24.0529  -54.4265 H         1 UNK         0.0600 
    217 H217        3.2003  -21.7821  -54.1728 H         1 UNK         0.0600 
    218 H218        3.2018  -22.6549  -52.6489 H         1 UNK         0.0600 
    219 H219        2.0165  -21.3777  -52.9357 H         1 UNK         0.0600 
    220 H220       -0.7780  -22.2453  -53.8716 H         1 UNK         0.3000 
    221 H221       -1.1637  -21.9537  -56.8071 H         1 UNK         0.0600 
    222 H222       -1.7750  -19.8026  -54.7094 H         1 UNK         0.0600 
    223 H223       -0.6337  -19.6699  -56.0388 H         1 UNK         0.0600 
    224 H224       -2.3568  -19.7862  -56.3687 H         1 UNK         0.0600 
    225 H225       -1.9262  -24.1029  -56.1914 H         1 UNK         0.3000 
    226 H226       -3.7697  -24.7924  -54.3202 H         1 UNK         0.0600 
    227 H227       -2.4213  -26.3927  -55.6258 H         1 UNK         0.0600 
    228 H228       -4.1163  -26.8349  -55.7264 H         1 UNK         0.0600 
    229 H229       -3.3414  -26.0309  -57.0868 H         1 UNK         0.0600 
    230 H230       -4.5644  -23.0851  -57.2303 H         1 UNK         0.3000 
    231 H231       -7.4072  -23.6917  -57.3060 H         1 UNK         0.0600 
    232 H232       -7.4160  -21.9500  -59.0746 H         1 UNK         0.0600 
    233 H233       -6.1322  -23.1120  -59.3584 H         1 UNK         0.0600 
    234 H234       -5.7508  -21.5226  -58.6956 H         1 UNK         0.0600 
    235 H235       -7.0162  -23.1598  -54.7763 H         1 UNK         0.3000 
    236 H236       -7.7720  -22.1171  -52.9892 H         1 UNK         0.0600 
    237 H237       -9.5746  -20.5022  -54.8587 H         1 UNK         0.0600 
    238 H238       -9.9117  -22.1353  -54.2849 H         1 UNK         0.0600 
    239 H239       -9.8373  -20.8024  -53.1469 H         1 UNK         0.0600 
    240 H240       -5.3578  -20.9199  -54.2657 H         1 UNK         0.3000 
    241 H241       -3.9209  -19.3435  -53.8902 H         1 UNK         0.0600 
    242 H242       -4.2397  -16.4822  -53.0585 H         1 UNK         0.3800 
    243 H243       -4.9805  -15.7271  -54.4492 H         1 UNK         0.3800 
    244 H244       -4.7370  -19.7319  -51.4335 H         1 UNK         0.0800 
    245 H245       -5.5402  -18.2047  -51.5711 H         1 UNK         0.0800 
    246 H246       -2.3347  -20.1198  -50.8589 H         1 UNK         0.0800 
    247 H247       -1.8494  -19.7244  -52.4832 H         1 UNK         0.0800 
@<TRIPOS>BOND
     1    1    2 1    
     2    1  127 1    
     3    1  128 1    
     4    1  129 1    
     5    2    3 2    
     6    2    4 am   BACKBONE|DICT|INTERRES
     7    4    5 1    
     8    4  130 1    
     9    5    6 1    
    10    5   65 1    
    11    5  131 1    
    12    6    7 1    
    13    6  132 1    
    14    6  133 1    
    15    7    8 1    
    16    8    9 1    
    17    8  134 1    
    18    8  135 1    
    19    9   10 ar   
    20    9   14 ar   
    21   10   11 ar   
    22   10  136 1    
    23   11   12 ar   
    24   11  126 1    
    25   12   13 ar   
    26   12  137 1    
    27   13   14 ar   
    28   13   15 1    
    29   14  138 1    
    30   15   16 1    
    31   15  139 1    
    32   15  140 1    
    33   16   17 1    
    34   17   18 1    
    35   17  141 1    
    36   17  142 1    
    37   18   19 1    
    38   18   67 1    
    39   18  143 1    
    40   19   20 am   BACKBONE|DICT|INTERRES
    41   19  144 1    
    42   20   21 2    
    43   20   22 1    
    44   22   23 1    
    45   22   24 1    
    46   22  145 1    
    47   23  146 1    
    48   23  147 1    
    49   23  148 1    
    50   24   25 am   BACKBONE|DICT|INTERRES
    51   24  149 1    
    52   25   26 2    
    53   25   27 1    
    54   27   28 1    
    55   27   29 1    
    56   27  150 1    
    57   28  151 1    
    58   28  152 1    
    59   28  153 1    
    60   29   30 am   BACKBONE|DICT|INTERRES
    61   29  154 1    
    62   30   31 2    
    63   30   32 1    
    64   32   33 1    
    65   32   34 1    
    66   32  155 1    
    67   33  156 1    
    68   33  157 1    
    69   33  158 1    
    70   34   35 am   BACKBONE|DICT|INTERRES
    71   34  159 1    
    72   35   36 2    
    73   35   37 1    
    74   37   38 1    
    75   37   39 1    
    76   37  160 1    
    77   38  161 1    
    78   38  162 1    
    79   38  163 1    
    80   39   40 am   BACKBONE|DICT|INTERRES
    81   39  164 1    
    82   40   41 2    
    83   40   42 1    
    84   42   43 1    
    85   42   44 1    
    86   42  165 1    
    87   43  166 1    
    88   43  167 1    
    89   43  168 1    
    90   44   45 am   BACKBONE|DICT|INTERRES
    91   44  169 1    
    92   45   46 2    
    93   45   47 1    
    94   47   48 1    
    95   47   49 1    
    96   47  170 1    
    97   48  171 1    
    98   48  172 1    
    99   48  173 1    
   100   49   50 am   BACKBONE|DICT|INTERRES
   101   49  174 1    
   102   50   51 2    
   103   50   52 1    
   104   52   53 1    
   105   52   54 1    
   106   52  175 1    
   107   53  176 1    
   108   53  177 1    
   109   53  178 1    
   110   54   55 am   BACKBONE|DICT|INTERRES
   111   54  179 1    
   112   55   56 2    
   113   55   57 1    
   114   57   58 1    
   115   57   59 1    
   116   57  180 1    
   117   58  181 1    
   118   58  182 1    
   119   58  183 1    
   120   59   60 am   BACKBONE|DICT|INTERRES
   121   59  184 1    
   122   60   61 2    
   123   60   62 1    
   124   62   63 1    
   125   62   64 1    
   126   62  185 1    
   127   63  186 1    
   128   63  187 1    
   129   63  188 1    
   130   64   65 am   BACKBONE|DICT|INTERRES
   131   64  189 1    
   132   65   66 2    
   133   67   68 2    
   134   67   69 am   BACKBONE|DICT|INTERRES
   135   69   70 1    
   136   69  190 1    
   137   70   71 1    
   138   70   72 1    
   139   70  191 1    
   140   71  192 1    
   141   71  193 1    
   142   71  194 1    
   143   72   73 2    
   144   72   74 am   BACKBONE|DICT|INTERRES
   145   74   75 1    
   146   74  195 1    
   147   75   76 1    
   148   75   77 1    
   149   75  196 1    
   150   76  197 1    
   151   76  198 1    
   152   76  199 1    
   153   77   78 2    
   154   77   79 am   BACKBONE|DICT|INTERRES
   155   79   80 1    
   156   79  200 1    
   157   80   81 1    
   158   80   82 1    
   159   80  201 1    
   160   81  202 1    
   161   81  203 1    
   162   81  204 1    
   163   82   83 2    
   164   82   84 am   BACKBONE|DICT|INTERRES
   165   84   85 1    
   166   84  205 1    
   167   85   86 1    
   168   85   87 1    
   169   85  206 1    
   170   86  207 1    
   171   86  208 1    
   172   86  209 1    
   173   87   88 2    
   174   87   89 am   BACKBONE|DICT|INTERRES
   175   89   90 1    
   176   89  210 1    
   177   90   91 1    
   178   90   92 1    
   179   90  211 1    
   180   91  212 1    
   181   91  213 1    
   182   91  214 1    
   183   92   93 2    
   184   92   94 am   BACKBONE|DICT|INTERRES
   185   94   95 1    
   186   94  215 1    
   187   95   96 1    
   188   95   97 1    
   189   95  216 1    
   190   96  217 1    
   191   96  218 1    
   192   96  219 1    
   193   97   98 2    
   194   97   99 am   BACKBONE|DICT|INTERRES
   195   99  100 1    
   196   99  220 1    
   197  100  101 1    
   198  100  102 1    
   199  100  221 1    
   200  101  222 1    
   201  101  223 1    
   202  101  224 1    
   203  102  103 2    
   204  102  104 am   BACKBONE|DICT|INTERRES
   205  104  105 1    
   206  104  225 1    
   207  105  106 1    
   208  105  107 1    
   209  105  226 1    
   210  106  227 1    
   211  106  228 1    
   212  106  229 1    
   213  107  108 2    
   214  107  109 am   BACKBONE|DICT|INTERRES
   215  109  110 1    
   216  109  230 1    
   217  110  111 1    
   218  110  112 1    
   219  110  231 1    
   220  111  232 1    
   221  111  233 1    
   222  111  234 1    
   223  112  113 2    
   224  112  114 am   BACKBONE|DICT|INTERRES
   225  114  115 1    
   226  114  235 1    
   227  115  116 1    
   228  115  117 1    
   229  115  236 1    
   230  116  237 1    
   231  116  238 1    
   232  116  239 1    
   233  117  118 2    
   234  117  119 am   BACKBONE|DICT|INTERRES
   235  119  120 1    
   236  119  240 1    
   237  120  121 1    
   238  120  124 1    
   239  120  241 1    
   240  121  122 am   BACKBONE|DICT|INTERRES
   241  121  123 2    
   242  122  242 1    
   243  122  243 1    
   244  124  125 1    
   245  124  244 1    
   246  124  245 1    
   247  125  126 1    
   248  126  246 1    
   249  126  247 1    
@<TRIPOS>SUBSTRUCTURE
     1 UNK         1 GROUP             0       ****    0 ROOT    
