@<TRIPOS>MOLECULE
3R540
247   249    1
SMALL
USER_CHARGES


@<TRIPOS>ATOM
      1 CA         -4.3049  -15.3315  -47.3867 C.3       0 UNK        -0.1800 
      2 C          -3.5483  -14.0689  -47.7696 C.2       0 UNK         0.5000 
      3 O          -4.0772  -12.9669  -47.6175 O.2       0 UNK        -0.5000 
      4 N          -2.3037  -14.2165  -48.2407 N.am      1 UNK        -0.5000 
      5 CA         -1.3653  -13.1306  -48.5431 C.3       1 UNK         0.1400 
      6 C6         -0.2729  -13.5590  -49.5634 C.3       23 UNK        -0.0398 
      7 S7          0.6565  -15.0775  -49.1302 S.3       23 UNK        -0.2404 
      8 C8          0.1724  -16.2248  -50.4564 C.3       23 UNK        -0.0205 
      9 C9         -1.2834  -16.6445  -50.3426 C.ar      23 UNK        -0.0193 
     10 C10        -2.2459  -16.1004  -51.1977 C.ar      23 UNK        -0.1150 
     11 C11        -3.5808  -16.5124  -51.1221 C.ar      23 UNK        -0.0193 
     12 C12        -3.9477  -17.4669  -50.1693 C.ar      23 UNK        -0.1150 
     13 C13        -2.9980  -18.0014  -49.2952 C.ar      23 UNK        -0.0193 
     14 C14        -1.6665  -17.5899  -49.3880 C.ar      23 UNK        -0.1150 
     15 C15        -3.4109  -19.0052  -48.2340 C.3       23 UNK        -0.0205 
     16 S16        -2.8721  -20.6796  -48.6743 S.3       23 UNK        -0.2404 
     17 C17        -3.4196  -21.6147  -47.2131 C.3       23 UNK        -0.0398 
     18 CA         -2.3769  -22.6843  -46.8147 C.3       11 UNK         0.1400 
     19 N          -1.2411  -22.1395  -46.0606 N.am      11 UNK        -0.5000 
     20 C          -0.1318  -22.8391  -45.7763 C.2       10 UNK         0.5000 
     21 O           0.0647  -23.9884  -46.1650 O.2       10 UNK        -0.5000 
     22 CA          0.8989  -22.1856  -44.8410 C.3       10 UNK         0.1400 
     23 CB          1.7512  -21.1471  -45.5857 C.3       10 UNK        -0.1800 
     24 N           0.2665  -21.5823  -43.6691 N.am      10 UNK        -0.5000 
     25 C          -0.4308  -22.2654  -42.7493 C.2       9 UNK         0.5000 
     26 O          -0.5448  -23.4910  -42.7496 O.2       9 UNK        -0.5000 
     27 CA         -1.1732  -21.4411  -41.6834 C.3       9 UNK         0.1400 
     28 CB         -0.2547  -21.1179  -40.4969 C.3       9 UNK        -0.1800 
     29 N          -1.7311  -20.2043  -42.2314 N.am      9 UNK        -0.5000 
     30 C          -2.7468  -20.1555  -43.1052 C.2       8 UNK         0.5000 
     31 O          -3.3434  -21.1502  -43.5173 O.2       8 UNK        -0.5000 
     32 CA         -3.1286  -18.7640  -43.6421 C.3       8 UNK         0.1400 
     33 CB         -4.0828  -18.0490  -42.6746 C.3       8 UNK        -0.1800 
     34 N          -1.9610  -17.9164  -43.8909 N.am      8 UNK        -0.5000 
     35 C          -1.0442  -18.1626  -44.8368 C.2       7 UNK         0.5000 
     36 O          -1.0965  -19.1267  -45.6007 O.2       7 UNK        -0.5000 
     37 CA          0.1498  -17.1918  -44.9059 C.3       7 UNK         0.1400 
     38 CB         -0.2490  -15.9041  -45.6415 C.3       7 UNK        -0.1800 
     39 N           0.7095  -16.8499  -43.5929 N.am      7 UNK        -0.5000 
     40 C           1.2130  -17.7352  -42.7192 C.2       6 UNK         0.5000 
     41 O           1.2007  -18.9511  -42.9130 O.2       6 UNK        -0.5000 
     42 CA          1.7971  -17.1807  -41.3999 C.3       6 UNK         0.1400 
     43 CB          2.8499  -18.1220  -40.7756 C.3       6 UNK        -0.1800 
     44 N           2.3281  -15.8143  -41.4908 N.am      6 UNK        -0.5000 
     45 C           3.3454  -15.3918  -42.2550 C.2       5 UNK         0.5000 
     46 O           3.9517  -16.0986  -43.0635 O.2       5 UNK        -0.5000 
     47 CA          3.7828  -13.9304  -42.0469 C.3       5 UNK         0.1400 
     48 CB          5.0305  -13.8623  -41.1525 C.3       5 UNK        -0.1800 
     49 N           4.0695  -13.2720  -43.3193 N.am      5 UNK        -0.5000 
     50 C           3.1323  -12.9277  -44.2085 C.2       4 UNK         0.5000 
     51 O           1.9238  -13.0986  -44.0249 O.2       4 UNK        -0.5000 
     52 CA          3.6355  -12.3096  -45.5229 C.3       4 UNK         0.1400 
     53 CB          3.7619  -13.3900  -46.6088 C.3       4 UNK        -0.1800 
     54 N           2.6894  -11.2939  -45.9697 N.am      4 UNK        -0.5000 
     55 C           2.7732   -9.9856  -45.6925 C.2       3 UNK         0.5000 
     56 O           3.7485   -9.4635  -45.1503 O.2       3 UNK        -0.5000 
     57 CA          1.5567   -9.1088  -46.0632 C.3       3 UNK         0.1400 
     58 CB          1.7398   -8.4946  -47.4593 C.3       3 UNK        -0.1800 
     59 N           0.2939   -9.8486  -46.0304 N.am      3 UNK        -0.5000 
     60 C          -0.2610  -10.3610  -44.9236 C.2       2 UNK         0.5000 
     61 O           0.1259  -10.0865  -43.7866 O.2       2 UNK        -0.5000 
     62 CA         -1.4292  -11.3567  -45.0999 C.3       2 UNK         0.1400 
     63 CB         -2.7420  -10.7449  -44.5852 C.3       2 UNK        -0.1800 
     64 N          -1.6602  -11.8693  -46.4575 N.am      2 UNK        -0.5000 
     65 C          -0.7924  -12.5264  -47.2396 C.2       1 UNK         0.5000 
     66 O           0.3953  -12.6681  -46.9580 O.2       1 UNK        -0.5000 
     67 C          -3.0548  -23.8647  -46.0947 C.2       11 UNK         0.5000 
     68 O          -3.4065  -24.8353  -46.7637 O.2       11 UNK        -0.5000 
     69 N          -3.2059  -23.7946  -44.7654 N.am      12 UNK        -0.5000 
     70 CA         -3.7562  -24.8845  -43.9555 C.3       12 UNK         0.1400 
     71 CB         -3.9713  -24.4077  -42.5113 C.3       12 UNK        -0.1800 
     72 C          -2.8839  -26.1548  -43.9964 C.2       12 UNK         0.5000 
     73 O          -3.4213  -27.2552  -44.1259 O.2       12 UNK        -0.5000 
     74 N          -1.5581  -25.9768  -43.9217 N.am      13 UNK        -0.5000 
     75 CA         -0.5686  -27.0496  -44.0141 C.3       13 UNK         0.1400 
     76 CB          0.7949  -26.5225  -43.5407 C.3       13 UNK        -0.1800 
     77 C          -0.4591  -27.6448  -45.4307 C.2       13 UNK         0.5000 
     78 O          -0.3999  -28.8666  -45.5738 O.2       13 UNK        -0.5000 
     79 N          -0.4309  -26.7753  -46.4492 N.am      14 UNK        -0.5000 
     80 CA         -0.2489  -27.1405  -47.8562 C.3       14 UNK         0.1400 
     81 CB          0.3220  -25.9265  -48.6070 C.3       14 UNK        -0.1800 
     82 C          -1.5320  -27.6362  -48.5507 C.2       14 UNK         0.5000 
     83 O          -1.4483  -28.0842  -49.6937 O.2       14 UNK        -0.5000 
     84 N          -2.6894  -27.5145  -47.8843 N.am      15 UNK        -0.5000 
     85 CA         -4.0383  -27.7795  -48.4001 C.3       15 UNK         0.1400 
     86 CB         -4.2317  -29.2747  -48.7288 C.3       15 UNK        -0.1800 
     87 C          -4.3851  -26.8390  -49.5740 C.2       15 UNK         0.5000 
     88 O          -4.7665  -27.2892  -50.6550 O.2       15 UNK        -0.5000 
     89 N          -4.1938  -25.5369  -49.3225 N.am      16 UNK        -0.5000 
     90 CA         -4.3982  -24.3768  -50.1978 C.3       16 UNK         0.1400 
     91 CB         -5.8458  -24.3119  -50.7233 C.3       16 UNK        -0.1800 
     92 C          -3.3670  -24.2233  -51.3340 C.2       16 UNK         0.5000 
     93 O          -3.4060  -23.2141  -52.0365 O.2       16 UNK        -0.5000 
     94 N          -2.4289  -25.1701  -51.4826 N.am      17 UNK        -0.5000 
     95 CA         -1.3997  -25.1600  -52.5299 C.3       17 UNK         0.1400 
     96 CB         -0.7518  -26.5499  -52.6192 C.3       17 UNK        -0.1800 
     97 C          -0.3297  -24.0590  -52.3617 C.2       17 UNK         0.5000 
     98 O           0.4289  -23.8111  -53.2993 O.2       17 UNK        -0.5000 
     99 N          -0.2885  -23.4123  -51.1879 N.am      18 UNK        -0.5000 
    100 CA         0.5587  -22.2526  -50.9046 C.3       18 UNK         0.1400 
    101 CB         0.7236  -22.1065  -49.3832 C.3       18 UNK        -0.1800 
    102 C          0.0299  -20.9431  -51.5297 C.2       18 UNK         0.5000 
    103 O          0.7934  -19.9804  -51.6221 O.2       18 UNK        -0.5000 
    104 N         -1.2446  -20.9155  -51.9499 N.am      19 UNK        -0.5000 
    105 CA        -1.8533  -19.7859  -52.6518 C.3       19 UNK         0.1400 
    106 CB        -3.3791  -19.9504  -52.6558 C.3       19 UNK        -0.1800 
    107 C         -1.3199  -19.6691  -54.0912 C.2       19 UNK         0.5000 
    108 O         -1.0099  -20.6848  -54.7188 O.2       19 UNK        -0.5000 
    109 N         -1.2339  -18.4319  -54.5952 N.am      20 UNK        -0.5000 
    110 CA        -0.6829  -18.1190  -55.9173 C.3       20 UNK         0.1400 
    111 CB        -0.4132  -16.6082  -55.9948 C.3       20 UNK        -0.1800 
    112 C         -1.5825  -18.5636  -57.0879 C.2       20 UNK         0.5000 
    113 O         -1.0643  -18.9226  -58.1454 O.2       20 UNK        -0.5000 
    114 N         -2.9010  -18.5222  -56.8634 N.am      21 UNK        -0.5000 
    115 CA        -4.0043  -18.8261  -57.7860 C.3       21 UNK         0.1400 
    116 CB        -3.8575  -18.0995  -59.1409 C.3       21 UNK        -0.1800 
    117 C         -5.3339  -18.4057  -57.1354 C.2       21 UNK         0.5000 
    118 O         -6.3680  -19.0247  -57.3877 O.2       21 UNK        -0.5000 
    119 N         -5.2596  -17.3569  -56.3070 N.am      22 UNK        -0.5000 
    120 CA        -6.2996  -16.8169  -55.4223 C.3       22 UNK         0.1400 
    121 C         -6.9647  -17.8585  -54.4737 C.2       22 UNK         0.5000 
    122 N         -8.1930  -17.6070  -54.0409 N.am      22 UNK        -0.7600 
    123 O         -6.3755  -18.8688  -54.0989 O.2       22 UNK        -0.5000 
    124 C124       -5.7342  -15.6063  -54.6290 C.3       23 UNK        -0.0398 
    125 S125       -4.1404  -15.9580  -53.7943 S.3       23 UNK        -0.2404 
    126 C126       -4.6382  -15.9180  -52.0439 C.3       23 UNK        -0.0205 
    127 H127       -5.0023  -15.6077  -48.1771 H         1 UNK         0.0600 
    128 H128       -4.8729  -15.1683  -46.4708 H         1 UNK         0.0600 
    129 H129       -3.6246  -16.1643  -47.2115 H         1 UNK         0.0600 
    130 H130       -1.9257  -15.1455  -48.3658 H         1 UNK         0.3000 
    131 H131       -1.9299  -12.3284  -49.0234 H         1 UNK         0.0600 
    132 H132        0.4480  -12.7521  -49.7052 H         1 UNK         0.0800 
    133 H133       -0.7364  -13.6943  -50.5404 H         1 UNK         0.0800 
    134 H134        0.8044  -17.1128  -50.4031 H         1 UNK         0.0800 
    135 H135        0.3727  -15.7688  -51.4271 H         1 UNK         0.0800 
    136 H136       -1.9563  -15.3606  -51.9304 H         1 UNK         0.1150 
    137 H137       -4.9776  -17.7875  -50.0989 H         1 UNK         0.1150 
    138 H138       -0.9282  -18.0110  -48.7191 H         1 UNK         0.1150 
    139 H139       -2.9795  -18.7149  -47.2774 H         1 UNK         0.0800 
    140 H140       -4.4935  -18.9998  -48.0989 H         1 UNK         0.0800 
    141 H141       -4.3800  -22.0637  -47.4742 H         1 UNK         0.0800 
    142 H142       -3.6169  -20.9424  -46.3766 H         1 UNK         0.0800 
    143 H143       -1.9684  -23.1110  -47.7334 H         1 UNK         0.0600 
    144 H144       -1.3127  -21.1786  -45.7418 H         1 UNK         0.3000 
    145 H145        1.5670  -22.9720  -44.4838 H         1 UNK         0.0600 
    146 H146        2.4968  -20.7029  -44.9260 H         1 UNK         0.0600 
    147 H147        2.2844  -21.6092  -46.4173 H         1 UNK         0.0600 
    148 H148        1.1468  -20.3399  -45.9972 H         1 UNK         0.0600 
    149 H149        0.3702  -20.5777  -43.5581 H         1 UNK         0.3000 
    150 H150       -2.0014  -22.0469  -41.3106 H         1 UNK         0.0600 
    151 H151        0.1274  -22.0325  -40.0418 H         1 UNK         0.0600 
    152 H152       -0.7874  -20.5666  -39.7220 H         1 UNK         0.0600 
    153 H153        0.6042  -20.5234  -40.8042 H         1 UNK         0.0600 
    154 H154       -1.2631  -19.3455  -41.9850 H         1 UNK         0.3000 
    155 H155       -3.6509  -18.9073  -44.5906 H         1 UNK         0.0600 
    156 H156       -3.6095  -17.8507  -41.7122 H         1 UNK         0.0600 
    157 H157       -4.9711  -18.6534  -42.4856 H         1 UNK         0.0600 
    158 H158       -4.4204  -17.0974  -43.0859 H         1 UNK         0.0600 
    159 H159       -1.8420  -17.1091  -43.2970 H         1 UNK         0.3000 
    160 H160        0.9368  -17.6828  -45.4819 H         1 UNK         0.0600 
    161 H161       -0.9860  -15.3254  -45.0836 H         1 UNK         0.0600 
    162 H162       -0.6811  -16.1323  -46.6161 H         1 UNK         0.0600 
    163 H163        0.6170  -15.2639  -45.8131 H         1 UNK         0.0600 
    164 H164        0.7732  -15.8670  -43.3691 H         1 UNK         0.3000 
    165 H165        0.9566  -17.1304  -40.7063 H         1 UNK         0.0600 
    166 H166        3.6927  -18.2878  -41.4474 H         1 UNK         0.0600 
    167 H167        3.2399  -17.7146  -39.8429 H         1 UNK         0.0600 
    168 H168        2.4237  -19.0976  -40.5443 H         1 UNK         0.0600 
    169 H169        1.8920  -15.1448  -40.8715 H         1 UNK         0.3000 
    170 H170        2.9774  -13.3831  -41.5519 H         1 UNK         0.0600 
    171 H171        5.8789  -14.3784  -41.6041 H         1 UNK         0.0600 
    172 H172        5.3261  -12.8300  -40.9645 H         1 UNK         0.0600 
    173 H173        4.8419  -14.3273  -40.1840 H         1 UNK         0.0600 
    174 H174        5.0438  -13.1452  -43.5513 H         1 UNK         0.3000 
    175 H175        4.6186  -11.8624  -45.3617 H         1 UNK         0.0600 
    176 H176        4.4875  -14.1510  -46.3193 H         1 UNK         0.0600 
    177 H177        4.0956  -12.9624  -47.5542 H         1 UNK         0.0600 
    178 H178        2.8121  -13.8961  -46.7882 H         1 UNK         0.0600 
    179 H179        1.8181  -11.6632  -46.3459 H         1 UNK         0.3000 
    180 H180        1.4964   -8.2972  -45.3352 H         1 UNK         0.0600 
    181 H181        0.9184   -7.8215  -47.7057 H         1 UNK         0.0600 
    182 H182        1.7905   -9.2621  -48.2328 H         1 UNK         0.0600 
    183 H183        2.6618   -7.9140  -47.5120 H         1 UNK         0.0600 
    184 H184       -0.0897  -10.1295  -46.9200 H         1 UNK         0.3000 
    185 H185       -1.1900  -12.2202  -44.4759 H         1 UNK         0.0600 
    186 H186       -3.5496  -11.4774  -44.5949 H         1 UNK         0.0600 
    187 H187       -2.6381  -10.3934  -43.5578 H         1 UNK         0.0600 
    188 H188       -3.0519   -9.8948  -45.1941 H         1 UNK         0.0600 
    189 H189       -2.6249  -11.8556  -46.7733 H         1 UNK         0.3000 
    190 H190       -2.9570  -22.9381  -44.2805 H         1 UNK         0.3000 
    191 H191       -4.7329  -25.1418  -44.3708 H         1 UNK         0.0600 
    192 H192       -4.4495  -25.1844  -41.9135 H         1 UNK         0.0600 
    193 H193       -4.6143  -23.5280  -42.4770 H         1 UNK         0.0600 
    194 H194       -3.0306  -24.1548  -42.0238 H         1 UNK         0.0600 
    195 H195       -1.2004  -25.0386  -43.7651 H         1 UNK         0.3000 
    196 H196       -0.8732  -27.8515  -43.3383 H         1 UNK         0.0600 
    197 H197        1.1414  -25.6912  -44.1559 H         1 UNK         0.0600 
    198 H198        0.7447  -26.1738  -42.5090 H         1 UNK         0.0600 
    199 H199        1.5541  -27.3044  -43.5844 H         1 UNK         0.0600 
    200 H200       -0.4305  -25.7781  -46.2439 H         1 UNK         0.3000 
    201 H201        0.4843  -27.9475  -47.9145 H         1 UNK         0.0600 
    202 H202        0.5766  -26.1798  -49.6353 H         1 UNK         0.0600 
    203 H203       -0.3919  -25.1028  -48.6356 H         1 UNK         0.0600 
    204 H204        1.2347  -25.5632  -48.1344 H         1 UNK         0.0600 
    205 H205       -2.6518  -27.0773  -46.9727 H         1 UNK         0.3000 
    206 H206       -4.7282  -27.5307  -47.5922 H         1 UNK         0.0600 
    207 H207       -3.9857  -29.9006  -47.8710 H         1 UNK         0.0600 
    208 H208       -5.2688  -29.4813  -48.9952 H         1 UNK         0.0600 
    209 H209       -3.6120  -29.5952  -49.5665 H         1 UNK         0.0600 
    210 H210       -3.8672  -25.3051  -48.3839 H         1 UNK         0.3000 
    211 H211       -4.2524  -23.5067  -49.5571 H         1 UNK         0.0600 
    212 H212       -6.0315  -23.3673  -51.2359 H         1 UNK         0.0600 
    213 H213       -6.5655  -24.3839  -49.9079 H         1 UNK         0.0600 
    214 H214       -6.0584  -25.1114  -51.4332 H         1 UNK         0.0600 
    215 H215       -2.4624  -25.9847  -50.8853 H         1 UNK         0.3000 
    216 H216       -1.9010  -24.9679  -53.4809 H         1 UNK         0.0600 
    217 H217       -0.1922  -26.7948  -51.7179 H         1 UNK         0.0600 
    218 H218       -0.0566  -26.6032  -53.4579 H         1 UNK         0.0600 
    219 H219       -1.5012  -27.3274  -52.7696 H         1 UNK         0.0600 
    220 H220       -0.9493  -23.6791  -50.4753 H         1 UNK         0.3000 
    221 H221        1.5477  -22.4360  -51.3298 H         1 UNK         0.0600 
    222 H222        1.1598  -23.0024  -48.9418 H         1 UNK         0.0600 
    223 H223       -0.2290  -21.9192  -48.8916 H         1 UNK         0.0600 
    224 H224        1.3827  -21.2724  -49.1393 H         1 UNK         0.0600 
    225 H225       -1.8086  -21.7536  -51.8828 H         1 UNK         0.3000 
    226 H226       -1.6062  -18.8742  -52.1065 H         1 UNK         0.0600 
    227 H227       -3.7665  -20.0914  -51.6468 H         1 UNK         0.0600 
    228 H228       -3.8615  -19.0630  -53.0660 H         1 UNK         0.0600 
    229 H229       -3.6937  -20.8031  -53.2583 H         1 UNK         0.0600 
    230 H230       -1.5180  -17.6473  -54.0258 H         1 UNK         0.3000 
    231 H231        0.2719  -18.6394  -56.0197 H         1 UNK         0.0600 
    232 H232       -1.3281  -16.0279  -55.8680 H         1 UNK         0.0600 
    233 H233        0.0168  -16.3367  -56.9599 H         1 UNK         0.0600 
    234 H234        0.2930  -16.2934  -55.2261 H         1 UNK         0.0600 
    235 H235       -3.1939  -18.2963  -55.9229 H         1 UNK         0.3000 
    236 H236       -4.0305  -19.9046  -57.9511 H         1 UNK         0.0600 
    237 H237       -3.0386  -18.5061  -59.7331 H         1 UNK         0.0600 
    238 H238       -4.7598  -18.2093  -59.7444 H         1 UNK         0.0600 
    239 H239       -3.6808  -17.0317  -59.0078 H         1 UNK         0.0600 
    240 H240       -4.3677  -16.8942  -56.2202 H         1 UNK         0.3000 
    241 H241       -7.0892  -16.4476  -56.0791 H         1 UNK         0.0600 
    242 H242       -8.6330  -18.2666  -53.4183 H         1 UNK         0.3800 
    243 H243       -8.7026  -16.7861  -54.3296 H         1 UNK         0.3800 
    244 H244       -6.4639  -15.2279  -53.9110 H         1 UNK         0.0800 
    245 H245       -5.5598  -14.7799  -55.3192 H         1 UNK         0.0800 
    246 H246       -5.5789  -16.4602  -51.9347 H         1 UNK         0.0800 
    247 H247       -4.8323  -14.8868  -51.7464 H         1 UNK         0.0800 
@<TRIPOS>BOND
     1    1    2 1    
     2    1  127 1    
     3    1  128 1    
     4    1  129 1    
     5    2    3 2    
     6    2    4 am   BACKBONE|DICT|INTERRES
     7    4    5 1    
     8    4  130 1    
     9    5    6 1    
    10    5   65 1    
    11    5  131 1    
    12    6    7 1    
    13    6  132 1    
    14    6  133 1    
    15    7    8 1    
    16    8    9 1    
    17    8  134 1    
    18    8  135 1    
    19    9   10 ar   
    20    9   14 ar   
    21   10   11 ar   
    22   10  136 1    
    23   11   12 ar   
    24   11  126 1    
    25   12   13 ar   
    26   12  137 1    
    27   13   14 ar   
    28   13   15 1    
    29   14  138 1    
    30   15   16 1    
    31   15  139 1    
    32   15  140 1    
    33   16   17 1    
    34   17   18 1    
    35   17  141 1    
    36   17  142 1    
    37   18   19 1    
    38   18   67 1    
    39   18  143 1    
    40   19   20 am   BACKBONE|DICT|INTERRES
    41   19  144 1    
    42   20   21 2    
    43   20   22 1    
    44   22   23 1    
    45   22   24 1    
    46   22  145 1    
    47   23  146 1    
    48   23  147 1    
    49   23  148 1    
    50   24   25 am   BACKBONE|DICT|INTERRES
    51   24  149 1    
    52   25   26 2    
    53   25   27 1    
    54   27   28 1    
    55   27   29 1    
    56   27  150 1    
    57   28  151 1    
    58   28  152 1    
    59   28  153 1    
    60   29   30 am   BACKBONE|DICT|INTERRES
    61   29  154 1    
    62   30   31 2    
    63   30   32 1    
    64   32   33 1    
    65   32   34 1    
    66   32  155 1    
    67   33  156 1    
    68   33  157 1    
    69   33  158 1    
    70   34   35 am   BACKBONE|DICT|INTERRES
    71   34  159 1    
    72   35   36 2    
    73   35   37 1    
    74   37   38 1    
    75   37   39 1    
    76   37  160 1    
    77   38  161 1    
    78   38  162 1    
    79   38  163 1    
    80   39   40 am   BACKBONE|DICT|INTERRES
    81   39  164 1    
    82   40   41 2    
    83   40   42 1    
    84   42   43 1    
    85   42   44 1    
    86   42  165 1    
    87   43  166 1    
    88   43  167 1    
    89   43  168 1    
    90   44   45 am   BACKBONE|DICT|INTERRES
    91   44  169 1    
    92   45   46 2    
    93   45   47 1    
    94   47   48 1    
    95   47   49 1    
    96   47  170 1    
    97   48  171 1    
    98   48  172 1    
    99   48  173 1    
   100   49   50 am   BACKBONE|DICT|INTERRES
   101   49  174 1    
   102   50   51 2    
   103   50   52 1    
   104   52   53 1    
   105   52   54 1    
   106   52  175 1    
   107   53  176 1    
   108   53  177 1    
   109   53  178 1    
   110   54   55 am   BACKBONE|DICT|INTERRES
   111   54  179 1    
   112   55   56 2    
   113   55   57 1    
   114   57   58 1    
   115   57   59 1    
   116   57  180 1    
   117   58  181 1    
   118   58  182 1    
   119   58  183 1    
   120   59   60 am   BACKBONE|DICT|INTERRES
   121   59  184 1    
   122   60   61 2    
   123   60   62 1    
   124   62   63 1    
   125   62   64 1    
   126   62  185 1    
   127   63  186 1    
   128   63  187 1    
   129   63  188 1    
   130   64   65 am   BACKBONE|DICT|INTERRES
   131   64  189 1    
   132   65   66 2    
   133   67   68 2    
   134   67   69 am   BACKBONE|DICT|INTERRES
   135   69   70 1    
   136   69  190 1    
   137   70   71 1    
   138   70   72 1    
   139   70  191 1    
   140   71  192 1    
   141   71  193 1    
   142   71  194 1    
   143   72   73 2    
   144   72   74 am   BACKBONE|DICT|INTERRES
   145   74   75 1    
   146   74  195 1    
   147   75   76 1    
   148   75   77 1    
   149   75  196 1    
   150   76  197 1    
   151   76  198 1    
   152   76  199 1    
   153   77   78 2    
   154   77   79 am   BACKBONE|DICT|INTERRES
   155   79   80 1    
   156   79  200 1    
   157   80   81 1    
   158   80   82 1    
   159   80  201 1    
   160   81  202 1    
   161   81  203 1    
   162   81  204 1    
   163   82   83 2    
   164   82   84 am   BACKBONE|DICT|INTERRES
   165   84   85 1    
   166   84  205 1    
   167   85   86 1    
   168   85   87 1    
   169   85  206 1    
   170   86  207 1    
   171   86  208 1    
   172   86  209 1    
   173   87   88 2    
   174   87   89 am   BACKBONE|DICT|INTERRES
   175   89   90 1    
   176   89  210 1    
   177   90   91 1    
   178   90   92 1    
   179   90  211 1    
   180   91  212 1    
   181   91  213 1    
   182   91  214 1    
   183   92   93 2    
   184   92   94 am   BACKBONE|DICT|INTERRES
   185   94   95 1    
   186   94  215 1    
   187   95   96 1    
   188   95   97 1    
   189   95  216 1    
   190   96  217 1    
   191   96  218 1    
   192   96  219 1    
   193   97   98 2    
   194   97   99 am   BACKBONE|DICT|INTERRES
   195   99  100 1    
   196   99  220 1    
   197  100  101 1    
   198  100  102 1    
   199  100  221 1    
   200  101  222 1    
   201  101  223 1    
   202  101  224 1    
   203  102  103 2    
   204  102  104 am   BACKBONE|DICT|INTERRES
   205  104  105 1    
   206  104  225 1    
   207  105  106 1    
   208  105  107 1    
   209  105  226 1    
   210  106  227 1    
   211  106  228 1    
   212  106  229 1    
   213  107  108 2    
   214  107  109 am   BACKBONE|DICT|INTERRES
   215  109  110 1    
   216  109  230 1    
   217  110  111 1    
   218  110  112 1    
   219  110  231 1    
   220  111  232 1    
   221  111  233 1    
   222  111  234 1    
   223  112  113 2    
   224  112  114 am   BACKBONE|DICT|INTERRES
   225  114  115 1    
   226  114  235 1    
   227  115  116 1    
   228  115  117 1    
   229  115  236 1    
   230  116  237 1    
   231  116  238 1    
   232  116  239 1    
   233  117  118 2    
   234  117  119 am   BACKBONE|DICT|INTERRES
   235  119  120 1    
   236  119  240 1    
   237  120  121 1    
   238  120  124 1    
   239  120  241 1    
   240  121  122 am   BACKBONE|DICT|INTERRES
   241  121  123 2    
   242  122  242 1    
   243  122  243 1    
   244  124  125 1    
   245  124  244 1    
   246  124  245 1    
   247  125  126 1    
   248  126  246 1    
   249  126  247 1    
@<TRIPOS>SUBSTRUCTURE
     1 UNK         1 GROUP             0       ****    0 ROOT    
