@<TRIPOS>MOLECULE
3R540
247   249    1
SMALL
USER_CHARGES


@<TRIPOS>ATOM
      1 CA          0.9346  -10.7210  -48.3014 C.3       0 UNK        -0.1800 
      2 C           0.9308  -12.0389  -47.5415 C.2       0 UNK         0.5000 
      3 O           1.1048  -12.0422  -46.3211 O.2       0 UNK        -0.5000 
      4 N           0.7171  -13.1555  -48.2511 N.am      1 UNK        -0.5000 
      5 CA          0.6939  -14.5342  -47.7385 C.3       1 UNK         0.1400 
      6 C6          0.9018  -15.5755  -48.8700 C.3       23 UNK        -0.0398 
      7 S7          2.3979  -15.2777  -49.8793 S.3       23 UNK        -0.2404 
      8 C8          3.2541  -16.8944  -49.8264 C.3       23 UNK        -0.0205 
      9 C9          2.4828  -18.0942  -50.3836 C.ar      23 UNK        -0.0193 
     10 C10         1.3330  -17.9628  -51.1728 C.ar      23 UNK        -0.1150 
     11 C11         0.6316  -19.0831  -51.6249 C.ar      23 UNK        -0.0193 
     12 C12         1.1070  -20.3558  -51.2856 C.ar      23 UNK        -0.1150 
     13 C13         2.2578  -20.5154  -50.5083 C.ar      23 UNK        -0.0193 
     14 C14         2.9508  -19.3765  -50.0837 C.ar      23 UNK        -0.1150 
     15 C15         2.7195  -21.9348  -50.1708 C.3       23 UNK        -0.0205 
     16 S16         3.6662  -22.1532  -48.6179 S.3       23 UNK        -0.2404 
     17 C17         2.6760  -21.3100  -47.3358 C.3       23 UNK        -0.0398 
     18 CA          1.4266  -22.0843  -46.8432 C.3       11 UNK         0.1400 
     19 N           1.0973  -21.7409  -45.4570 N.am      11 UNK        -0.5000 
     20 C           0.0779  -22.2335  -44.7383 C.2       10 UNK         0.5000 
     21 O          -0.6722  -23.1282  -45.1256 O.2       10 UNK        -0.5000 
     22 CA         -0.1883  -21.5617  -43.3806 C.3       10 UNK         0.1400 
     23 CB          0.6975  -22.1590  -42.2779 C.3       10 UNK        -0.1800 
     24 N           0.0034  -20.1119  -43.4470 N.am      10 UNK        -0.5000 
     25 C          -0.8141  -19.2742  -44.1018 C.2       9 UNK         0.5000 
     26 O          -1.8429  -19.6326  -44.6739 O.2       9 UNK        -0.5000 
     27 CA         -0.3853  -17.7976  -44.1611 C.3       9 UNK         0.1400 
     28 CB         -0.8522  -17.0437  -42.9068 C.3       9 UNK        -0.1800 
     29 N           1.0637  -17.6551  -44.3080 N.am      9 UNK        -0.5000 
     30 C           1.7280  -17.9408  -45.4371 C.2       8 UNK         0.5000 
     31 O           1.1800  -18.3285  -46.4685 O.2       8 UNK        -0.5000 
     32 CA          3.2639  -17.8153  -45.4016 C.3       8 UNK         0.1400 
     33 CB          3.6921  -16.3806  -45.7428 C.3       8 UNK        -0.1800 
     34 N           3.8560  -18.1911  -44.1168 N.am      8 UNK        -0.5000 
     35 C           3.7463  -19.3906  -43.5305 C.2       7 UNK         0.5000 
     36 O           3.1366  -20.3361  -44.0294 O.2       7 UNK        -0.5000 
     37 CA          4.3628  -19.5558  -42.1256 C.3       7 UNK         0.1400 
     38 CB          5.3491  -18.4307  -41.7384 C.3       7 UNK        -0.1800 
     39 N           3.3297  -19.6952  -41.0919 N.am      7 UNK        -0.5000 
     40 C           2.3194  -18.8461  -40.8528 C.2       6 UNK         0.5000 
     41 O           2.0974  -17.8449  -41.5366 O.2       6 UNK        -0.5000 
     42 CA          1.3756  -19.1520  -39.6709 C.3       6 UNK         0.1400 
     43 CB          1.8095  -20.3405  -38.7821 C.3       6 UNK        -0.1800 
     44 N           1.1511  -17.9376  -38.8813 N.am      6 UNK        -0.5000 
     45 C           2.0734  -17.2511  -38.1925 C.2       5 UNK         0.5000 
     46 O           3.2271  -17.6380  -37.9947 O.2       5 UNK        -0.5000 
     47 CA          1.6503  -15.8502  -37.7212 C.3       5 UNK         0.1400 
     48 CB          2.3575  -15.4311  -36.4202 C.3       5 UNK        -0.1800 
     49 N           1.9796  -14.8916  -38.7731 N.am      5 UNK        -0.5000 
     50 C           1.2235  -14.6536  -39.8506 C.2       4 UNK         0.5000 
     51 O           0.0975  -15.1286  -40.0203 O.2       4 UNK        -0.5000 
     52 CA          1.8421  -13.7503  -40.9243 C.3       4 UNK         0.1400 
     53 CB          2.6292  -14.5765  -41.9575 C.3       4 UNK        -0.1800 
     54 N           0.7798  -13.0147  -41.5976 N.am      4 UNK        -0.5000 
     55 C           0.9012  -11.7994  -42.1394 C.2       3 UNK         0.5000 
     56 O           1.9524  -11.1555  -42.1333 O.2       3 UNK        -0.5000 
     57 CA         -0.3586  -11.2292  -42.8226 C.3       3 UNK         0.1400 
     58 CB         -0.1291   -9.8309  -43.4252 C.3       3 UNK        -0.1800 
     59 N          -0.8211  -12.1203  -43.8856 N.am      3 UNK        -0.5000 
     60 C          -1.6188  -13.1853  -43.7141 C.2       2 UNK         0.5000 
     61 O          -2.0718  -13.5236  -42.6210 O.2       2 UNK        -0.5000 
     62 CA         -1.9319  -14.0314  -44.9569 C.3       2 UNK         0.1400 
     63 CB         -3.1841  -13.4889  -45.6717 C.3       2 UNK        -0.1800 
     64 N          -0.7799  -14.0415  -45.8539 N.am      2 UNK        -0.5000 
     65 C          -0.5948  -14.8118  -46.9264 C.2       1 UNK         0.5000 
     66 O          -1.3976  -15.6693  -47.2915 O.2       1 UNK        -0.5000 
     67 C           0.2192  -21.8437  -47.7698 C.2       11 UNK         0.5000 
     68 O          -0.2232  -22.7733  -48.4420 O.2       11 UNK        -0.5000 
     69 N          -0.3210  -20.6171  -47.7404 N.am      12 UNK        -0.5000 
     70 CA         -1.4880  -20.1996  -48.5159 C.3       12 UNK         0.1400 
     71 CB         -1.7063  -18.6966  -48.3079 C.3       12 UNK        -0.1800 
     72 C          -2.7648  -20.9939  -48.1861 C.2       12 UNK         0.5000 
     73 O          -3.5187  -21.3329  -49.0994 O.2       12 UNK        -0.5000 
     74 N          -2.9754  -21.3044  -46.8996 N.am      13 UNK        -0.5000 
     75 CA         -4.0794  -22.1411  -46.4303 C.3       13 UNK         0.1400 
     76 CB         -4.1534  -22.0956  -44.8966 C.3       13 UNK        -0.1800 
     77 C          -3.9745  -23.5915  -46.9369 C.2       13 UNK         0.5000 
     78 O          -4.9591  -24.1253  -47.4487 O.2       13 UNK        -0.5000 
     79 N          -2.7810  -24.1897  -46.8155 N.am      14 UNK        -0.5000 
     80 CA         -2.4817  -25.5510  -47.2650 C.3       14 UNK         0.1400 
     81 CB         -1.1090  -25.9767  -46.7222 C.3       14 UNK        -0.1800 
     82 C          -2.5295  -25.7052  -48.7961 C.2       14 UNK         0.5000 
     83 O          -3.0312  -26.7149  -49.2913 O.2       14 UNK        -0.5000 
     84 N          -2.0216  -24.6966  -49.5149 N.am      15 UNK        -0.5000 
     85 CA         -1.9938  -24.6370  -50.9764 C.3       15 UNK         0.1400 
     86 CB         -0.9239  -23.6260  -51.4041 C.3       15 UNK        -0.1800 
     87 C          -3.3491  -24.2777  -51.6145 C.2       15 UNK         0.5000 
     88 O          -3.4761  -24.4042  -52.8306 O.2       15 UNK        -0.5000 
     89 N          -4.3204  -23.8424  -50.7988 N.am      16 UNK        -0.5000 
     90 CA         -5.6658  -23.3998  -51.1687 C.3       16 UNK         0.1400 
     91 CB         -6.4949  -24.5483  -51.7801 C.3       16 UNK        -0.1800 
     92 C          -5.6410  -22.1290  -52.0394 C.2       16 UNK         0.5000 
     93 O          -6.1481  -22.1163  -53.1645 O.2       16 UNK        -0.5000 
     94 N          -5.0738  -21.0556  -51.4738 N.am      17 UNK        -0.5000 
     95 CA         -5.0170  -19.7129  -52.0596 C.3       17 UNK         0.1400 
     96 CB         -4.2524  -18.7857  -51.1085 C.3       17 UNK        -0.1800 
     97 C          -6.3971  -19.1099  -52.3816 C.2       17 UNK         0.5000 
     98 O          -6.5107  -18.3409  -53.3350 O.2       17 UNK        -0.5000 
     99 N          -7.4294  -19.5117  -51.6261 N.am      18 UNK        -0.5000 
    100 CA        -8.8332  -19.1591  -51.8577 C.3       18 UNK         0.1400 
    101 CB        -9.6738  -19.6614  -50.6741 C.3       18 UNK        -0.1800 
    102 C         -9.3956  -19.7044  -53.1879 C.2       18 UNK         0.5000 
    103 O        -10.3148  -19.1042  -53.7454 O.2       18 UNK        -0.5000 
    104 N         -8.8214  -20.8104  -53.6809 N.am      19 UNK        -0.5000 
    105 CA        -9.1169  -21.4059  -54.9849 C.3       19 UNK         0.1400 
    106 CB        -9.1212  -22.9367  -54.8285 C.3       19 UNK        -0.1800 
    107 C         -8.0993  -20.9728  -56.0615 C.2       19 UNK         0.5000 
    108 O         -8.2207  -21.4084  -57.2071 O.2       19 UNK        -0.5000 
    109 N         -7.1068  -20.1522  -55.6767 N.am      20 UNK        -0.5000 
    110 CA        -5.9524  -19.7022  -56.4631 C.3       20 UNK         0.1400 
    111 CB        -6.3998  -18.7690  -57.6070 C.3       20 UNK        -0.1800 
    112 C         -5.0623  -20.8689  -56.9449 C.2       20 UNK         0.5000 
    113 O         -4.4774  -20.7951  -58.0268 O.2       20 UNK        -0.5000 
    114 N         -4.9855  -21.9347  -56.1362 N.am      21 UNK        -0.5000 
    115 CA        -4.3288  -23.1961  -56.4830 C.3       21 UNK         0.1400 
    116 CB        -5.1128  -24.3438  -55.8275 C.3       21 UNK        -0.1800 
    117 C         -2.8247  -23.2413  -56.1361 C.2       21 UNK         0.5000 
    118 O         -2.1910  -24.2723  -56.3703 O.2       21 UNK        -0.5000 
    119 N         -2.2721  -22.1406  -55.6060 N.am      22 UNK        -0.5000 
    120 CA        -0.8407  -21.9612  -55.3057 C.3       22 UNK         0.1400 
    121 C          0.0732  -22.1225  -56.5546 C.2       22 UNK         0.5000 
    122 N          1.2223  -22.7695  -56.4132 N.am      22 UNK        -0.7600 
    123 O         -0.2281  -21.6242  -57.6371 O.2       22 UNK        -0.5000 
    124 C124       -0.5565  -20.5936  -54.6333 C.3       23 UNK        -0.0398 
    125 S125       -1.4892  -20.3321  -53.0903 S.3       23 UNK        -0.2404 
    126 C126       -0.6453  -18.8470  -52.4370 C.3       23 UNK        -0.0205 
    127 H127        0.1538  -10.0648  -47.9170 H         1 UNK         0.0600 
    128 H128        0.7630  -10.8671  -49.3681 H         1 UNK         0.0600 
    129 H129        1.8945  -10.2201  -48.1764 H         1 UNK         0.0600 
    130 H130        0.5713  -13.0740  -49.2472 H         1 UNK         0.3000 
    131 H131        1.5266  -14.6383  -47.0415 H         1 UNK         0.0600 
    132 H132        0.0443  -15.5820  -49.5451 H         1 UNK         0.0800 
    133 H133        0.9581  -16.5777  -48.4438 H         1 UNK         0.0800 
    134 H134        4.1874  -16.8015  -50.3831 H         1 UNK         0.0800 
    135 H135        3.5339  -17.1013  -48.7935 H         1 UNK         0.0800 
    136 H136        0.9622  -16.9834  -51.4355 H         1 UNK         0.1150 
    137 H137        0.5834  -21.2375  -51.6183 H         1 UNK         0.1150 
    138 H138        3.8511  -19.4837  -49.4957 H         1 UNK         0.1150 
    139 H139        1.8600  -22.6035  -50.1327 H         1 UNK         0.0800 
    140 H140        3.3374  -22.2920  -50.9953 H         1 UNK         0.0800 
    141 H141        2.4291  -20.2970  -47.6482 H         1 UNK         0.0800 
    142 H142        3.3662  -21.1802  -46.5022 H         1 UNK         0.0800 
    143 H143        1.6498  -23.1531  -46.8532 H         1 UNK         0.0600 
    144 H144        1.7029  -21.0581  -45.0099 H         1 UNK         0.3000 
    145 H145       -1.2293  -21.7556  -43.1140 H         1 UNK         0.0600 
    146 H146        0.4369  -21.7483  -41.3033 H         1 UNK         0.0600 
    147 H147        0.5656  -23.2401  -42.2175 H         1 UNK         0.0600 
    148 H148        1.7561  -21.9691  -42.4542 H         1 UNK         0.0600 
    149 H149        0.8646  -19.7443  -43.0709 H         1 UNK         0.3000 
    150 H150       -0.8649  -17.3424  -45.0301 H         1 UNK         0.0600 
    151 H151       -1.9409  -17.0214  -42.8499 H         1 UNK         0.0600 
    152 H152       -0.5041  -16.0110  -42.9109 H         1 UNK         0.0600 
    153 H153       -0.4891  -17.5091  -41.9905 H         1 UNK         0.0600 
    154 H154        1.5855  -17.4213  -43.4690 H         1 UNK         0.3000 
    155 H155        3.6683  -18.4854  -46.1627 H         1 UNK         0.0600 
    156 H156        4.7779  -16.2907  -45.7799 H         1 UNK         0.0600 
    157 H157        3.3203  -15.6629  -45.0101 H         1 UNK         0.0600 
    158 H158        3.3130  -16.0801  -46.7183 H         1 UNK         0.0600 
    159 H159        4.3432  -17.4629  -43.6156 H         1 UNK         0.3000 
    160 H160        4.9192  -20.4939  -42.1451 H         1 UNK         0.0600 
    161 H161        4.8577  -17.4618  -41.6426 H         1 UNK         0.0600 
    162 H162        6.1463  -18.3322  -42.4764 H         1 UNK         0.0600 
    163 H163        5.8253  -18.6482  -40.7822 H         1 UNK         0.0600 
    164 H164        3.4210  -20.5033  -40.4931 H         1 UNK         0.3000 
    165 H165        0.4125  -19.4079  -40.1144 H         1 UNK         0.0600 
    166 H166        2.8003  -20.1978  -38.3504 H         1 UNK         0.0600 
    167 H167        1.1099  -20.4841  -37.9586 H         1 UNK         0.0600 
    168 H168        1.8282  -21.2725  -39.3475 H         1 UNK         0.0600 
    169 H169        0.2703  -17.4722  -39.0566 H         1 UNK         0.3000 
    170 H170        0.5740  -15.8469  -37.5351 H         1 UNK         0.0600 
    171 H171        2.1540  -16.1442  -35.6205 H         1 UNK         0.0600 
    172 H172        3.4399  -15.3748  -36.5430 H         1 UNK         0.0600 
    173 H173        2.0094  -14.4551  -36.0817 H         1 UNK         0.0600 
    174 H174        2.9049  -14.4895  -38.7280 H         1 UNK         0.3000 
    175 H175        2.5182  -13.0483  -40.4314 H         1 UNK         0.0600 
    176 H176        3.1257  -13.9329  -42.6838 H         1 UNK         0.0600 
    177 H177        3.3992  -15.1800  -41.4755 H         1 UNK         0.0600 
    178 H178        1.9759  -15.2558  -42.5059 H         1 UNK         0.0600 
    179 H179       -0.1250  -13.4756  -41.6046 H         1 UNK         0.3000 
    180 H180       -1.1331  -11.1387  -42.0580 H         1 UNK         0.0600 
    181 H181        0.6349   -9.8483  -44.2039 H         1 UNK         0.0600 
    182 H182        0.1933   -9.1226  -42.6611 H         1 UNK         0.0600 
    183 H183       -1.0455   -9.4369  -43.8650 H         1 UNK         0.0600 
    184 H184       -0.4568  -11.9127  -44.8061 H         1 UNK         0.3000 
    185 H185       -2.1270  -15.0538  -44.6297 H         1 UNK         0.0600 
    186 H186       -4.0288  -13.4252  -44.9846 H         1 UNK         0.0600 
    187 H187       -3.0132  -12.4911  -46.0774 H         1 UNK         0.0600 
    188 H188       -3.4891  -14.1364  -46.4935 H         1 UNK         0.0600 
    189 H189       -0.0521  -13.3593  -45.6609 H         1 UNK         0.3000 
    190 H190        0.1164  -19.8997  -47.1705 H         1 UNK         0.3000 
    191 H191       -1.2662  -20.3699  -49.5710 H         1 UNK         0.0600 
    192 H192       -1.8004  -18.4479  -47.2504 H         1 UNK         0.0600 
    193 H193       -2.6098  -18.3443  -48.8034 H         1 UNK         0.0600 
    194 H194       -0.8714  -18.1248  -48.7116 H         1 UNK         0.0600 
    195 H195       -2.3440  -20.9390  -46.1950 H         1 UNK         0.3000 
    196 H196       -5.0068  -21.7189  -46.8230 H         1 UNK         0.0600 
    197 H197       -4.9882  -22.6932  -44.5286 H         1 UNK         0.0600 
    198 H198       -4.3008  -21.0762  -44.5398 H         1 UNK         0.0600 
    199 H199       -3.2448  -22.4825  -44.4357 H         1 UNK         0.0600 
    200 H200       -2.0210  -23.6870  -46.3636 H         1 UNK         0.3000 
    201 H201       -3.2357  -26.2174  -46.8410 H         1 UNK         0.0600 
    202 H202       -1.0928  -25.9547  -45.6324 H         1 UNK         0.0600 
    203 H203       -0.3145  -25.3207  -47.0806 H         1 UNK         0.0600 
    204 H204       -0.8628  -26.9932  -47.0316 H         1 UNK         0.0600 
    205 H205       -1.5647  -23.9286  -49.0266 H         1 UNK         0.3000 
    206 H206       -1.7049  -25.6182  -51.3582 H         1 UNK         0.0600 
    207 H207        0.0573  -23.9051  -51.0218 H         1 UNK         0.0600 
    208 H208       -0.8462  -23.5721  -52.4888 H         1 UNK         0.0600 
    209 H209       -1.1624  -22.6271  -51.0378 H         1 UNK         0.0600 
    210 H210       -4.0872  -23.7440  -49.8196 H         1 UNK         0.3000 
    211 H211       -6.1539  -23.1174  -50.2347 H         1 UNK         0.0600 
    212 H212       -6.0790  -24.9032  -52.7218 H         1 UNK         0.0600 
    213 H213       -7.5177  -24.2261  -51.9787 H         1 UNK         0.0600 
    214 H214       -6.5483  -25.3974  -51.0989 H         1 UNK         0.0600 
    215 H215       -4.6142  -21.1699  -50.5718 H         1 UNK         0.3000 
    216 H216       -4.4633  -19.7863  -52.9972 H         1 UNK         0.0600 
    217 H217       -3.2662  -19.1901  -50.8907 H         1 UNK         0.0600 
    218 H218       -4.7770  -18.6593  -50.1607 H         1 UNK         0.0600 
    219 H219       -4.1129  -17.7971  -51.5475 H         1 UNK         0.0600 
    220 H220       -7.2406  -20.1399  -50.8591 H         1 UNK         0.3000 
    221 H221       -8.9042  -18.0701  -51.8928 H         1 UNK         0.0600 
    222 H222       -9.6224  -20.7465  -50.5758 H         1 UNK         0.0600 
    223 H223       -9.3365  -19.2218  -49.7352 H         1 UNK         0.0600 
    224 H224      -10.7236  -19.3924  -50.7984 H         1 UNK         0.0600 
    225 H225       -8.0452  -21.2277  -53.1802 H         1 UNK         0.3000 
    226 H226      -10.1066  -21.0961  -55.3260 H         1 UNK         0.0600 
    227 H227       -9.8367  -23.2537  -54.0697 H         1 UNK         0.0600 
    228 H228       -9.4020  -23.4257  -55.7620 H         1 UNK         0.0600 
    229 H229       -8.1397  -23.3170  -54.5433 H         1 UNK         0.0600 
    230 H230       -7.1232  -19.8148  -54.7225 H         1 UNK         0.3000 
    231 H231       -5.3332  -19.1142  -55.7844 H         1 UNK         0.0600 
    232 H232       -5.5398  -18.3185  -58.1036 H         1 UNK         0.0600 
    233 H233       -7.0183  -17.9542  -57.2304 H         1 UNK         0.0600 
    234 H234       -6.9726  -19.3025  -58.3659 H         1 UNK         0.0600 
    235 H235       -5.4752  -21.9167  -55.2482 H         1 UNK         0.3000 
    236 H236       -4.3932  -23.3429  -57.5632 H         1 UNK         0.0600 
    237 H237       -5.1740  -24.2157  -54.7490 H         1 UNK         0.0600 
    238 H238       -6.1319  -24.3905  -56.2118 H         1 UNK         0.0600 
    239 H239       -4.6476  -25.3108  -56.0213 H         1 UNK         0.0600 
    240 H240       -2.8655  -21.3424  -55.4436 H         1 UNK         0.3000 
    241 H241       -0.5724  -22.7470  -54.5993 H         1 UNK         0.0600 
    242 H242        1.4952  -23.1817  -55.5344 H         1 UNK         0.3800 
    243 H243        1.8301  -22.8660  -57.2120 H         1 UNK         0.3800 
    244 H244        0.5064  -20.5034  -54.4006 H         1 UNK         0.0800 
    245 H245       -0.7916  -19.7762  -55.3174 H         1 UNK         0.0800 
    246 H246       -1.3478  -18.3110  -51.7995 H         1 UNK         0.0800 
    247 H247       -0.4233  -18.1750  -53.2672 H         1 UNK         0.0800 
@<TRIPOS>BOND
     1    1    2 1    
     2    1  127 1    
     3    1  128 1    
     4    1  129 1    
     5    2    3 2    
     6    2    4 am   BACKBONE|DICT|INTERRES
     7    4    5 1    
     8    4  130 1    
     9    5    6 1    
    10    5   65 1    
    11    5  131 1    
    12    6    7 1    
    13    6  132 1    
    14    6  133 1    
    15    7    8 1    
    16    8    9 1    
    17    8  134 1    
    18    8  135 1    
    19    9   10 ar   
    20    9   14 ar   
    21   10   11 ar   
    22   10  136 1    
    23   11   12 ar   
    24   11  126 1    
    25   12   13 ar   
    26   12  137 1    
    27   13   14 ar   
    28   13   15 1    
    29   14  138 1    
    30   15   16 1    
    31   15  139 1    
    32   15  140 1    
    33   16   17 1    
    34   17   18 1    
    35   17  141 1    
    36   17  142 1    
    37   18   19 1    
    38   18   67 1    
    39   18  143 1    
    40   19   20 am   BACKBONE|DICT|INTERRES
    41   19  144 1    
    42   20   21 2    
    43   20   22 1    
    44   22   23 1    
    45   22   24 1    
    46   22  145 1    
    47   23  146 1    
    48   23  147 1    
    49   23  148 1    
    50   24   25 am   BACKBONE|DICT|INTERRES
    51   24  149 1    
    52   25   26 2    
    53   25   27 1    
    54   27   28 1    
    55   27   29 1    
    56   27  150 1    
    57   28  151 1    
    58   28  152 1    
    59   28  153 1    
    60   29   30 am   BACKBONE|DICT|INTERRES
    61   29  154 1    
    62   30   31 2    
    63   30   32 1    
    64   32   33 1    
    65   32   34 1    
    66   32  155 1    
    67   33  156 1    
    68   33  157 1    
    69   33  158 1    
    70   34   35 am   BACKBONE|DICT|INTERRES
    71   34  159 1    
    72   35   36 2    
    73   35   37 1    
    74   37   38 1    
    75   37   39 1    
    76   37  160 1    
    77   38  161 1    
    78   38  162 1    
    79   38  163 1    
    80   39   40 am   BACKBONE|DICT|INTERRES
    81   39  164 1    
    82   40   41 2    
    83   40   42 1    
    84   42   43 1    
    85   42   44 1    
    86   42  165 1    
    87   43  166 1    
    88   43  167 1    
    89   43  168 1    
    90   44   45 am   BACKBONE|DICT|INTERRES
    91   44  169 1    
    92   45   46 2    
    93   45   47 1    
    94   47   48 1    
    95   47   49 1    
    96   47  170 1    
    97   48  171 1    
    98   48  172 1    
    99   48  173 1    
   100   49   50 am   BACKBONE|DICT|INTERRES
   101   49  174 1    
   102   50   51 2    
   103   50   52 1    
   104   52   53 1    
   105   52   54 1    
   106   52  175 1    
   107   53  176 1    
   108   53  177 1    
   109   53  178 1    
   110   54   55 am   BACKBONE|DICT|INTERRES
   111   54  179 1    
   112   55   56 2    
   113   55   57 1    
   114   57   58 1    
   115   57   59 1    
   116   57  180 1    
   117   58  181 1    
   118   58  182 1    
   119   58  183 1    
   120   59   60 am   BACKBONE|DICT|INTERRES
   121   59  184 1    
   122   60   61 2    
   123   60   62 1    
   124   62   63 1    
   125   62   64 1    
   126   62  185 1    
   127   63  186 1    
   128   63  187 1    
   129   63  188 1    
   130   64   65 am   BACKBONE|DICT|INTERRES
   131   64  189 1    
   132   65   66 2    
   133   67   68 2    
   134   67   69 am   BACKBONE|DICT|INTERRES
   135   69   70 1    
   136   69  190 1    
   137   70   71 1    
   138   70   72 1    
   139   70  191 1    
   140   71  192 1    
   141   71  193 1    
   142   71  194 1    
   143   72   73 2    
   144   72   74 am   BACKBONE|DICT|INTERRES
   145   74   75 1    
   146   74  195 1    
   147   75   76 1    
   148   75   77 1    
   149   75  196 1    
   150   76  197 1    
   151   76  198 1    
   152   76  199 1    
   153   77   78 2    
   154   77   79 am   BACKBONE|DICT|INTERRES
   155   79   80 1    
   156   79  200 1    
   157   80   81 1    
   158   80   82 1    
   159   80  201 1    
   160   81  202 1    
   161   81  203 1    
   162   81  204 1    
   163   82   83 2    
   164   82   84 am   BACKBONE|DICT|INTERRES
   165   84   85 1    
   166   84  205 1    
   167   85   86 1    
   168   85   87 1    
   169   85  206 1    
   170   86  207 1    
   171   86  208 1    
   172   86  209 1    
   173   87   88 2    
   174   87   89 am   BACKBONE|DICT|INTERRES
   175   89   90 1    
   176   89  210 1    
   177   90   91 1    
   178   90   92 1    
   179   90  211 1    
   180   91  212 1    
   181   91  213 1    
   182   91  214 1    
   183   92   93 2    
   184   92   94 am   BACKBONE|DICT|INTERRES
   185   94   95 1    
   186   94  215 1    
   187   95   96 1    
   188   95   97 1    
   189   95  216 1    
   190   96  217 1    
   191   96  218 1    
   192   96  219 1    
   193   97   98 2    
   194   97   99 am   BACKBONE|DICT|INTERRES
   195   99  100 1    
   196   99  220 1    
   197  100  101 1    
   198  100  102 1    
   199  100  221 1    
   200  101  222 1    
   201  101  223 1    
   202  101  224 1    
   203  102  103 2    
   204  102  104 am   BACKBONE|DICT|INTERRES
   205  104  105 1    
   206  104  225 1    
   207  105  106 1    
   208  105  107 1    
   209  105  226 1    
   210  106  227 1    
   211  106  228 1    
   212  106  229 1    
   213  107  108 2    
   214  107  109 am   BACKBONE|DICT|INTERRES
   215  109  110 1    
   216  109  230 1    
   217  110  111 1    
   218  110  112 1    
   219  110  231 1    
   220  111  232 1    
   221  111  233 1    
   222  111  234 1    
   223  112  113 2    
   224  112  114 am   BACKBONE|DICT|INTERRES
   225  114  115 1    
   226  114  235 1    
   227  115  116 1    
   228  115  117 1    
   229  115  236 1    
   230  116  237 1    
   231  116  238 1    
   232  116  239 1    
   233  117  118 2    
   234  117  119 am   BACKBONE|DICT|INTERRES
   235  119  120 1    
   236  119  240 1    
   237  120  121 1    
   238  120  124 1    
   239  120  241 1    
   240  121  122 am   BACKBONE|DICT|INTERRES
   241  121  123 2    
   242  122  242 1    
   243  122  243 1    
   244  124  125 1    
   245  124  244 1    
   246  124  245 1    
   247  125  126 1    
   248  126  246 1    
   249  126  247 1    
@<TRIPOS>SUBSTRUCTURE
     1 UNK         1 GROUP             0       ****    0 ROOT    
