@<TRIPOS>MOLECULE
3R540
247   249    1
SMALL
USER_CHARGES


@<TRIPOS>ATOM
      1 CA          4.7829  -16.2962  -49.6995 C.3       0 UNK        -0.1800 
      2 C           3.4864  -16.4031  -48.9119 C.2       0 UNK         0.5000 
      3 O           3.3236  -17.3313  -48.1240 O.2       0 UNK        -0.5000 
      4 N           2.5583  -15.4650  -49.1312 N.am      1 UNK        -0.5000 
      5 CA          1.3200  -15.3069  -48.3614 C.3       1 UNK         0.1400 
      6 C6          0.1573  -14.7837  -49.2451 C.3       23 UNK        -0.0398 
      7 S7         -0.4426  -16.0610  -50.4056 S.3       23 UNK        -0.2404 
      8 C8          0.3444  -15.5798  -51.9790 C.3       23 UNK        -0.0205 
      9 C9          0.8680  -16.8062  -52.7103 C.ar      23 UNK        -0.0193 
     10 C10         0.2281  -17.3115  -53.8448 C.ar      23 UNK        -0.1150 
     11 C11         0.7118  -18.4643  -54.4759 C.ar      23 UNK        -0.0193 
     12 C12         1.8239  -19.1304  -53.9455 C.ar      23 UNK        -0.1150 
     13 C13         2.4670  -18.6325  -52.8086 C.ar      23 UNK        -0.0193 
     14 C14         2.0031  -17.4530  -52.2266 C.ar      23 UNK        -0.1150 
     15 C15         3.6573  -19.3529  -52.1864 C.3       23 UNK        -0.0205 
     16 S16         3.1808  -20.6135  -50.9479 S.3       23 UNK        -0.2404 
     17 C17         1.8189  -19.8161  -50.0306 C.3       23 UNK        -0.0398 
     18 CA          1.5023  -20.4966  -48.6781 C.3       11 UNK         0.1400 
     19 N           2.4447  -20.1348  -47.6075 N.am      11 UNK        -0.5000 
     20 C           2.4835  -20.7571  -46.4188 C.2       10 UNK         0.5000 
     21 O           1.7547  -21.7092  -46.1384 O.2       10 UNK        -0.5000 
     22 CA          3.4521  -20.2413  -45.3341 C.3       10 UNK         0.1400 
     23 CB          4.6421  -19.4125  -45.8610 C.3       10 UNK        -0.1800 
     24 N           2.7392  -19.5255  -44.2711 N.am      10 UNK        -0.5000 
     25 C           1.9761  -18.4322  -44.4123 C.2       9 UNK         0.5000 
     26 O           1.7856  -17.8547  -45.4840 O.2       9 UNK        -0.5000 
     27 CA          1.2836  -17.8839  -43.1534 C.3       9 UNK         0.1400 
     28 CB         -0.1867  -18.3165  -43.1280 C.3       9 UNK        -0.1800 
     29 N           1.8859  -18.2339  -41.8670 N.am      9 UNK        -0.5000 
     30 C           3.1069  -17.8873  -41.4390 C.2       8 UNK         0.5000 
     31 O           3.9583  -17.3601  -42.1524 O.2       8 UNK        -0.5000 
     32 CA          3.4281  -18.1373  -39.9541 C.3       8 UNK         0.1400 
     33 CB          3.3153  -16.8210  -39.1673 C.3       8 UNK        -0.1800 
     34 N           2.5294  -19.1171  -39.3386 N.am      8 UNK        -0.5000 
     35 C           2.8987  -20.3225  -38.8852 C.2       7 UNK         0.5000 
     36 O           4.0476  -20.7599  -38.9625 O.2       7 UNK        -0.5000 
     37 CA          1.8117  -21.1908  -38.2164 C.3       7 UNK         0.1400 
     38 CB          1.8571  -21.0195  -36.6902 C.3       7 UNK        -0.1800 
     39 N           0.4545  -20.9012  -38.6826 N.am      7 UNK        -0.5000 
     40 C          -0.0052  -21.1826  -39.9086 C.2       6 UNK         0.5000 
     41 O           0.6577  -21.7653  -40.7659 O.2       6 UNK        -0.5000 
     42 CA         -1.4349  -20.7136  -40.2498 C.3       6 UNK         0.1400 
     43 CB         -2.4358  -21.8589  -40.0372 C.3       6 UNK        -0.1800 
     44 N          -1.9115  -19.5218  -39.5331 N.am      6 UNK        -0.5000 
     45 C          -1.2914  -18.3357  -39.4684 C.2       5 UNK         0.5000 
     46 O          -0.1450  -18.1355  -39.8718 O.2       5 UNK        -0.5000 
     47 CA         -2.0731  -17.1700  -38.8465 C.3       5 UNK         0.1400 
     48 CB         -1.3159  -16.5900  -37.6411 C.3       5 UNK        -0.1800 
     49 N          -2.2739  -16.1145  -39.8385 N.am      5 UNK        -0.5000 
     50 C          -3.1818  -16.1514  -40.8254 C.2       4 UNK         0.5000 
     51 O          -3.9734  -17.0810  -40.9845 O.2       4 UNK        -0.5000 
     52 CA         -3.2297  -14.9463  -41.7867 C.3       4 UNK         0.1400 
     53 CB         -4.2919  -13.9375  -41.3226 C.3       4 UNK        -0.1800 
     54 N          -1.9371  -14.2639  -41.8851 N.am      4 UNK        -0.5000 
     55 C          -0.9912  -14.5746  -42.7791 C.2       3 UNK         0.5000 
     56 O          -1.1469  -15.3856  -43.6946 O.2       3 UNK        -0.5000 
     57 CA          0.3662  -13.8814  -42.5993 C.3       3 UNK         0.1400 
     58 CB          1.0378  -14.3477  -41.2881 C.3       3 UNK        -0.1800 
     59 N           1.2172  -14.1944  -43.7460 N.am      3 UNK        -0.5000 
     60 C           2.3653  -13.5831  -44.0525 C.2       2 UNK         0.5000 
     61 O           2.8102  -12.6212  -43.4243 O.2       2 UNK        -0.5000 
     62 CA          3.1722  -14.1297  -45.2437 C.3       2 UNK         0.1400 
     63 CB          4.3355  -15.0051  -44.7556 C.3       2 UNK        -0.1800 
     64 N           2.3989  -14.9038  -46.2142 N.am      2 UNK        -0.5000 
     65 C           1.6533  -14.3668  -47.1866 C.2       1 UNK         0.5000 
     66 O           1.3425  -13.1754  -47.2328 O.2       1 UNK        -0.5000 
     67 C           0.0419  -20.2015  -48.2809 C.2       11 UNK         0.5000 
     68 O          -0.8419  -20.9840  -48.6284 O.2       11 UNK        -0.5000 
     69 N          -0.1898  -19.1138  -47.5304 N.am      12 UNK        -0.5000 
     70 CA         -1.5241  -18.6938  -47.0898 C.3       12 UNK         0.1400 
     71 CB         -1.4927  -17.2156  -46.6653 C.3       12 UNK        -0.1800 
     72 C          -2.1518  -19.6032  -46.0117 C.2       12 UNK         0.5000 
     73 O          -3.3315  -19.4374  -45.7003 O.2       12 UNK        -0.5000 
     74 N          -1.3777  -20.5598  -45.4756 N.am      13 UNK        -0.5000 
     75 CA         -1.8717  -21.6191  -44.5956 C.3       13 UNK         0.1400 
     76 CB         -0.6812  -22.3082  -43.9110 C.3       13 UNK        -0.1800 
     77 C          -2.7166  -22.6638  -45.3524 C.2       13 UNK         0.5000 
     78 O          -3.5583  -23.3168  -44.7343 O.2       13 UNK        -0.5000 
     79 N          -2.4754  -22.8129  -46.6625 N.am      14 UNK        -0.5000 
     80 CA         -3.2041  -23.7189  -47.5423 C.3       14 UNK         0.1400 
     81 CB         -2.2363  -24.2619  -48.6060 C.3       14 UNK        -0.1800 
     82 C          -4.3694  -22.9825  -48.2184 C.2       14 UNK         0.5000 
     83 O          -4.2490  -21.8002  -48.5488 O.2       14 UNK        -0.5000 
     84 N          -5.4561  -23.7194  -48.4835 N.am      15 UNK        -0.5000 
     85 CA         -6.6248  -23.2371  -49.2273 C.3       15 UNK         0.1400 
     86 CB         -7.7618  -24.2615  -49.1015 C.3       15 UNK        -0.1800 
     87 C          -6.3237  -22.9489  -50.7112 C.2       15 UNK         0.5000 
     88 O          -7.0346  -22.1583  -51.3312 O.2       15 UNK        -0.5000 
     89 N          -5.2577  -23.5633  -51.2459 N.am      16 UNK        -0.5000 
     90 CA         -4.7677  -23.3835  -52.6123 C.3       16 UNK         0.1400 
     91 CB         -3.5712  -24.3162  -52.8503 C.3       16 UNK        -0.1800 
     92 C          -4.3876  -21.9315  -52.9522 C.2       16 UNK         0.5000 
     93 O          -4.5578  -21.5268  -54.1012 O.2       16 UNK        -0.5000 
     94 N          -3.9126  -21.1699  -51.9565 N.am      17 UNK        -0.5000 
     95 CA         -3.5937  -19.7484  -52.0943 C.3       17 UNK         0.1400 
     96 CB         -2.7489  -19.2957  -50.8970 C.3       17 UNK        -0.1800 
     97 C          -4.8470  -18.8682  -52.2484 C.2       17 UNK         0.5000 
     98 O          -4.8119  -17.8890  -52.9933 O.2       17 UNK        -0.5000 
     99 N          -5.9368  -19.2429  -51.5642 N.am      18 UNK        -0.5000 
    100 CA        -7.2349  -18.5731  -51.6516 C.3       18 UNK         0.1400 
    101 CB        -8.0685  -18.9076  -50.4047 C.3       18 UNK        -0.1800 
    102 C         -7.9884  -18.9589  -52.9366 C.2       18 UNK         0.5000 
    103 O         -8.6073  -18.0987  -53.5636 O.2       18 UNK        -0.5000 
    104 N         -7.9042  -20.2419  -53.3136 N.am      19 UNK        -0.5000 
    105 CA        -8.5121  -20.8058  -54.5204 C.3       19 UNK         0.1400 
    106 CB        -8.5522  -22.3355  -54.3756 C.3       19 UNK        -0.1800 
    107 C         -7.7848  -20.4179  -55.8240 C.2       19 UNK         0.5000 
    108 O         -8.3617  -20.5806  -56.8997 O.2       19 UNK        -0.5000 
    109 N         -6.5320  -19.9516  -55.7066 N.am      20 UNK        -0.5000 
    110 CA        -5.5746  -19.6715  -56.7844 C.3       20 UNK         0.1400 
    111 CB        -6.0753  -18.5425  -57.7086 C.3       20 UNK        -0.1800 
    112 C         -5.1505  -20.9459  -57.5494 C.2       20 UNK         0.5000 
    113 O         -4.8106  -20.8829  -58.7319 O.2       20 UNK        -0.5000 
    114 N         -5.1555  -22.0813  -56.8398 N.am      21 UNK        -0.5000 
    115 CA        -4.6914  -23.3891  -57.3048 C.3       21 UNK         0.1400 
    116 CB        -5.5128  -24.4774  -56.5957 C.3       21 UNK        -0.1800 
    117 C         -3.1834  -23.5907  -57.0496 C.2       21 UNK         0.5000 
    118 O         -2.6128  -24.5729  -57.5243 O.2       21 UNK        -0.5000 
    119 N         -2.5717  -22.6631  -56.3029 N.am      22 UNK        -0.5000 
    120 CA        -1.1431  -22.5943  -55.9623 C.3       22 UNK         0.1400 
    121 C         -0.1591  -22.4342  -57.1614 C.2       22 UNK         0.5000 
    122 N         -0.6108  -22.0651  -58.3540 N.am      22 UNK        -0.7600 
    123 O          1.0386  -22.6525  -57.0028 O.2       22 UNK        -0.5000 
    124 C124       -0.8949  -21.5077  -54.8828 C.3       23 UNK        -0.0398 
    125 S125       -1.5096  -19.8553  -55.3771 S.3       23 UNK        -0.2404 
    126 C126        0.0369  -18.9721  -55.7404 C.3       23 UNK        -0.0205 
    127 H127        4.6433  -15.7451  -50.6298 H         1 UNK         0.0600 
    128 H128        5.5386  -15.7846  -49.1038 H         1 UNK         0.0600 
    129 H129        5.1600  -17.2887  -49.9441 H         1 UNK         0.0600 
    130 H130        2.7650  -14.7136  -49.7733 H         1 UNK         0.3000 
    131 H131        1.0178  -16.2668  -47.9375 H         1 UNK         0.0600 
    132 H132       -0.6910  -14.4970  -48.6214 H         1 UNK         0.0800 
    133 H133        0.4447  -13.8822  -49.7884 H         1 UNK         0.0800 
    134 H134       -0.3778  -15.0386  -52.5918 H         1 UNK         0.0800 
    135 H135        1.1741  -14.8953  -51.7992 H         1 UNK         0.0800 
    136 H136       -0.6465  -16.8121  -54.2375 H         1 UNK         0.1150 
    137 H137        2.1898  -20.0324  -54.4156 H         1 UNK         0.1150 
    138 H138        2.5016  -17.0566  -51.3596 H         1 UNK         0.1150 
    139 H139        4.3222  -18.6294  -51.7145 H         1 UNK         0.0800 
    140 H140        4.2471  -19.8337  -52.9680 H         1 UNK         0.0800 
    141 H141        0.9521  -19.8420  -50.6954 H         1 UNK         0.0800 
    142 H142        2.0413  -18.7644  -49.8680 H         1 UNK         0.0800 
    143 H143        1.5670  -21.5775  -48.8224 H         1 UNK         0.0600 
    144 H144        2.9951  -19.2916  -47.7458 H         1 UNK         0.3000 
    145 H145        3.8715  -21.1361  -44.8719 H         1 UNK         0.0600 
    146 H146        5.4178  -19.3334  -45.0995 H         1 UNK         0.0600 
    147 H147        5.0980  -19.8757  -46.7369 H         1 UNK         0.0600 
    148 H148        4.3566  -18.3973  -46.1266 H         1 UNK         0.0600 
    149 H149        2.8029  -19.9304  -43.3483 H         1 UNK         0.3000 
    150 H150        1.3164  -16.7997  -43.2363 H         1 UNK         0.0600 
    151 H151       -0.2855  -19.3848  -42.9535 H         1 UNK         0.0600 
    152 H152       -0.6819  -18.0898  -44.0678 H         1 UNK         0.0600 
    153 H153       -0.7445  -17.7899  -42.3560 H         1 UNK         0.0600 
    154 H154        1.2364  -18.5820  -41.1714 H         1 UNK         0.3000 
    155 H155        4.4647  -18.4761  -39.9031 H         1 UNK         0.0600 
    156 H156        2.2942  -16.4369  -39.1717 H         1 UNK         0.0600 
    157 H157        3.9590  -16.0503  -39.5935 H         1 UNK         0.0600 
    158 H158        3.6161  -16.9577  -38.1285 H         1 UNK         0.0600 
    159 H159        1.5545  -18.8428  -39.2643 H         1 UNK         0.3000 
    160 H160        2.0357  -22.2340  -38.4493 H         1 UNK         0.0600 
    161 H161        1.6219  -19.9966  -36.3931 H         1 UNK         0.0600 
    162 H162        2.8480  -21.2551  -36.2995 H         1 UNK         0.0600 
    163 H163        1.1485  -21.6850  -36.1967 H         1 UNK         0.0600 
    164 H164       -0.1554  -20.4159  -38.0415 H         1 UNK         0.3000 
    165 H165       -1.4423  -20.4659  -41.3114 H         1 UNK         0.0600 
    166 H166       -3.4287  -21.5882  -40.3970 H         1 UNK         0.0600 
    167 H167       -2.5203  -22.1276  -38.9835 H         1 UNK         0.0600 
    168 H168       -2.1297  -22.7536  -40.5814 H         1 UNK         0.0600 
    169 H169       -2.8489  -19.5852  -39.1630 H         1 UNK         0.3000 
    170 H170       -3.0459  -17.5263  -38.5010 H         1 UNK         0.0600 
    171 H171       -1.1500  -17.3538  -36.8803 H         1 UNK         0.0600 
    172 H172       -0.3399  -16.1945  -37.9267 H         1 UNK         0.0600 
    173 H173       -1.8799  -15.7830  -37.1733 H         1 UNK         0.0600 
    174 H174       -1.6325  -15.3384  -39.7994 H         1 UNK         0.3000 
    175 H175       -3.5273  -15.3187  -42.7695 H         1 UNK         0.0600 
    176 H176       -4.0586  -13.5280  -40.3389 H         1 UNK         0.0600 
    177 H177       -4.3760  -13.1052  -42.0217 H         1 UNK         0.0600 
    178 H178       -5.2745  -14.4069  -41.2582 H         1 UNK         0.0600 
    179 H179       -1.7453  -13.5570  -41.1899 H         1 UNK         0.3000 
    180 H180        0.1995  -12.8028  -42.5681 H         1 UNK         0.0600 
    181 H181        1.1417  -15.4321  -41.2527 H         1 UNK         0.0600 
    182 H182        0.4542  -14.0502  -40.4168 H         1 UNK         0.0600 
    183 H183        2.0304  -13.9158  -41.1625 H         1 UNK         0.0600 
    184 H184        0.8626  -14.9312  -44.3432 H         1 UNK         0.3000 
    185 H185        3.6017  -13.2664  -45.7568 H         1 UNK         0.0600 
    186 H186        5.0054  -15.2621  -45.5764 H         1 UNK         0.0600 
    187 H187        4.9298  -14.4927  -43.9979 H         1 UNK         0.0600 
    188 H188        3.9748  -15.9359  -44.3196 H         1 UNK         0.0600 
    189 H189        2.5820  -15.9019  -46.2466 H         1 UNK         0.3000 
    190 H190        0.5970  -18.5658  -47.2005 H         1 UNK         0.3000 
    191 H191       -2.1937  -18.7602  -47.9490 H         1 UNK         0.0600 
    192 H192       -1.4255  -16.5700  -47.5385 H         1 UNK         0.0600 
    193 H193       -0.6475  -16.9846  -46.0197 H         1 UNK         0.0600 
    194 H194       -2.3998  -16.9285  -46.1319 H         1 UNK         0.0600 
    195 H195       -0.4218  -20.6456  -45.7932 H         1 UNK         0.3000 
    196 H196       -2.4973  -21.1643  -43.8245 H         1 UNK         0.0600 
    197 H197       -0.0970  -22.8976  -44.6183 H         1 UNK         0.0600 
    198 H198       -0.0067  -21.5913  -43.4456 H         1 UNK         0.0600 
    199 H199       -1.0237  -22.9865  -43.1286 H         1 UNK         0.0600 
    200 H200       -1.8337  -22.1774  -47.1226 H         1 UNK         0.3000 
    201 H201       -3.5944  -24.5623  -46.9687 H         1 UNK         0.0600 
    202 H202       -1.8441  -23.4658  -49.2405 H         1 UNK         0.0600 
    203 H203       -2.7314  -24.9846  -49.2555 H         1 UNK         0.0600 
    204 H204       -1.3884  -24.7686  -48.1448 H         1 UNK         0.0600 
    205 H205       -5.4816  -24.6842  -48.1853 H         1 UNK         0.3000 
    206 H206       -6.9551  -22.3001  -48.7738 H         1 UNK         0.0600 
    207 H207       -8.0378  -24.4188  -48.0586 H         1 UNK         0.0600 
    208 H208       -8.6558  -23.9184  -49.6242 H         1 UNK         0.0600 
    209 H209       -7.4837  -25.2269  -49.5260 H         1 UNK         0.0600 
    210 H210       -4.7392  -24.2010  -50.6615 H         1 UNK         0.3000 
    211 H211       -5.5728  -23.6778  -53.2866 H         1 UNK         0.0600 
    212 H212       -3.1973  -24.2225  -53.8705 H         1 UNK         0.0600 
    213 H213       -3.8492  -25.3601  -52.7041 H         1 UNK         0.0600 
    214 H214       -2.7441  -24.0903  -52.1759 H         1 UNK         0.0600 
    215 H215       -3.8170  -21.5702  -51.0330 H         1 UNK         0.3000 
    216 H216       -2.9927  -19.6150  -52.9928 H         1 UNK         0.0600 
    217 H217       -3.2560  -19.4915  -49.9519 H         1 UNK         0.0600 
    218 H218       -2.5379  -18.2271  -50.9462 H         1 UNK         0.0600 
    219 H219       -1.7901  -19.8130  -50.8805 H         1 UNK         0.0600 
    220 H220       -5.8977  -20.0876  -51.0116 H         1 UNK         0.3000 
    221 H221       -7.0728  -17.4931  -51.6679 H         1 UNK         0.0600 
    222 H222       -7.5565  -18.5968  -49.4938 H         1 UNK         0.0600 
    223 H223       -8.2733  -19.9757  -50.3258 H         1 UNK         0.0600 
    224 H224       -9.0291  -18.3916  -50.4297 H         1 UNK         0.0600 
    225 H225       -7.4350  -20.8973  -52.6938 H         1 UNK         0.3000 
    226 H226       -9.5384  -20.4403  -54.5933 H         1 UNK         0.0600 
    227 H227       -7.5493  -22.7578  -54.3120 H         1 UNK         0.0600 
    228 H228       -9.0985  -22.6339  -53.4806 H         1 UNK         0.0600 
    229 H229       -9.0491  -22.7980  -55.2294 H         1 UNK         0.0600 
    230 H230       -6.1479  -19.9024  -54.7724 H         1 UNK         0.3000 
    231 H231       -4.6721  -19.3095  -56.2893 H         1 UNK         0.0600 
    232 H232       -6.9275  -18.8563  -58.3117 H         1 UNK         0.0600 
    233 H233       -5.2903  -18.2259  -58.3961 H         1 UNK         0.0600 
    234 H234       -6.3742  -17.6663  -57.1333 H         1 UNK         0.0600 
    235 H235       -5.3603  -22.0032  -55.8493 H         1 UNK         0.3000 
    236 H236       -4.8616  -23.4748  -58.3799 H         1 UNK         0.0600 
    237 H237       -6.5803  -24.3442  -56.7727 H         1 UNK         0.0600 
    238 H238       -5.2444  -25.4695  -56.9607 H         1 UNK         0.0600 
    239 H239       -5.3476  -24.4694  -55.5188 H         1 UNK         0.0600 
    240 H240       -3.1340  -21.9050  -55.9405 H         1 UNK         0.3000 
    241 H241       -0.8930  -23.5568  -55.5126 H         1 UNK         0.0600 
    242 H242        0.0346  -21.9696  -59.1220 H         1 UNK         0.3800 
    243 H243       -1.5902  -21.8762  -58.4946 H         1 UNK         0.3800 
    244 H244        0.1606  -21.4569  -54.6126 H         1 UNK         0.0800 
    245 H245       -1.4124  -21.7867  -53.9642 H         1 UNK         0.0800 
    246 H246        0.7090  -19.6148  -56.3109 H         1 UNK         0.0800 
    247 H247       -0.1909  -18.1246  -56.3884 H         1 UNK         0.0800 
@<TRIPOS>BOND
     1    1    2 1    
     2    1  127 1    
     3    1  128 1    
     4    1  129 1    
     5    2    3 2    
     6    2    4 am   BACKBONE|DICT|INTERRES
     7    4    5 1    
     8    4  130 1    
     9    5    6 1    
    10    5   65 1    
    11    5  131 1    
    12    6    7 1    
    13    6  132 1    
    14    6  133 1    
    15    7    8 1    
    16    8    9 1    
    17    8  134 1    
    18    8  135 1    
    19    9   10 ar   
    20    9   14 ar   
    21   10   11 ar   
    22   10  136 1    
    23   11   12 ar   
    24   11  126 1    
    25   12   13 ar   
    26   12  137 1    
    27   13   14 ar   
    28   13   15 1    
    29   14  138 1    
    30   15   16 1    
    31   15  139 1    
    32   15  140 1    
    33   16   17 1    
    34   17   18 1    
    35   17  141 1    
    36   17  142 1    
    37   18   19 1    
    38   18   67 1    
    39   18  143 1    
    40   19   20 am   BACKBONE|DICT|INTERRES
    41   19  144 1    
    42   20   21 2    
    43   20   22 1    
    44   22   23 1    
    45   22   24 1    
    46   22  145 1    
    47   23  146 1    
    48   23  147 1    
    49   23  148 1    
    50   24   25 am   BACKBONE|DICT|INTERRES
    51   24  149 1    
    52   25   26 2    
    53   25   27 1    
    54   27   28 1    
    55   27   29 1    
    56   27  150 1    
    57   28  151 1    
    58   28  152 1    
    59   28  153 1    
    60   29   30 am   BACKBONE|DICT|INTERRES
    61   29  154 1    
    62   30   31 2    
    63   30   32 1    
    64   32   33 1    
    65   32   34 1    
    66   32  155 1    
    67   33  156 1    
    68   33  157 1    
    69   33  158 1    
    70   34   35 am   BACKBONE|DICT|INTERRES
    71   34  159 1    
    72   35   36 2    
    73   35   37 1    
    74   37   38 1    
    75   37   39 1    
    76   37  160 1    
    77   38  161 1    
    78   38  162 1    
    79   38  163 1    
    80   39   40 am   BACKBONE|DICT|INTERRES
    81   39  164 1    
    82   40   41 2    
    83   40   42 1    
    84   42   43 1    
    85   42   44 1    
    86   42  165 1    
    87   43  166 1    
    88   43  167 1    
    89   43  168 1    
    90   44   45 am   BACKBONE|DICT|INTERRES
    91   44  169 1    
    92   45   46 2    
    93   45   47 1    
    94   47   48 1    
    95   47   49 1    
    96   47  170 1    
    97   48  171 1    
    98   48  172 1    
    99   48  173 1    
   100   49   50 am   BACKBONE|DICT|INTERRES
   101   49  174 1    
   102   50   51 2    
   103   50   52 1    
   104   52   53 1    
   105   52   54 1    
   106   52  175 1    
   107   53  176 1    
   108   53  177 1    
   109   53  178 1    
   110   54   55 am   BACKBONE|DICT|INTERRES
   111   54  179 1    
   112   55   56 2    
   113   55   57 1    
   114   57   58 1    
   115   57   59 1    
   116   57  180 1    
   117   58  181 1    
   118   58  182 1    
   119   58  183 1    
   120   59   60 am   BACKBONE|DICT|INTERRES
   121   59  184 1    
   122   60   61 2    
   123   60   62 1    
   124   62   63 1    
   125   62   64 1    
   126   62  185 1    
   127   63  186 1    
   128   63  187 1    
   129   63  188 1    
   130   64   65 am   BACKBONE|DICT|INTERRES
   131   64  189 1    
   132   65   66 2    
   133   67   68 2    
   134   67   69 am   BACKBONE|DICT|INTERRES
   135   69   70 1    
   136   69  190 1    
   137   70   71 1    
   138   70   72 1    
   139   70  191 1    
   140   71  192 1    
   141   71  193 1    
   142   71  194 1    
   143   72   73 2    
   144   72   74 am   BACKBONE|DICT|INTERRES
   145   74   75 1    
   146   74  195 1    
   147   75   76 1    
   148   75   77 1    
   149   75  196 1    
   150   76  197 1    
   151   76  198 1    
   152   76  199 1    
   153   77   78 2    
   154   77   79 am   BACKBONE|DICT|INTERRES
   155   79   80 1    
   156   79  200 1    
   157   80   81 1    
   158   80   82 1    
   159   80  201 1    
   160   81  202 1    
   161   81  203 1    
   162   81  204 1    
   163   82   83 2    
   164   82   84 am   BACKBONE|DICT|INTERRES
   165   84   85 1    
   166   84  205 1    
   167   85   86 1    
   168   85   87 1    
   169   85  206 1    
   170   86  207 1    
   171   86  208 1    
   172   86  209 1    
   173   87   88 2    
   174   87   89 am   BACKBONE|DICT|INTERRES
   175   89   90 1    
   176   89  210 1    
   177   90   91 1    
   178   90   92 1    
   179   90  211 1    
   180   91  212 1    
   181   91  213 1    
   182   91  214 1    
   183   92   93 2    
   184   92   94 am   BACKBONE|DICT|INTERRES
   185   94   95 1    
   186   94  215 1    
   187   95   96 1    
   188   95   97 1    
   189   95  216 1    
   190   96  217 1    
   191   96  218 1    
   192   96  219 1    
   193   97   98 2    
   194   97   99 am   BACKBONE|DICT|INTERRES
   195   99  100 1    
   196   99  220 1    
   197  100  101 1    
   198  100  102 1    
   199  100  221 1    
   200  101  222 1    
   201  101  223 1    
   202  101  224 1    
   203  102  103 2    
   204  102  104 am   BACKBONE|DICT|INTERRES
   205  104  105 1    
   206  104  225 1    
   207  105  106 1    
   208  105  107 1    
   209  105  226 1    
   210  106  227 1    
   211  106  228 1    
   212  106  229 1    
   213  107  108 2    
   214  107  109 am   BACKBONE|DICT|INTERRES
   215  109  110 1    
   216  109  230 1    
   217  110  111 1    
   218  110  112 1    
   219  110  231 1    
   220  111  232 1    
   221  111  233 1    
   222  111  234 1    
   223  112  113 2    
   224  112  114 am   BACKBONE|DICT|INTERRES
   225  114  115 1    
   226  114  235 1    
   227  115  116 1    
   228  115  117 1    
   229  115  236 1    
   230  116  237 1    
   231  116  238 1    
   232  116  239 1    
   233  117  118 2    
   234  117  119 am   BACKBONE|DICT|INTERRES
   235  119  120 1    
   236  119  240 1    
   237  120  121 1    
   238  120  124 1    
   239  120  241 1    
   240  121  122 am   BACKBONE|DICT|INTERRES
   241  121  123 2    
   242  122  242 1    
   243  122  243 1    
   244  124  125 1    
   245  124  244 1    
   246  124  245 1    
   247  125  126 1    
   248  126  246 1    
   249  126  247 1    
@<TRIPOS>SUBSTRUCTURE
     1 UNK         1 GROUP             0       ****    0 ROOT    
