@<TRIPOS>MOLECULE
3R540
247   249    1
SMALL
USER_CHARGES


@<TRIPOS>ATOM
      1 CA         -1.2940   -7.9091  -48.1642 C.3       0 UNK        -0.1800 
      2 C          -0.5865   -9.2033  -47.7888 C.2       0 UNK         0.5000 
      3 O          -0.8170   -9.7321  -46.7037 O.2       0 UNK        -0.5000 
      4 N           0.2825   -9.7042  -48.6768 N.am      1 UNK        -0.5000 
      5 CA          1.0725  -10.9418  -48.5591 C.3       1 UNK         0.1400 
      6 C6          0.2105  -12.2013  -48.2490 C.3       23 UNK        -0.0398 
      7 S7          0.7610  -13.6739  -49.1701 S.3       23 UNK        -0.2404 
      8 C8         -0.3946  -14.9278  -48.5400 C.3       23 UNK        -0.0205 
      9 C9         -0.2506  -16.2306  -49.3105 C.ar      23 UNK        -0.0193 
     10 C10        -0.9120  -16.3935  -50.5310 C.ar      23 UNK        -0.1150 
     11 C11        -0.7751  -17.5751  -51.2650 C.ar      23 UNK        -0.0193 
     12 C12         0.0186  -18.6081  -50.7543 C.ar      23 UNK        -0.1150 
     13 C13         0.6995  -18.4532  -49.5414 C.ar      23 UNK        -0.0193 
     14 C14         0.5551  -17.2629  -48.8207 C.ar      23 UNK        -0.1150 
     15 C15         1.6294  -19.5525  -49.0388 C.3       23 UNK        -0.0205 
     16 S16         1.1009  -20.2618  -47.4471 S.3       23 UNK        -0.2404 
     17 C17        -0.5364  -20.9341  -47.8729 C.3       23 UNK        -0.0398 
     18 CA         -0.7915  -22.3533  -47.3202 C.3       11 UNK         0.1400 
     19 N          -0.6703  -22.4527  -45.8626 N.am      11 UNK        -0.5000 
     20 C          -0.7605  -23.5999  -45.1731 C.2       10 UNK         0.5000 
     21 O          -0.8893  -24.7059  -45.7018 O.2       10 UNK        -0.5000 
     22 CA         -0.7853  -23.4864  -43.6403 C.3       10 UNK         0.1400 
     23 CB          0.6391  -23.5054  -43.0671 C.3       10 UNK        -0.1800 
     24 N          -1.4851  -22.2792  -43.1965 N.am      10 UNK        -0.5000 
     25 C          -2.8124  -22.1052  -43.2657 C.2       9 UNK         0.5000 
     26 O          -3.5890  -22.9635  -43.6827 O.2       9 UNK        -0.5000 
     27 CA         -3.3568  -20.7233  -42.8577 C.3       9 UNK         0.1400 
     28 CB         -3.4020  -20.5834  -41.3290 C.3       9 UNK        -0.1800 
     29 N          -2.5765  -19.6234  -43.4252 N.am      9 UNK        -0.5000 
     30 C          -2.4759  -19.3635  -44.7362 C.2       8 UNK         0.5000 
     31 O          -3.0924  -19.9847  -45.6015 O.2       8 UNK        -0.5000 
     32 CA         -1.4927  -18.2542  -45.1602 C.3       8 UNK         0.1400 
     33 CB         -2.2244  -16.9116  -45.2885 C.3       8 UNK        -0.1800 
     34 N          -0.3190  -18.0883  -44.2966 N.am      8 UNK        -0.5000 
     35 C           0.5431  -19.0477  -43.9255 C.2       7 UNK         0.5000 
     36 O           0.3728  -20.2445  -44.1533 O.2       7 UNK        -0.5000 
     37 CA          1.8136  -18.6113  -43.1744 C.3       7 UNK         0.1400 
     38 CB          3.0320  -18.6859  -44.1082 C.3       7 UNK        -0.1800 
     39 N           1.7167  -17.2591  -42.6245 N.am      7 UNK        -0.5000 
     40 C           1.1143  -16.9421  -41.4702 C.2       6 UNK         0.5000 
     41 O           0.5860  -17.7682  -40.7258 O.2       6 UNK        -0.5000 
     42 CA          1.0884  -15.4484  -41.0917 C.3       6 UNK         0.1400 
     43 CB          2.3107  -15.0885  -40.2340 C.3       6 UNK        -0.1800 
     44 N           1.0557  -14.5770  -42.2675 N.am      6 UNK        -0.5000 
     45 C          -0.0253  -14.3925  -43.0399 C.2       5 UNK         0.5000 
     46 O          -1.1284  -14.8776  -42.7928 O.2       5 UNK        -0.5000 
     47 CA          0.1655  -13.5583  -44.3222 C.3       5 UNK         0.1400 
     48 CB         -0.1570  -12.0846  -44.0441 C.3       5 UNK        -0.1800 
     49 N           1.5172  -13.6721  -44.8794 N.am      5 UNK        -0.5000 
     50 C           2.0399  -14.8138  -45.3562 C.2       4 UNK         0.5000 
     51 O           1.3946  -15.8569  -45.4416 O.2       4 UNK        -0.5000 
     52 CA          3.5323  -14.8347  -45.7401 C.3       4 UNK         0.1400 
     53 CB          3.7285  -15.0817  -47.2428 C.3       4 UNK        -0.1800 
     54 N           4.2546  -13.6284  -45.3343 N.am      4 UNK        -0.5000 
     55 C           4.6199  -13.3599  -44.0720 C.2       3 UNK         0.5000 
     56 O           4.3858  -14.1131  -43.1259 O.2       3 UNK        -0.5000 
     57 CA          5.3267  -12.0145  -43.8111 C.3       3 UNK         0.1400 
     58 CB          6.8515  -12.1988  -43.8242 C.3       3 UNK        -0.1800 
     59 N           4.9641  -10.9597  -44.7619 N.am      3 UNK        -0.5000 
     60 C           3.7354  -10.4437  -44.9022 C.2       2 UNK         0.5000 
     61 O           2.7719  -10.8107  -44.2292 O.2       2 UNK        -0.5000 
     62 CA          3.5273   -9.3590  -45.9824 C.3       2 UNK         0.1400 
     63 CB          4.8010   -9.0095  -46.7850 C.3       2 UNK        -0.1800 
     64 N           2.4320   -9.7003  -46.8971 N.am      2 UNK        -0.5000 
     65 C           2.3062  -10.8182  -47.6293 C.2       1 UNK         0.5000 
     66 O           3.1445  -11.7199  -47.6212 O.2       1 UNK        -0.5000 
     67 C          -2.1606  -22.8484  -47.8271 C.2       11 UNK         0.5000 
     68 O          -2.2324  -23.3457  -48.9478 O.2       11 UNK        -0.5000 
     69 N          -3.2196  -22.6892  -47.0242 N.am      12 UNK        -0.5000 
     70 CA         -4.5583  -23.1823  -47.3287 C.3       12 UNK         0.1400 
     71 CB         -5.6066  -22.2736  -46.6677 C.3       12 UNK        -0.1800 
     72 C          -4.7317  -24.6410  -46.8799 C.2       12 UNK         0.5000 
     73 O          -5.1914  -25.4641  -47.6702 O.2       12 UNK        -0.5000 
     74 N          -4.3775  -24.9303  -45.6207 N.am      13 UNK        -0.5000 
     75 CA         -4.6389  -26.2138  -44.9710 C.3       13 UNK         0.1400 
     76 CB         -4.4847  -26.0563  -43.4503 C.3       13 UNK        -0.1800 
     77 C          -3.7614  -27.3701  -45.4775 C.2       13 UNK         0.5000 
     78 O          -4.2754  -28.4769  -45.6471 O.2       13 UNK        -0.5000 
     79 N          -2.4620  -27.1132  -45.6755 N.am      14 UNK        -0.5000 
     80 CA         -1.4759  -28.1383  -46.0133 C.3       14 UNK         0.1400 
     81 CB         -0.2319  -27.9746  -45.1229 C.3       14 UNK        -0.1800 
     82 C          -1.1011  -28.0872  -47.4993 C.2       14 UNK         0.5000 
     83 O          -1.1810  -29.1133  -48.1761 O.2       14 UNK        -0.5000 
     84 N          -0.6825  -26.9084  -47.9814 N.am      15 UNK        -0.5000 
     85 CA         -0.1642  -26.7450  -49.3441 C.3       15 UNK         0.1400 
     86 CB          0.7225  -25.4924  -49.4088 C.3       15 UNK        -0.1800 
     87 C          -1.2672  -26.6678  -50.4152 C.2       15 UNK         0.5000 
     88 O          -1.0136  -27.0263  -51.5651 O.2       15 UNK        -0.5000 
     89 N          -2.4464  -26.1603  -50.0257 N.am      16 UNK        -0.5000 
     90 CA         -3.6090  -25.8314  -50.8636 C.3       16 UNK         0.1400 
     91 CB         -4.1904  -27.0896  -51.5382 C.3       16 UNK        -0.1800 
     92 C          -3.3634  -24.6840  -51.8712 C.2       16 UNK         0.5000 
     93 O          -4.2135  -24.4276  -52.7239 O.2       16 UNK        -0.5000 
     94 N          -2.2385  -23.9725  -51.7287 N.am      17 UNK        -0.5000 
     95 CA         -1.8477  -22.8184  -52.5316 C.3       17 UNK         0.1400 
     96 CB         -0.3899  -22.4490  -52.2178 C.3       17 UNK        -0.1800 
     97 C          -2.7738  -21.6171  -52.2985 C.2       17 UNK         0.5000 
     98 O          -3.2258  -21.0087  -53.2661 O.2       17 UNK        -0.5000 
     99 N          -3.0800  -21.3227  -51.0264 N.am      18 UNK        -0.5000 
    100 CA        -4.0017  -20.2450  -50.6513 C.3       18 UNK         0.1400 
    101 CB        -3.6812  -19.7223  -49.2455 C.3       18 UNK        -0.1800 
    102 C         -5.4787  -20.6525  -50.7873 C.2       18 UNK         0.5000 
    103 O         -6.3271  -19.7733  -50.9287 O.2       18 UNK        -0.5000 
    104 N         -5.7619  -21.9637  -50.8167 N.am      19 UNK        -0.5000 
    105 CA        -7.0793  -22.5066  -51.1632 C.3       19 UNK         0.1400 
    106 CB        -7.1592  -23.9857  -50.7562 C.3       19 UNK        -0.1800 
    107 C         -7.3861  -22.3184  -52.6632 C.2       19 UNK         0.5000 
    108 O         -8.5154  -21.9838  -53.0200 O.2       19 UNK        -0.5000 
    109 N         -6.3525  -22.4704  -53.5036 N.am      20 UNK        -0.5000 
    110 CA        -6.3579  -22.1448  -54.9321 C.3       20 UNK         0.1400 
    111 CB        -5.2642  -22.9776  -55.6208 C.3       20 UNK        -0.1800 
    112 C         -6.1491  -20.6396  -55.2156 C.2       20 UNK         0.5000 
    113 O         -6.1400  -20.2434  -56.3825 O.2       20 UNK        -0.5000 
    114 N         -5.9470  -19.8355  -54.1596 N.am      21 UNK        -0.5000 
    115 CA        -5.6884  -18.3904  -54.1560 C.3       21 UNK         0.1400 
    116 CB        -6.9644  -17.6226  -54.5564 C.3       21 UNK        -0.1800 
    117 C         -4.4551  -17.9799  -54.9912 C.2       21 UNK         0.5000 
    118 O         -4.4437  -16.8972  -55.5794 O.2       21 UNK        -0.5000 
    119 N         -3.4491  -18.8647  -55.0422 N.am      22 UNK        -0.5000 
    120 CA        -2.2428  -18.7786  -55.8821 C.3       22 UNK         0.1400 
    121 C         -2.5263  -18.8164  -57.4194 C.2       22 UNK         0.5000 
    122 N         -3.7005  -19.2424  -57.8736 N.am      22 UNK        -0.7600 
    123 O         -1.6566  -18.4945  -58.2248 O.2       22 UNK        -0.5000 
    124 C124       -1.2932  -17.6211  -55.4486 C.3       23 UNK        -0.0398 
    125 S125       -0.3015  -18.0207  -53.9673 S.3       23 UNK        -0.2404 
    126 C126       -1.4773  -17.7225  -52.6099 C.3       23 UNK        -0.0205 
    127 H127       -1.0712   -7.1333  -47.4317 H         1 UNK         0.0600 
    128 H128       -2.3728   -8.0636  -48.1809 H         1 UNK         0.0600 
    129 H129       -0.9871   -7.5483  -49.1462 H         1 UNK         0.0600 
    130 H130        0.4317   -9.1959  -49.5380 H         1 UNK         0.3000 
    131 H131        1.4920  -11.0648  -49.5588 H         1 UNK         0.0600 
    132 H132       -0.8275  -12.0285  -48.5365 H         1 UNK         0.0800 
    133 H133        0.1895  -12.4208  -47.1810 H         1 UNK         0.0800 
    134 H134       -0.2106  -15.0912  -47.4781 H         1 UNK         0.0800 
    135 H135       -1.4185  -14.5610  -48.6254 H         1 UNK         0.0800 
    136 H136       -1.5212  -15.5878  -50.9160 H         1 UNK         0.1150 
    137 H137        0.1303  -19.5203  -51.3227 H         1 UNK         0.1150 
    138 H138        1.0786  -17.1376  -47.8828 H         1 UNK         0.1150 
    139 H139        1.7180  -20.3547  -49.7731 H         1 UNK         0.0800 
    140 H140        2.6308  -19.1369  -48.9196 H         1 UNK         0.0800 
    141 H141       -0.6316  -20.9411  -48.9599 H         1 UNK         0.0800 
    142 H142       -1.2942  -20.2414  -47.5145 H         1 UNK         0.0800 
    143 H143       -0.0305  -23.0113  -47.7393 H         1 UNK         0.0600 
    144 H144       -0.4923  -21.5921  -45.3535 H         1 UNK         0.3000 
    145 H145       -1.3181  -24.3564  -43.2507 H         1 UNK         0.0600 
    146 H146        0.6263  -23.4604  -41.9781 H         1 UNK         0.0600 
    147 H147        1.1579  -24.4227  -43.3487 H         1 UNK         0.0600 
    148 H148        1.2354  -22.6682  -43.4309 H         1 UNK         0.0600 
    149 H149       -0.9017  -21.4861  -42.9619 H         1 UNK         0.3000 
    150 H150       -4.3776  -20.6437  -43.2378 H         1 UNK         0.0600 
    151 H151       -3.9863  -21.3882  -40.8808 H         1 UNK         0.0600 
    152 H152       -3.8665  -19.6424  -41.0334 H         1 UNK         0.0600 
    153 H153       -2.4041  -20.6173  -40.8897 H         1 UNK         0.0600 
    154 H154       -2.0262  -19.0700  -42.7848 H         1 UNK         0.3000 
    155 H155       -1.1104  -18.5089  -46.1476 H         1 UNK         0.0600 
    156 H156       -2.6223  -16.5785  -44.3295 H         1 UNK         0.0600 
    157 H157       -3.0612  -16.9877  -45.9840 H         1 UNK         0.0600 
    158 H158       -1.5597  -16.1352  -45.6662 H         1 UNK         0.0600 
    159 H159       -0.0511  -17.1338  -44.1016 H         1 UNK         0.3000 
    160 H160        1.9708  -19.3169  -42.3558 H         1 UNK         0.0600 
    161 H161        2.9151  -18.0402  -44.9789 H         1 UNK         0.0600 
    162 H162        3.1757  -19.7023  -44.4776 H         1 UNK         0.0600 
    163 H163        3.9469  -18.3952  -43.5918 H         1 UNK         0.0600 
    164 H164        2.0942  -16.5153  -43.1925 H         1 UNK         0.3000 
    165 H165        0.1897  -15.2689  -40.4976 H         1 UNK         0.0600 
    166 H166        2.2765  -14.0463  -39.9161 H         1 UNK         0.0600 
    167 H167        2.3495  -15.7020  -39.3329 H         1 UNK         0.0600 
    168 H168        3.2441  -15.2430  -40.7771 H         1 UNK         0.0600 
    169 H169        1.9288  -14.1452  -42.5387 H         1 UNK         0.3000 
    170 H170       -0.5369  -13.9265  -45.0724 H         1 UNK         0.0600 
    171 H171       -1.2053  -11.9603  -43.7702 H         1 UNK         0.0600 
    172 H172        0.4441  -11.6881  -43.2251 H         1 UNK         0.0600 
    173 H173        0.0272  -11.4651  -44.9204 H         1 UNK         0.0600 
    174 H174        2.1030  -12.8478  -44.8201 H         1 UNK         0.3000 
    175 H175        3.9746  -15.6841  -45.2154 H         1 UNK         0.0600 
    176 H176        3.3185  -14.2733  -47.8446 H         1 UNK         0.0600 
    177 H177        4.7852  -15.1801  -47.4910 H         1 UNK         0.0600 
    178 H178        3.2357  -16.0028  -47.5560 H         1 UNK         0.0600 
    179 H179        4.4122  -12.9334  -46.0534 H         1 UNK         0.3000 
    180 H180        5.0318  -11.6804  -42.8142 H         1 UNK         0.0600 
    181 H181        7.2110  -12.5085  -44.8063 H         1 UNK         0.0600 
    182 H182        7.1592  -12.9608  -43.1066 H         1 UNK         0.0600 
    183 H183        7.3635  -11.2751  -43.5540 H         1 UNK         0.0600 
    184 H184        5.7005  -10.6199  -45.3632 H         1 UNK         0.3000 
    185 H185        3.2154   -8.4600  -45.4493 H         1 UNK         0.0600 
    186 H186        5.5961   -8.6493  -46.1311 H         1 UNK         0.0600 
    187 H187        5.1847   -9.8650  -47.3424 H         1 UNK         0.0600 
    188 H188        4.5995   -8.2152  -47.5038 H         1 UNK         0.0600 
    189 H189        1.6717   -9.0371  -46.9367 H         1 UNK         0.3000 
    190 H190       -3.0985  -22.2035  -46.1444 H         1 UNK         0.3000 
    191 H191       -4.7234  -23.1439  -48.4068 H         1 UNK         0.0600 
    192 H192       -5.5343  -21.2516  -47.0390 H         1 UNK         0.0600 
    193 H193       -6.6170  -22.6248  -46.8808 H         1 UNK         0.0600 
    194 H194       -5.4906  -22.2397  -45.5840 H         1 UNK         0.0600 
    195 H195       -4.0241  -24.1887  -45.0207 H         1 UNK         0.3000 
    196 H196       -5.6787  -26.4816  -45.1710 H         1 UNK         0.0600 
    197 H197       -4.7054  -26.9917  -42.9346 H         1 UNK         0.0600 
    198 H198       -5.1684  -25.3017  -43.0609 H         1 UNK         0.0600 
    199 H199       -3.4709  -25.7614  -43.1771 H         1 UNK         0.0600 
    200 H200       -2.1103  -26.1668  -45.5628 H         1 UNK         0.3000 
    201 H201       -1.8791  -29.1332  -45.8125 H         1 UNK         0.0600 
    202 H202       -0.4936  -28.0475  -44.0672 H         1 UNK         0.0600 
    203 H203        0.2653  -27.0171  -45.2767 H         1 UNK         0.0600 
    204 H204        0.4989  -28.7570  -45.3307 H         1 UNK         0.0600 
    205 H205       -0.6404  -26.1091  -47.3599 H         1 UNK         0.3000 
    206 H206        0.4653  -27.6063  -49.5793 H         1 UNK         0.0600 
    207 H207        1.4752  -25.4924  -48.6201 H         1 UNK         0.0600 
    208 H208        1.2501  -25.4423  -50.3621 H         1 UNK         0.0600 
    209 H209        0.1362  -24.5804  -49.3205 H         1 UNK         0.0600 
    210 H210       -2.5244  -25.8722  -49.0603 H         1 UNK         0.3000 
    211 H211       -4.3664  -25.4540  -50.1774 H         1 UNK         0.0600 
    212 H212       -3.5233  -27.4872  -52.3031 H         1 UNK         0.0600 
    213 H213       -5.1426  -26.8688  -52.0219 H         1 UNK         0.0600 
    214 H214       -4.3743  -27.8778  -50.8081 H         1 UNK         0.0600 
    215 H215       -1.6602  -24.1855  -50.9283 H         1 UNK         0.3000 
    216 H216       -1.9156  -23.0968  -53.5853 H         1 UNK         0.0600 
    217 H217       -0.0688  -21.5912  -52.8105 H         1 UNK         0.0600 
    218 H218        0.2829  -23.2745  -52.4511 H         1 UNK         0.0600 
    219 H219       -0.2524  -22.1942  -51.1663 H         1 UNK         0.0600 
    220 H220       -2.7137  -21.9137  -50.2883 H         1 UNK         0.3000 
    221 H221       -3.8577  -19.4075  -51.3348 H         1 UNK         0.0600 
    222 H222       -3.7693  -20.4986  -48.4905 H         1 UNK         0.0600 
    223 H223       -2.6730  -19.3115  -49.2034 H         1 UNK         0.0600 
    224 H224       -4.3630  -18.9192  -48.9629 H         1 UNK         0.0600 
    225 H225       -5.0026  -22.6210  -50.7311 H         1 UNK         0.3000 
    226 H226       -7.8351  -21.9607  -50.5941 H         1 UNK         0.0600 
    227 H227       -6.9268  -24.1204  -49.6996 H         1 UNK         0.0600 
    228 H228       -8.1645  -24.3759  -50.9192 H         1 UNK         0.0600 
    229 H229       -6.4755  -24.6063  -51.3339 H         1 UNK         0.0600 
    230 H230       -5.4767  -22.8285  -53.1388 H         1 UNK         0.3000 
    231 H231       -7.3230  -22.4269  -55.3575 H         1 UNK         0.0600 
    232 H232       -5.4187  -24.0441  -55.4558 H         1 UNK         0.0600 
    233 H233       -4.2715  -22.7232  -55.2471 H         1 UNK         0.0600 
    234 H234       -5.2621  -22.8134  -56.6990 H         1 UNK         0.0600 
    235 H235       -5.9595  -20.2710  -53.2492 H         1 UNK         0.3000 
    236 H236       -5.4534  -18.1246  -53.1246 H         1 UNK         0.0600 
    237 H237       -6.8327  -16.5474  -54.4305 H         1 UNK         0.0600 
    238 H238       -7.2321  -17.8008  -55.5984 H         1 UNK         0.0600 
    239 H239       -7.8114  -17.9182  -53.9371 H         1 UNK         0.0600 
    240 H240       -3.5266  -19.7164  -54.4889 H         1 UNK         0.3000 
    241 H241       -1.7114  -19.7145  -55.7066 H         1 UNK         0.0600 
    242 H242       -4.4426  -19.5218  -57.2411 H         1 UNK         0.3800 
    243 H243       -3.8606  -19.2733  -58.8678 H         1 UNK         0.3800 
    244 H244       -1.8366  -16.6892  -55.2925 H         1 UNK         0.0800 
    245 H245       -0.5645  -17.4001  -56.2293 H         1 UNK         0.0800 
    246 H246       -2.1713  -18.5583  -52.5609 H         1 UNK         0.0800 
    247 H247       -2.0700  -16.8344  -52.8338 H         1 UNK         0.0800 
@<TRIPOS>BOND
     1    1    2 1    
     2    1  127 1    
     3    1  128 1    
     4    1  129 1    
     5    2    3 2    
     6    2    4 am   BACKBONE|DICT|INTERRES
     7    4    5 1    
     8    4  130 1    
     9    5    6 1    
    10    5   65 1    
    11    5  131 1    
    12    6    7 1    
    13    6  132 1    
    14    6  133 1    
    15    7    8 1    
    16    8    9 1    
    17    8  134 1    
    18    8  135 1    
    19    9   10 ar   
    20    9   14 ar   
    21   10   11 ar   
    22   10  136 1    
    23   11   12 ar   
    24   11  126 1    
    25   12   13 ar   
    26   12  137 1    
    27   13   14 ar   
    28   13   15 1    
    29   14  138 1    
    30   15   16 1    
    31   15  139 1    
    32   15  140 1    
    33   16   17 1    
    34   17   18 1    
    35   17  141 1    
    36   17  142 1    
    37   18   19 1    
    38   18   67 1    
    39   18  143 1    
    40   19   20 am   BACKBONE|DICT|INTERRES
    41   19  144 1    
    42   20   21 2    
    43   20   22 1    
    44   22   23 1    
    45   22   24 1    
    46   22  145 1    
    47   23  146 1    
    48   23  147 1    
    49   23  148 1    
    50   24   25 am   BACKBONE|DICT|INTERRES
    51   24  149 1    
    52   25   26 2    
    53   25   27 1    
    54   27   28 1    
    55   27   29 1    
    56   27  150 1    
    57   28  151 1    
    58   28  152 1    
    59   28  153 1    
    60   29   30 am   BACKBONE|DICT|INTERRES
    61   29  154 1    
    62   30   31 2    
    63   30   32 1    
    64   32   33 1    
    65   32   34 1    
    66   32  155 1    
    67   33  156 1    
    68   33  157 1    
    69   33  158 1    
    70   34   35 am   BACKBONE|DICT|INTERRES
    71   34  159 1    
    72   35   36 2    
    73   35   37 1    
    74   37   38 1    
    75   37   39 1    
    76   37  160 1    
    77   38  161 1    
    78   38  162 1    
    79   38  163 1    
    80   39   40 am   BACKBONE|DICT|INTERRES
    81   39  164 1    
    82   40   41 2    
    83   40   42 1    
    84   42   43 1    
    85   42   44 1    
    86   42  165 1    
    87   43  166 1    
    88   43  167 1    
    89   43  168 1    
    90   44   45 am   BACKBONE|DICT|INTERRES
    91   44  169 1    
    92   45   46 2    
    93   45   47 1    
    94   47   48 1    
    95   47   49 1    
    96   47  170 1    
    97   48  171 1    
    98   48  172 1    
    99   48  173 1    
   100   49   50 am   BACKBONE|DICT|INTERRES
   101   49  174 1    
   102   50   51 2    
   103   50   52 1    
   104   52   53 1    
   105   52   54 1    
   106   52  175 1    
   107   53  176 1    
   108   53  177 1    
   109   53  178 1    
   110   54   55 am   BACKBONE|DICT|INTERRES
   111   54  179 1    
   112   55   56 2    
   113   55   57 1    
   114   57   58 1    
   115   57   59 1    
   116   57  180 1    
   117   58  181 1    
   118   58  182 1    
   119   58  183 1    
   120   59   60 am   BACKBONE|DICT|INTERRES
   121   59  184 1    
   122   60   61 2    
   123   60   62 1    
   124   62   63 1    
   125   62   64 1    
   126   62  185 1    
   127   63  186 1    
   128   63  187 1    
   129   63  188 1    
   130   64   65 am   BACKBONE|DICT|INTERRES
   131   64  189 1    
   132   65   66 2    
   133   67   68 2    
   134   67   69 am   BACKBONE|DICT|INTERRES
   135   69   70 1    
   136   69  190 1    
   137   70   71 1    
   138   70   72 1    
   139   70  191 1    
   140   71  192 1    
   141   71  193 1    
   142   71  194 1    
   143   72   73 2    
   144   72   74 am   BACKBONE|DICT|INTERRES
   145   74   75 1    
   146   74  195 1    
   147   75   76 1    
   148   75   77 1    
   149   75  196 1    
   150   76  197 1    
   151   76  198 1    
   152   76  199 1    
   153   77   78 2    
   154   77   79 am   BACKBONE|DICT|INTERRES
   155   79   80 1    
   156   79  200 1    
   157   80   81 1    
   158   80   82 1    
   159   80  201 1    
   160   81  202 1    
   161   81  203 1    
   162   81  204 1    
   163   82   83 2    
   164   82   84 am   BACKBONE|DICT|INTERRES
   165   84   85 1    
   166   84  205 1    
   167   85   86 1    
   168   85   87 1    
   169   85  206 1    
   170   86  207 1    
   171   86  208 1    
   172   86  209 1    
   173   87   88 2    
   174   87   89 am   BACKBONE|DICT|INTERRES
   175   89   90 1    
   176   89  210 1    
   177   90   91 1    
   178   90   92 1    
   179   90  211 1    
   180   91  212 1    
   181   91  213 1    
   182   91  214 1    
   183   92   93 2    
   184   92   94 am   BACKBONE|DICT|INTERRES
   185   94   95 1    
   186   94  215 1    
   187   95   96 1    
   188   95   97 1    
   189   95  216 1    
   190   96  217 1    
   191   96  218 1    
   192   96  219 1    
   193   97   98 2    
   194   97   99 am   BACKBONE|DICT|INTERRES
   195   99  100 1    
   196   99  220 1    
   197  100  101 1    
   198  100  102 1    
   199  100  221 1    
   200  101  222 1    
   201  101  223 1    
   202  101  224 1    
   203  102  103 2    
   204  102  104 am   BACKBONE|DICT|INTERRES
   205  104  105 1    
   206  104  225 1    
   207  105  106 1    
   208  105  107 1    
   209  105  226 1    
   210  106  227 1    
   211  106  228 1    
   212  106  229 1    
   213  107  108 2    
   214  107  109 am   BACKBONE|DICT|INTERRES
   215  109  110 1    
   216  109  230 1    
   217  110  111 1    
   218  110  112 1    
   219  110  231 1    
   220  111  232 1    
   221  111  233 1    
   222  111  234 1    
   223  112  113 2    
   224  112  114 am   BACKBONE|DICT|INTERRES
   225  114  115 1    
   226  114  235 1    
   227  115  116 1    
   228  115  117 1    
   229  115  236 1    
   230  116  237 1    
   231  116  238 1    
   232  116  239 1    
   233  117  118 2    
   234  117  119 am   BACKBONE|DICT|INTERRES
   235  119  120 1    
   236  119  240 1    
   237  120  121 1    
   238  120  124 1    
   239  120  241 1    
   240  121  122 am   BACKBONE|DICT|INTERRES
   241  121  123 2    
   242  122  242 1    
   243  122  243 1    
   244  124  125 1    
   245  124  244 1    
   246  124  245 1    
   247  125  126 1    
   248  126  246 1    
   249  126  247 1    
@<TRIPOS>SUBSTRUCTURE
     1 UNK         1 GROUP             0       ****    0 ROOT    
