@<TRIPOS>MOLECULE
3R540
247   249    1
SMALL
USER_CHARGES


@<TRIPOS>ATOM
      1 CA         -1.2327  -11.0126  -51.3912 C.3       0 UNK        -0.1800 
      2 C           0.2631  -10.8258  -51.1777 C.2       0 UNK         0.5000 
      3 O           0.7878   -9.7390  -51.4231 O.2       0 UNK        -0.5000 
      4 N           0.9493  -11.8833  -50.7311 N.am      1 UNK        -0.5000 
      5 CA          2.3732  -11.8825  -50.3853 C.3       1 UNK         0.1400 
      6 C6          2.9865  -13.3070  -50.4523 C.3       23 UNK        -0.0398 
      7 S7          2.0820  -14.5868  -49.5079 S.3       23 UNK        -0.2404 
      8 C8          1.2613  -15.4685  -50.8725 C.3       23 UNK        -0.0205 
      9 C9          0.4395  -16.6482  -50.3802 C.ar      23 UNK        -0.0193 
     10 C10        -0.8184  -16.4397  -49.8089 C.ar      23 UNK        -0.1150 
     11 C11        -1.6096  -17.5243  -49.4180 C.ar      23 UNK        -0.0193 
     12 C12        -1.1233  -18.8248  -49.5802 C.ar      23 UNK        -0.1150 
     13 C13         0.1417  -19.0443  -50.1337 C.ar      23 UNK        -0.0193 
     14 C14         0.9162  -17.9527  -50.5353 C.ar      23 UNK        -0.1150 
     15 C15         0.6635  -20.4608  -50.3213 C.3       23 UNK        -0.0205 
     16 S16         2.0217  -20.8741  -49.1789 S.3       23 UNK        -0.2404 
     17 C17         1.2514  -20.6692  -47.5382 C.3       23 UNK        -0.0398 
     18 CA          0.6916  -21.9890  -46.9567 C.3       11 UNK         0.1400 
     19 N           0.6421  -21.9603  -45.4944 N.am      11 UNK        -0.5000 
     20 C           0.3481  -23.0078  -44.7124 C.2       10 UNK         0.5000 
     21 O           0.1507  -24.1458  -45.1385 O.2       10 UNK        -0.5000 
     22 CA          0.1932  -22.7196  -43.2075 C.3       10 UNK         0.1400 
     23 CB          1.5610  -22.6749  -42.5107 C.3       10 UNK        -0.1800 
     24 N          -0.5356  -21.4747  -42.9518 N.am      10 UNK        -0.5000 
     25 C          -1.8185  -21.2739  -43.2869 C.2       9 UNK         0.5000 
     26 O          -2.5338  -22.1420  -43.7862 O.2       9 UNK        -0.5000 
     27 CA         -2.3888  -19.8602  -43.0730 C.3       9 UNK         0.1400 
     28 CB         -2.8019  -19.6558  -41.6083 C.3       9 UNK        -0.1800 
     29 N          -1.4608  -18.8049  -43.4847 N.am      9 UNK        -0.5000 
     30 C          -1.0496  -18.6073  -44.7465 C.2       8 UNK         0.5000 
     31 O          -1.4500  -19.2666  -45.7036 O.2       8 UNK        -0.5000 
     32 CA          0.0309  -17.5360  -44.9776 C.3       8 UNK         0.1400 
     33 CB         -0.5875  -16.1326  -45.0497 C.3       8 UNK        -0.1800 
     34 N           1.0713  -17.5631  -43.9513 N.am      8 UNK        -0.5000 
     35 C           1.8956  -18.5942  -43.7244 C.2       7 UNK         0.5000 
     36 O           1.9005  -19.6261  -44.3935 O.2       7 UNK        -0.5000 
     37 CA          2.8290  -18.4771  -42.5088 C.3       7 UNK         0.1400 
     38 CB          4.0544  -17.6066  -42.8270 C.3       7 UNK        -0.1800 
     39 N           2.1308  -17.9435  -41.3397 N.am      7 UNK        -0.5000 
     40 C           1.1858  -18.6045  -40.6568 C.2       6 UNK         0.5000 
     41 O           0.8243  -19.7503  -40.9247 O.2       6 UNK        -0.5000 
     42 CA          0.5101  -17.8435  -39.5012 C.3       6 UNK         0.1400 
     43 CB          1.3535  -17.9431  -38.2214 C.3       6 UNK        -0.1800 
     44 N           0.2716  -16.4337  -39.8166 N.am      6 UNK        -0.5000 
     45 C          -0.6077  -16.0051  -40.7329 C.2       5 UNK         0.5000 
     46 O          -1.3258  -16.7538  -41.3940 O.2       5 UNK        -0.5000 
     47 CA         -0.6530  -14.4872  -40.9923 C.3       5 UNK         0.1400 
     48 CB         -1.5392  -13.7861  -39.9519 C.3       5 UNK        -0.1800 
     49 N           0.6684  -13.8495  -41.0187 N.am      5 UNK        -0.5000 
     50 C           1.6600  -14.1940  -41.8504 C.2       4 UNK         0.5000 
     51 O           1.5912  -15.1429  -42.6335 O.2       4 UNK        -0.5000 
     52 CA          2.9612  -13.3754  -41.7621 C.3       4 UNK         0.1400 
     53 CB          3.8338  -13.8925  -40.6074 C.3       4 UNK        -0.1800 
     54 N           3.7325  -13.4571  -43.0041 N.am      4 UNK        -0.5000 
     55 C           3.3403  -12.9494  -44.1794 C.2       3 UNK         0.5000 
     56 O           2.3323  -12.2523  -44.3251 O.2       3 UNK        -0.5000 
     57 CA          4.2088  -13.3241  -45.3972 C.3       3 UNK         0.1400 
     58 CB          3.7538  -14.6745  -45.9760 C.3       3 UNK        -0.1800 
     59 N           4.1545  -12.3217  -46.4609 N.am      3 UNK        -0.5000 
     60 C           4.5804  -11.0550  -46.3627 C.2       2 UNK         0.5000 
     61 O           5.1489  -10.6115  -45.3631 O.2       2 UNK        -0.5000 
     62 CA          4.3632  -10.1277  -47.5814 C.3       2 UNK         0.1400 
     63 CB          5.6514   -9.3643  -47.9368 C.3       2 UNK        -0.1800 
     64 N           3.8890  -10.8146  -48.7883 N.am      2 UNK        -0.5000 
     65 C           2.6274  -11.1974  -49.0239 C.2       1 UNK         0.5000 
     66 O           1.7091  -11.0467  -48.2143 O.2       1 UNK        -0.5000 
     67 C          -0.6820  -22.3431  -47.5622 C.2       11 UNK         0.5000 
     68 O          -0.7521  -23.2006  -48.4408 O.2       11 UNK        -0.5000 
     69 N          -1.7542  -21.7169  -47.0566 N.am      12 UNK        -0.5000 
     70 CA         -3.1355  -21.9858  -47.4536 C.3       12 UNK         0.1400 
     71 CB         -4.0812  -20.9750  -46.7892 C.3       12 UNK        -0.1800 
     72 C          -3.5777  -23.4261  -47.1464 C.2       12 UNK         0.5000 
     73 O          -4.2174  -24.0521  -47.9900 O.2       12 UNK        -0.5000 
     74 N          -3.1948  -23.9423  -45.9708 N.am      13 UNK        -0.5000 
     75 CA         -3.4306  -25.3272  -45.5608 C.3       13 UNK         0.1400 
     76 CB         -3.0361  -25.5035  -44.0869 C.3       13 UNK        -0.1800 
     77 C          -2.6985  -26.3475  -46.4535 C.2       13 UNK         0.5000 
     78 O          -3.2712  -27.3900  -46.7720 O.2       13 UNK        -0.5000 
     79 N          -1.4647  -26.0189  -46.8630 N.am      14 UNK        -0.5000 
     80 CA         -0.6680  -26.8074  -47.8034 C.3       14 UNK         0.1400 
     81 CB          0.7912  -26.3271  -47.7715 C.3       14 UNK        -0.1800 
     82 C          -1.2329  -26.7663  -49.2367 C.2       14 UNK         0.5000 
     83 O          -1.2703  -27.8026  -49.9014 O.2       14 UNK        -0.5000 
     84 N          -1.6713  -25.5795  -49.6813 N.am      15 UNK        -0.5000 
     85 CA         -2.3003  -25.3502  -50.9839 C.3       15 UNK         0.1400 
     86 CB         -2.4191  -23.8394  -51.2347 C.3       15 UNK        -0.1800 
     87 C          -3.6801  -26.0190  -51.1114 C.2       15 UNK         0.5000 
     88 O          -4.0293  -26.4856  -52.1957 O.2       15 UNK        -0.5000 
     89 N          -4.4407  -26.0322  -50.0082 N.am      16 UNK        -0.5000 
     90 CA         -5.7535  -26.6482  -49.7782 C.3       16 UNK         0.1400 
     91 CB         -5.6974  -28.1706  -50.0043 C.3       16 UNK        -0.1800 
     92 C          -6.9299  -26.0133  -50.5483 C.2       16 UNK         0.5000 
     93 O          -8.0512  -26.0362  -50.0398 O.2       16 UNK        -0.5000 
     94 N          -6.6676  -25.4637  -51.7411 N.am      17 UNK        -0.5000 
     95 CA         -7.6237  -24.7822  -52.6144 C.3       17 UNK         0.1400 
     96 CB         -6.9461  -24.3864  -53.9377 C.3       17 UNK        -0.1800 
     97 C          -8.3805  -23.6037  -51.9555 C.2       17 UNK         0.5000 
     98 O          -9.6098  -23.6199  -51.9809 O.2       17 UNK        -0.5000 
     99 N          -7.7290  -22.6033  -51.3386 N.am      18 UNK        -0.5000 
    100 CA        -6.3021  -22.2581  -51.3630 C.3       18 UNK         0.1400 
    101 CB        -5.9219  -21.6869  -49.9908 C.3       18 UNK        -0.1800 
    102 C         -5.9693  -21.2277  -52.4605 C.2       18 UNK         0.5000 
    103 O         -4.7934  -20.9182  -52.6612 O.2       18 UNK        -0.5000 
    104 N         -6.9977  -20.7184  -53.1564 N.am      19 UNK        -0.5000 
    105 CA        -6.9350  -19.6547  -54.1654 C.3       19 UNK         0.1400 
    106 CB        -8.3547  -19.3742  -54.6792 C.3       19 UNK        -0.1800 
    107 C         -5.9835  -19.9266  -55.3460 C.2       19 UNK         0.5000 
    108 O         -5.4769  -18.9743  -55.9383 O.2       19 UNK        -0.5000 
    109 N         -5.7170  -21.2079  -55.6349 N.am      20 UNK        -0.5000 
    110 CA        -4.7400  -21.6635  -56.6265 C.3       20 UNK         0.1400 
    111 CB        -4.8083  -23.1952  -56.7278 C.3       20 UNK        -0.1800 
    112 C         -3.2948  -21.2092  -56.3301 C.2       20 UNK         0.5000 
    113 O         -2.5159  -21.0461  -57.2704 O.2       20 UNK        -0.5000 
    114 N         -2.9720  -21.0011  -55.0457 N.am      21 UNK        -0.5000 
    115 CA        -1.6941  -20.4581  -54.5874 C.3       21 UNK         0.1400 
    116 CB        -1.0975  -21.3990  -53.5317 C.3       21 UNK        -0.1800 
    117 C         -1.8692  -19.0456  -54.0046 C.2       21 UNK         0.5000 
    118 O         -1.0262  -18.1835  -54.2541 O.2       21 UNK        -0.5000 
    119 N         -2.9487  -18.8354  -53.2385 N.am      22 UNK        -0.5000 
    120 CA        -3.2523  -17.5720  -52.5494 C.3       22 UNK         0.1400 
    121 C         -3.7346  -16.4167  -53.4785 C.2       22 UNK         0.5000 
    122 N         -4.2406  -16.6822  -54.6765 N.am      22 UNK        -0.7600 
    123 O         -3.6252  -15.2477  -53.1206 O.2       22 UNK        -0.5000 
    124 C124       -4.2167  -17.8214  -51.3570 C.3       23 UNK        -0.0398 
    125 S125       -4.1326  -16.5404  -50.0561 S.3       23 UNK        -0.2404 
    126 C126       -2.9977  -17.2895  -48.8414 C.3       23 UNK        -0.0205 
    127 H127       -1.7910  -10.3272  -50.7534 H         1 UNK         0.0600 
    128 H128       -1.5518  -12.0293  -51.1594 H         1 UNK         0.0600 
    129 H129       -1.4931  -10.8037  -52.4288 H         1 UNK         0.0600 
    130 H130        0.4554  -12.7311  -50.4942 H         1 UNK         0.3000 
    131 H131        2.8911  -11.2791  -51.1343 H         1 UNK         0.0600 
    132 H132        4.0226  -13.3022  -50.1099 H         1 UNK         0.0800 
    133 H133        3.0429  -13.6139  -51.4975 H         1 UNK         0.0800 
    134 H134        0.6140  -14.7811  -51.4188 H         1 UNK         0.0800 
    135 H135        2.0145  -15.8098  -51.5845 H         1 UNK         0.0800 
    136 H136       -1.1954  -15.4332  -49.6936 H         1 UNK         0.1150 
    137 H137       -1.7308  -19.6665  -49.2790 H         1 UNK         0.1150 
    138 H138        1.8886  -18.1227  -50.9761 H         1 UNK         0.1150 
    139 H139       -0.1411  -21.1900  -50.2209 H         1 UNK         0.0800 
    140 H140        1.0390  -20.5645  -51.3389 H         1 UNK         0.0800 
    141 H141        0.5021  -19.8775  -47.5469 H         1 UNK         0.0800 
    142 H142        2.0493  -20.2989  -46.8946 H         1 UNK         0.0800 
    143 H143        1.3796  -22.7954  -47.2201 H         1 UNK         0.0600 
    144 H144        0.8500  -21.0689  -45.0520 H         1 UNK         0.3000 
    145 H145       -0.3816  -23.5390  -42.7709 H         1 UNK         0.0600 
    146 H146        2.1099  -23.6040  -42.6691 H         1 UNK         0.0600 
    147 H147        2.1801  -21.8596  -42.8849 H         1 UNK         0.0600 
    148 H148        1.4498  -22.5418  -41.4344 H         1 UNK         0.0600 
    149 H149       -0.0215  -20.7281  -42.4955 H         1 UNK         0.3000 
    150 H150       -3.2854  -19.7704  -43.6894 H         1 UNK         0.0600 
    151 H151       -3.4963  -20.4327  -41.2859 H         1 UNK         0.0600 
    152 H152       -3.3019  -18.6970  -41.4709 H         1 UNK         0.0600 
    153 H153       -1.9425  -19.6844  -40.9385 H         1 UNK         0.0600 
    154 H154       -1.1323  -18.1794  -42.7556 H         1 UNK         0.3000 
    155 H155        0.5062  -17.7456  -45.9383 H         1 UNK         0.0600 
    156 H156       -1.0644  -15.8544  -44.1094 H         1 UNK         0.0600 
    157 H157        0.1694  -15.3808  -45.2752 H         1 UNK         0.0600 
    158 H158       -1.3440  -16.0797  -45.8336 H         1 UNK         0.0600 
    159 H159        1.1660  -16.7281  -43.3754 H         1 UNK         0.3000 
    160 H160        3.1836  -19.4808  -42.2647 H         1 UNK         0.0600 
    161 H161        3.7757  -16.5771  -43.0485 H         1 UNK         0.0600 
    162 H162        4.5926  -17.9938  -43.6930 H         1 UNK         0.0600 
    163 H163        4.7531  -17.5907  -41.9905 H         1 UNK         0.0600 
    164 H164        2.3192  -16.9824  -41.0980 H         1 UNK         0.3000 
    165 H165       -0.4549  -18.3178  -39.3103 H         1 UNK         0.0600 
    166 H166        0.8464  -17.4745  -37.3778 H         1 UNK         0.0600 
    167 H167        1.5331  -18.9851  -37.9532 H         1 UNK         0.0600 
    168 H168        2.3254  -17.4620  -38.3390 H         1 UNK         0.0600 
    169 H169        0.8269  -15.7508  -39.3227 H         1 UNK         0.3000 
    170 H170       -1.1047  -14.3400  -41.9755 H         1 UNK         0.0600 
    171 H171       -2.5347  -14.2315  -39.9233 H         1 UNK         0.0600 
    172 H172       -1.1182  -13.8584  -38.9484 H         1 UNK         0.0600 
    173 H173       -1.6650  -12.7294  -40.1884 H         1 UNK         0.0600 
    174 H174        0.8036  -13.0704  -40.3906 H         1 UNK         0.3000 
    175 H175        2.7071  -12.3293  -41.5793 H         1 UNK         0.0600 
    176 H176        4.1143  -14.9371  -40.7499 H         1 UNK         0.0600 
    177 H177        4.7503  -13.3094  -40.5146 H         1 UNK         0.0600 
    178 H178        3.3089  -13.8208  -39.6540 H         1 UNK         0.0600 
    179 H179        4.5567  -14.0383  -42.9767 H         1 UNK         0.3000 
    180 H180        5.2475  -13.4117  -45.0721 H         1 UNK         0.0600 
    181 H181        2.7188  -14.6351  -46.3191 H         1 UNK         0.0600 
    182 H182        3.8171  -15.4658  -45.2287 H         1 UNK         0.0600 
    183 H183        4.3752  -14.9751  -46.8198 H         1 UNK         0.0600 
    184 H184        3.6569  -12.5854  -47.2972 H         1 UNK         0.3000 
    185 H185        3.6112   -9.3934  -47.2854 H         1 UNK         0.0600 
    186 H186        6.0037   -8.7682  -47.0940 H         1 UNK         0.0600 
    187 H187        6.4565  -10.0445  -48.2173 H         1 UNK         0.0600 
    188 H188        5.4869   -8.6770  -48.7669 H         1 UNK         0.0600 
    189 H189        4.5909  -10.9868  -49.4941 H         1 UNK         0.3000 
    190 H190       -1.6163  -20.9745  -46.3741 H         1 UNK         0.3000 
    191 H191       -3.1866  -21.8452  -48.5333 H         1 UNK         0.0600 
    192 H192       -4.0810  -21.0749  -45.7042 H         1 UNK         0.0600 
    193 H193       -5.1073  -21.1168  -47.1295 H         1 UNK         0.0600 
    194 H194       -3.7978  -19.9512  -47.0260 H         1 UNK         0.0600 
    195 H195       -2.7229  -23.3397  -45.3021 H         1 UNK         0.3000 
    196 H196       -4.5017  -25.5204  -45.6494 H         1 UNK         0.0600 
    197 H197       -3.2348  -26.5211  -43.7487 H         1 UNK         0.0600 
    198 H198       -3.6033  -24.8299  -43.4442 H         1 UNK         0.0600 
    199 H199       -1.9766  -25.3048  -43.9257 H         1 UNK         0.0600 
    200 H200       -1.0453  -25.1647  -46.5118 H         1 UNK         0.3000 
    201 H201       -0.6851  -27.8471  -47.4699 H         1 UNK         0.0600 
    202 H202        1.2114  -26.4119  -46.7691 H         1 UNK         0.0600 
    203 H203        0.8833  -25.2869  -48.0838 H         1 UNK         0.0600 
    204 H204        1.4132  -26.9258  -48.4378 H         1 UNK         0.0600 
    205 H205       -1.5253  -24.7592  -49.0974 H         1 UNK         0.3000 
    206 H206       -1.6509  -25.7749  -51.7520 H         1 UNK         0.0600 
    207 H207       -2.8531  -23.6370  -52.2148 H         1 UNK         0.0600 
    208 H208       -3.0505  -23.3544  -50.4902 H         1 UNK         0.0600 
    209 H209       -1.4401  -23.3617  -51.2035 H         1 UNK         0.0600 
    210 H210       -4.0959  -25.5019  -49.2117 H         1 UNK         0.3000 
    211 H211       -5.9600  -26.4842  -48.7193 H         1 UNK         0.0600 
    212 H212       -5.5134  -28.4215  -51.0492 H         1 UNK         0.0600 
    213 H213       -6.6386  -28.6412  -49.7177 H         1 UNK         0.0600 
    214 H214       -4.9095  -28.6270  -49.4047 H         1 UNK         0.0600 
    215 H215       -5.7249  -25.5850  -52.0964 H         1 UNK         0.3000 
    216 H216       -8.3845  -25.5245  -52.8646 H         1 UNK         0.0600 
    217 H217       -6.0219  -23.8334  -53.7803 H         1 UNK         0.0600 
    218 H218       -7.6058  -23.7728  -54.5527 H         1 UNK         0.0600 
    219 H219       -6.6954  -25.2721  -54.5219 H         1 UNK         0.0600 
    220 H220       -8.3036  -21.9260  -50.8589 H         1 UNK         0.3000 
    221 H221       -5.6772  -23.1310  -51.5399 H         1 UNK         0.0600 
    222 H222       -6.5182  -20.8100  -49.7356 H         1 UNK         0.0600 
    223 H223       -6.0632  -22.4294  -49.2055 H         1 UNK         0.0600 
    224 H224       -4.8755  -21.3839  -49.9725 H         1 UNK         0.0600 
    225 H225       -7.9236  -21.0471  -52.9242 H         1 UNK         0.3000 
    226 H226       -6.5712  -18.7554  -53.6650 H         1 UNK         0.0600 
    227 H227       -9.0157  -19.0690  -53.8677 H         1 UNK         0.0600 
    228 H228       -8.3537  -18.5682  -55.4143 H         1 UNK         0.0600 
    229 H229       -8.7903  -20.2533  -55.1559 H         1 UNK         0.0600 
    230 H230       -6.1865  -21.9216  -55.1006 H         1 UNK         0.3000 
    231 H231       -5.0266  -21.2413  -57.5918 H         1 UNK         0.0600 
    232 H232       -4.1361  -23.5641  -57.5035 H         1 UNK         0.0600 
    233 H233       -5.8131  -23.5319  -56.9837 H         1 UNK         0.0600 
    234 H234       -4.5196  -23.6740  -55.7915 H         1 UNK         0.0600 
    235 H235       -3.6825  -21.1421  -54.3368 H         1 UNK         0.3000 
    236 H236       -0.9853  -20.3914  -55.4153 H         1 UNK         0.0600 
    237 H237       -1.0449  -22.4248  -53.8967 H         1 UNK         0.0600 
    238 H238       -0.0830  -21.0933  -53.2789 H         1 UNK         0.0600 
    239 H239       -1.6848  -21.3953  -52.6130 H         1 UNK         0.0600 
    240 H240       -3.5901  -19.6033  -53.0624 H         1 UNK         0.3000 
    241 H241       -2.3045  -17.2283  -52.1328 H         1 UNK         0.0600 
    242 H242       -4.3762  -17.6291  -55.0117 H         1 UNK         0.3800 
    243 H243       -4.5289  -15.9138  -55.2606 H         1 UNK         0.3800 
    244 H244       -5.2472  -17.8998  -51.7060 H         1 UNK         0.0800 
    245 H245       -3.9949  -18.7819  -50.8893 H         1 UNK         0.0800 
    246 H246       -3.4315  -18.2207  -48.4785 H         1 UNK         0.0800 
    247 H247       -2.9164  -16.6309  -47.9758 H         1 UNK         0.0800 
@<TRIPOS>BOND
     1    1    2 1    
     2    1  127 1    
     3    1  128 1    
     4    1  129 1    
     5    2    3 2    
     6    2    4 am   BACKBONE|DICT|INTERRES
     7    4    5 1    
     8    4  130 1    
     9    5    6 1    
    10    5   65 1    
    11    5  131 1    
    12    6    7 1    
    13    6  132 1    
    14    6  133 1    
    15    7    8 1    
    16    8    9 1    
    17    8  134 1    
    18    8  135 1    
    19    9   10 ar   
    20    9   14 ar   
    21   10   11 ar   
    22   10  136 1    
    23   11   12 ar   
    24   11  126 1    
    25   12   13 ar   
    26   12  137 1    
    27   13   14 ar   
    28   13   15 1    
    29   14  138 1    
    30   15   16 1    
    31   15  139 1    
    32   15  140 1    
    33   16   17 1    
    34   17   18 1    
    35   17  141 1    
    36   17  142 1    
    37   18   19 1    
    38   18   67 1    
    39   18  143 1    
    40   19   20 am   BACKBONE|DICT|INTERRES
    41   19  144 1    
    42   20   21 2    
    43   20   22 1    
    44   22   23 1    
    45   22   24 1    
    46   22  145 1    
    47   23  146 1    
    48   23  147 1    
    49   23  148 1    
    50   24   25 am   BACKBONE|DICT|INTERRES
    51   24  149 1    
    52   25   26 2    
    53   25   27 1    
    54   27   28 1    
    55   27   29 1    
    56   27  150 1    
    57   28  151 1    
    58   28  152 1    
    59   28  153 1    
    60   29   30 am   BACKBONE|DICT|INTERRES
    61   29  154 1    
    62   30   31 2    
    63   30   32 1    
    64   32   33 1    
    65   32   34 1    
    66   32  155 1    
    67   33  156 1    
    68   33  157 1    
    69   33  158 1    
    70   34   35 am   BACKBONE|DICT|INTERRES
    71   34  159 1    
    72   35   36 2    
    73   35   37 1    
    74   37   38 1    
    75   37   39 1    
    76   37  160 1    
    77   38  161 1    
    78   38  162 1    
    79   38  163 1    
    80   39   40 am   BACKBONE|DICT|INTERRES
    81   39  164 1    
    82   40   41 2    
    83   40   42 1    
    84   42   43 1    
    85   42   44 1    
    86   42  165 1    
    87   43  166 1    
    88   43  167 1    
    89   43  168 1    
    90   44   45 am   BACKBONE|DICT|INTERRES
    91   44  169 1    
    92   45   46 2    
    93   45   47 1    
    94   47   48 1    
    95   47   49 1    
    96   47  170 1    
    97   48  171 1    
    98   48  172 1    
    99   48  173 1    
   100   49   50 am   BACKBONE|DICT|INTERRES
   101   49  174 1    
   102   50   51 2    
   103   50   52 1    
   104   52   53 1    
   105   52   54 1    
   106   52  175 1    
   107   53  176 1    
   108   53  177 1    
   109   53  178 1    
   110   54   55 am   BACKBONE|DICT|INTERRES
   111   54  179 1    
   112   55   56 2    
   113   55   57 1    
   114   57   58 1    
   115   57   59 1    
   116   57  180 1    
   117   58  181 1    
   118   58  182 1    
   119   58  183 1    
   120   59   60 am   BACKBONE|DICT|INTERRES
   121   59  184 1    
   122   60   61 2    
   123   60   62 1    
   124   62   63 1    
   125   62   64 1    
   126   62  185 1    
   127   63  186 1    
   128   63  187 1    
   129   63  188 1    
   130   64   65 am   BACKBONE|DICT|INTERRES
   131   64  189 1    
   132   65   66 2    
   133   67   68 2    
   134   67   69 am   BACKBONE|DICT|INTERRES
   135   69   70 1    
   136   69  190 1    
   137   70   71 1    
   138   70   72 1    
   139   70  191 1    
   140   71  192 1    
   141   71  193 1    
   142   71  194 1    
   143   72   73 2    
   144   72   74 am   BACKBONE|DICT|INTERRES
   145   74   75 1    
   146   74  195 1    
   147   75   76 1    
   148   75   77 1    
   149   75  196 1    
   150   76  197 1    
   151   76  198 1    
   152   76  199 1    
   153   77   78 2    
   154   77   79 am   BACKBONE|DICT|INTERRES
   155   79   80 1    
   156   79  200 1    
   157   80   81 1    
   158   80   82 1    
   159   80  201 1    
   160   81  202 1    
   161   81  203 1    
   162   81  204 1    
   163   82   83 2    
   164   82   84 am   BACKBONE|DICT|INTERRES
   165   84   85 1    
   166   84  205 1    
   167   85   86 1    
   168   85   87 1    
   169   85  206 1    
   170   86  207 1    
   171   86  208 1    
   172   86  209 1    
   173   87   88 2    
   174   87   89 am   BACKBONE|DICT|INTERRES
   175   89   90 1    
   176   89  210 1    
   177   90   91 1    
   178   90   92 1    
   179   90  211 1    
   180   91  212 1    
   181   91  213 1    
   182   91  214 1    
   183   92   93 2    
   184   92   94 am   BACKBONE|DICT|INTERRES
   185   94   95 1    
   186   94  215 1    
   187   95   96 1    
   188   95   97 1    
   189   95  216 1    
   190   96  217 1    
   191   96  218 1    
   192   96  219 1    
   193   97   98 2    
   194   97   99 am   BACKBONE|DICT|INTERRES
   195   99  100 1    
   196   99  220 1    
   197  100  101 1    
   198  100  102 1    
   199  100  221 1    
   200  101  222 1    
   201  101  223 1    
   202  101  224 1    
   203  102  103 2    
   204  102  104 am   BACKBONE|DICT|INTERRES
   205  104  105 1    
   206  104  225 1    
   207  105  106 1    
   208  105  107 1    
   209  105  226 1    
   210  106  227 1    
   211  106  228 1    
   212  106  229 1    
   213  107  108 2    
   214  107  109 am   BACKBONE|DICT|INTERRES
   215  109  110 1    
   216  109  230 1    
   217  110  111 1    
   218  110  112 1    
   219  110  231 1    
   220  111  232 1    
   221  111  233 1    
   222  111  234 1    
   223  112  113 2    
   224  112  114 am   BACKBONE|DICT|INTERRES
   225  114  115 1    
   226  114  235 1    
   227  115  116 1    
   228  115  117 1    
   229  115  236 1    
   230  116  237 1    
   231  116  238 1    
   232  116  239 1    
   233  117  118 2    
   234  117  119 am   BACKBONE|DICT|INTERRES
   235  119  120 1    
   236  119  240 1    
   237  120  121 1    
   238  120  124 1    
   239  120  241 1    
   240  121  122 am   BACKBONE|DICT|INTERRES
   241  121  123 2    
   242  122  242 1    
   243  122  243 1    
   244  124  125 1    
   245  124  244 1    
   246  124  245 1    
   247  125  126 1    
   248  126  246 1    
   249  126  247 1    
@<TRIPOS>SUBSTRUCTURE
     1 UNK         1 GROUP             0       ****    0 ROOT    
