@<TRIPOS>MOLECULE
3R540
247   249    1
SMALL
USER_CHARGES


@<TRIPOS>ATOM
      1 CA         -3.8209  -12.7420  -51.7956 C.3       0 UNK        -0.1800 
      2 C          -2.3541  -12.3669  -51.6374 C.2       0 UNK         0.5000 
      3 O          -2.0348  -11.1883  -51.4794 O.2       0 UNK        -0.5000 
      4 N          -1.4639  -13.3635  -51.6907 N.am      1 UNK        -0.5000 
      5 CA         -0.0185  -13.2209  -51.5080 C.3       1 UNK         0.1400 
      6 C6          0.7106  -14.4988  -51.9781 C.3       23 UNK        -0.0398 
      7 S7          2.4730  -14.2193  -52.3622 S.3       23 UNK        -0.2404 
      8 C8          3.2901  -15.4374  -51.2779 C.3       23 UNK        -0.0205 
      9 C9          2.7792  -16.8563  -51.5001 C.ar      23 UNK        -0.0193 
     10 C10         2.8320  -17.4421  -52.7689 C.ar      23 UNK        -0.1150 
     11 C11         2.3159  -18.7232  -52.9817 C.ar      23 UNK        -0.0193 
     12 C12         1.7826  -19.4385  -51.9056 C.ar      23 UNK        -0.1150 
     13 C13         1.7136  -18.8597  -50.6375 C.ar      23 UNK        -0.0193 
     14 C14         2.2185  -17.5719  -50.4381 C.ar      23 UNK        -0.1150 
     15 C15         1.0614  -19.6082  -49.4898 C.3       23 UNK        -0.0205 
     16 S16         2.2731  -20.6355  -48.6092 S.3       23 UNK        -0.2404 
     17 C17         1.5582  -20.6396  -46.9344 C.3       23 UNK        -0.0398 
     18 CA          0.8161  -21.9411  -46.5564 C.3       11 UNK         0.1400 
     19 N           0.6013  -22.0036  -45.1118 N.am      11 UNK        -0.5000 
     20 C           0.1648  -23.0689  -44.4310 C.2       10 UNK         0.5000 
     21 O          -0.0916  -24.1552  -44.9497 O.2       10 UNK        -0.5000 
     22 CA         -0.0577  -22.8670  -42.9205 C.3       10 UNK         0.1400 
     23 CB          1.2722  -22.9411  -42.1557 C.3       10 UNK        -0.1800 
     24 N          -0.7250  -21.5995  -42.6150 N.am      10 UNK        -0.5000 
     25 C          -1.9771  -21.2983  -42.9885 C.2       9 UNK         0.5000 
     26 O          -2.7088  -22.0670  -43.6127 O.2       9 UNK        -0.5000 
     27 CA         -2.4818  -19.8851  -42.6464 C.3       9 UNK         0.1400 
     28 CB         -2.8518  -19.7804  -41.1593 C.3       9 UNK        -0.1800 
     29 N          -1.5168  -18.8399  -42.9880 N.am      9 UNK        -0.5000 
     30 C          -1.0780  -18.5881  -44.2302 C.2       8 UNK         0.5000 
     31 O          -1.4548  -19.1963  -45.2292 O.2       8 UNK        -0.5000 
     32 CA          0.0053  -17.5105  -44.3803 C.3       8 UNK         0.1400 
     33 CB         -0.6164  -16.1079  -44.2865 C.3       8 UNK        -0.1800 
     34 N           1.0677  -17.6479  -43.3876 N.am      8 UNK        -0.5000 
     35 C           1.8456  -18.7238  -43.2097 C.2       7 UNK         0.5000 
     36 O           1.7730  -19.7457  -43.8882 O.2       7 UNK        -0.5000 
     37 CA          2.8363  -18.6670  -42.0375 C.3       7 UNK         0.1400 
     38 CB          4.0782  -17.8388  -42.4028 C.3       7 UNK        -0.1800 
     39 N           2.2114  -18.1207  -40.8347 N.am      7 UNK        -0.5000 
     40 C           1.2697  -18.7496  -40.1183 C.2       6 UNK         0.5000 
     41 O           0.8527  -19.8807  -40.3741 O.2       6 UNK        -0.5000 
     42 CA          0.6750  -17.9637  -38.9352 C.3       6 UNK         0.1400 
     43 CB          1.5810  -18.0744  -37.6996 C.3       6 UNK        -0.1800 
     44 N           0.4523  -16.5501  -39.2499 N.am      6 UNK        -0.5000 
     45 C          -0.4755  -16.1144  -40.1127 C.2       5 UNK         0.5000 
     46 O          -1.2366  -16.8601  -40.7306 O.2       5 UNK        -0.5000 
     47 CA         -0.5437  -14.5927  -40.3536 C.3       5 UNK         0.1400 
     48 CB         -1.3141  -13.9025  -39.2176 C.3       5 UNK        -0.1800 
     49 N           0.7493  -13.9193  -40.5432 N.am      5 UNK        -0.5000 
     50 C           1.6893  -14.2854  -41.4243 C.2       4 UNK         0.5000 
     51 O           1.6694  -15.3493  -42.0402 O.2       4 UNK        -0.5000 
     52 CA          2.8598  -13.3161  -41.6688 C.3       4 UNK         0.1400 
     53 CB          4.0444  -13.6711  -40.7578 C.3       4 UNK        -0.1800 
     54 N           3.2954  -13.3829  -43.0685 N.am      4 UNK        -0.5000 
     55 C           2.5526  -12.9787  -44.1079 C.2       3 UNK         0.5000 
     56 O           1.4938  -12.3532  -43.9885 O.2       3 UNK        -0.5000 
     57 CA          3.0643  -13.3444  -45.5120 C.3       3 UNK         0.1400 
     58 CB          2.8755  -14.8495  -45.7996 C.3       3 UNK        -0.1800 
     59 N           2.3279  -12.5343  -46.4783 N.am      3 UNK        -0.5000 
     60 C           2.5502  -12.4265  -47.7907 C.2       2 UNK         0.5000 
     61 O           3.4354  -13.0330  -48.3979 O.2       2 UNK        -0.5000 
     62 CA          1.6564  -11.4210  -48.5395 C.3       2 UNK         0.1400 
     63 CB          2.3908  -10.0841  -48.7258 C.3       2 UNK        -0.1800 
     64 N           1.2381  -11.9177  -49.8492 N.am      2 UNK        -0.5000 
     65 C           0.3166  -12.8694  -50.0411 C.2       1 UNK         0.5000 
     66 O          -0.2679  -13.4509  -49.1231 O.2       1 UNK        -0.5000 
     67 C          -0.5024  -22.1251  -47.3383 C.2       11 UNK         0.5000 
     68 O          -0.5374  -22.9077  -48.2873 O.2       11 UNK        -0.5000 
     69 N          -1.5775  -21.4515  -46.9022 N.am      12 UNK        -0.5000 
     70 CA         -2.9222  -21.5970  -47.4593 C.3       12 UNK         0.1400 
     71 CB         -3.8641  -20.5414  -46.8645 C.3       12 UNK        -0.1800 
     72 C          -3.4949  -23.0087  -47.2589 C.2       12 UNK         0.5000 
     73 O          -4.0924  -23.5459  -48.1906 O.2       12 UNK        -0.5000 
     74 N          -3.2758  -23.6015  -46.0762 N.am      13 UNK        -0.5000 
     75 CA         -3.6517  -24.9818  -45.7648 C.3       13 UNK         0.1400 
     76 CB         -3.4226  -25.2678  -44.2735 C.3       13 UNK        -0.1800 
     77 C          -2.9142  -26.0051  -46.6478 C.2       13 UNK         0.5000 
     78 O          -3.5546  -26.9095  -47.1847 O.2       13 UNK        -0.5000 
     79 N          -1.6013  -25.8084  -46.8397 N.am      14 UNK        -0.5000 
     80 CA         -0.7615  -26.5984  -47.7463 C.3       14 UNK         0.1400 
     81 CB          0.7100  -26.1989  -47.5608 C.3       14 UNK        -0.1800 
     82 C          -1.1822  -26.4736  -49.2254 C.2       14 UNK         0.5000 
     83 O          -1.0924  -27.4510  -49.9685 O.2       14 UNK        -0.5000 
     84 N          -1.6832  -25.2922  -49.6088 N.am      15 UNK        -0.5000 
     85 CA         -2.2748  -24.9920  -50.9142 C.3       15 UNK         0.1400 
     86 CB         -2.1317  -23.4839  -51.1841 C.3       15 UNK        -0.1800 
     87 C          -3.7428  -25.4609  -51.0568 C.2       15 UNK         0.5000 
     88 O          -4.3741  -25.1316  -52.0606 O.2       15 UNK        -0.5000 
     89 N          -4.2569  -26.2200  -50.0752 N.am      16 UNK        -0.5000 
     90 CA         -5.5976  -26.8105  -50.0029 C.3       16 UNK         0.1400 
     91 CB         -5.8318  -27.8110  -51.1550 C.3       16 UNK        -0.1800 
     92 C          -6.7041  -25.7451  -49.8767 C.2       16 UNK         0.5000 
     93 O          -7.6484  -25.7281  -50.6680 O.2       16 UNK        -0.5000 
     94 N          -6.5488  -24.8801  -48.8644 N.am      17 UNK        -0.5000 
     95 CA         -7.3864  -23.7208  -48.5337 C.3       17 UNK         0.1400 
     96 CB         -8.8392  -24.1353  -48.2166 C.3       17 UNK        -0.1800 
     97 C          -7.2720  -22.6100  -49.5972 C.2       17 UNK         0.5000 
     98 O          -8.2777  -22.0079  -49.9773 O.2       17 UNK        -0.5000 
     99 N          -6.0236  -22.3709  -50.0242 N.am      18 UNK        -0.5000 
    100 CA        -5.5544  -21.4779  -51.0860 C.3       18 UNK         0.1400 
    101 CB        -5.9848  -20.0186  -50.8478 C.3       18 UNK        -0.1800 
    102 C         -5.9360  -21.9679  -52.4972 C.2       18 UNK         0.5000 
    103 O         -7.0859  -22.3267  -52.7579 O.2       18 UNK        -0.5000 
    104 N         -4.9489  -21.9501  -53.3974 N.am      19 UNK        -0.5000 
    105 CA        -5.0920  -22.3369  -54.7997 C.3       19 UNK         0.1400 
    106 CB        -3.7342  -22.8425  -55.3116 C.3       19 UNK        -0.1800 
    107 C         -5.5928  -21.1677  -55.6663 C.2       19 UNK         0.5000 
    108 O         -6.2993  -21.3962  -56.6488 O.2       19 UNK        -0.5000 
    109 N         -5.2188  -19.9431  -55.2805 N.am      20 UNK        -0.5000 
    110 CA        -5.5631  -18.6742  -55.9147 C.3       20 UNK         0.1400 
    111 CB        -4.8834  -18.5486  -57.2989 C.3       20 UNK        -0.1800 
    112 C         -5.1627  -17.5773  -54.9145 C.2       20 UNK         0.5000 
    113 O         -5.5747  -17.6500  -53.7556 O.2       20 UNK        -0.5000 
    114 N         -4.3161  -16.6259  -55.3358 N.am      21 UNK        -0.5000 
    115 CA        -3.6049  -15.7077  -54.4387 C.3       21 UNK         0.1400 
    116 CB        -2.9420  -14.5935  -55.2619 C.3       21 UNK        -0.1800 
    117 C         -2.5571  -16.4413  -53.5758 C.2       21 UNK         0.5000 
    118 O         -2.2755  -16.0066  -52.4583 O.2       21 UNK        -0.5000 
    119 N         -2.0250  -17.5506  -54.1064 N.am      22 UNK        -0.5000 
    120 CA        -1.2312  -18.5457  -53.3812 C.3       22 UNK         0.1400 
    121 C         -2.1231  -19.3113  -52.3676 C.2       22 UNK         0.5000 
    122 N         -2.0814  -18.9568  -51.0915 N.am      22 UNK        -0.7600 
    123 O         -2.8506  -20.2282  -52.7396 O.2       22 UNK        -0.5000 
    124 C124       -0.5342  -19.5297  -54.3595 C.3       23 UNK        -0.0398 
    125 S125        0.8149  -18.7436  -55.3052 S.3       23 UNK        -0.2404 
    126 C126        2.2846  -19.3103  -54.3839 C.3       23 UNK        -0.0205 
    127 H127       -4.1874  -12.4228  -52.7712 H         1 UNK         0.0600 
    128 H128       -4.4199  -12.2537  -51.0270 H         1 UNK         0.0600 
    129 H129       -3.9729  -13.8179  -51.7067 H         1 UNK         0.0600 
    130 H130       -1.7939  -14.3181  -51.8149 H         1 UNK         0.3000 
    131 H131        0.2981  -12.3923  -52.1456 H         1 UNK         0.0600 
    132 H132        0.2576  -14.8675  -52.8997 H         1 UNK         0.0800 
    133 H133        0.5830  -15.3015  -51.2505 H         1 UNK         0.0800 
    134 H134        4.3646  -15.4133  -51.4629 H         1 UNK         0.0800 
    135 H135        3.1490  -15.1307  -50.2401 H         1 UNK         0.0800 
    136 H136        3.2400  -16.8837  -53.5999 H         1 UNK         0.1150 
    137 H137        1.3868  -20.4324  -52.0582 H         1 UNK         0.1150 
    138 H138        2.1616  -17.1222  -49.4565 H         1 UNK         0.1150 
    139 H139        0.5976  -18.8893  -48.8132 H         1 UNK         0.0800 
    140 H140        0.2549  -20.2445  -49.8583 H         1 UNK         0.0800 
    141 H141        0.9249  -19.7664  -46.7725 H         1 UNK         0.0800 
    142 H142        2.4078  -20.5078  -46.2639 H         1 UNK         0.0800 
    143 H143        1.4637  -22.7823  -46.8129 H         1 UNK         0.0600 
    144 H144        0.8314  -21.1590  -44.5922 H         1 UNK         0.3000 
    145 H145       -0.6986  -23.6779  -42.5682 H         1 UNK         0.0600 
    146 H146        1.1111  -22.8740  -41.0796 H         1 UNK         0.0600 
    147 H147        1.7834  -23.8845  -42.3510 H         1 UNK         0.0600 
    148 H148        1.9482  -22.1344  -42.4414 H         1 UNK         0.0600 
    149 H149       -0.1877  -20.9117  -42.1007 H         1 UNK         0.3000 
    150 H150       -3.3848  -19.7064  -43.2337 H         1 UNK         0.0600 
    151 H151       -3.5696  -20.5523  -40.8789 H         1 UNK         0.0600 
    152 H152       -3.3075  -18.8158  -40.9350 H         1 UNK         0.0600 
    153 H153       -1.9778  -19.8931  -40.5168 H         1 UNK         0.0600 
    154 H154       -1.1796  -18.2637  -42.2235 H         1 UNK         0.3000 
    155 H155        0.4610  -17.6203  -45.3662 H         1 UNK         0.0600 
    156 H156       -1.1245  -15.9552  -43.3344 H         1 UNK         0.0600 
    157 H157       -1.3503  -15.9539  -45.0783 H         1 UNK         0.0600 
    158 H158        0.1361  -15.3266  -44.3829 H         1 UNK         0.0600 
    159 H159        1.2311  -16.8359  -42.7919 H         1 UNK         0.3000 
    160 H160        3.1598  -19.6876  -41.8218 H         1 UNK         0.0600 
    161 H161        3.8263  -16.8026  -42.6292 H         1 UNK         0.0600 
    162 H162        4.5758  -18.2528  -43.2806 H         1 UNK         0.0600 
    163 H163        4.8034  -17.8368  -41.5890 H         1 UNK         0.0600 
    164 H164        2.4337  -17.1632  -40.6045 H         1 UNK         0.3000 
    165 H165       -0.2893  -18.4145  -38.6902 H         1 UNK         0.0600 
    166 H166        1.1286  -17.5891  -36.8347 H         1 UNK         0.0600 
    167 H167        1.7509  -19.1185  -37.4333 H         1 UNK         0.0600 
    168 H168        2.5559  -17.6162  -37.8706 H         1 UNK         0.0600 
    169 H169        1.0469  -15.8740  -38.7935 H         1 UNK         0.3000 
    170 H170       -1.1098  -14.4453  -41.2753 H         1 UNK         0.0600 
    171 H171       -2.2871  -14.3712  -39.0629 H         1 UNK         0.0600 
    172 H172       -0.7710  -13.9538  -38.2732 H         1 UNK         0.0600 
    173 H173       -1.4951  -12.8517  -39.4445 H         1 UNK         0.0600 
    174 H174        0.8623  -13.0406  -40.0586 H         1 UNK         0.3000 
    175 H175        2.5335  -12.2971  -41.4507 H         1 UNK         0.0600 
    176 H176        4.4052  -14.6842  -40.9417 H         1 UNK         0.0600 
    177 H177        4.8780  -12.9852  -40.9096 H         1 UNK         0.0600 
    178 H178        3.7614  -13.6095  -39.7062 H         1 UNK         0.0600 
    179 H179        4.1375  -13.9095  -43.2469 H         1 UNK         0.3000 
    180 H180        4.1237  -13.0873  -45.5681 H         1 UNK         0.0600 
    181 H181        1.8243  -15.1038  -45.9297 H         1 UNK         0.0600 
    182 H182        3.2652  -15.4669  -44.9892 H         1 UNK         0.0600 
    183 H183        3.3995  -15.1482  -46.7072 H         1 UNK         0.0600 
    184 H184        1.5902  -11.9906  -46.0446 H         1 UNK         0.3000 
    185 H185        0.7590  -11.2354  -47.9447 H         1 UNK         0.0600 
    186 H186        2.6953   -9.6684  -47.7644 H         1 UNK         0.0600 
    187 H187        3.2899  -10.1999  -49.3325 H         1 UNK         0.0600 
    188 H188        1.7512   -9.3458  -49.2099 H         1 UNK         0.0600 
    189 H189        1.7102  -11.5217  -50.6488 H         1 UNK         0.3000 
    190 H190       -1.4763  -20.7837  -46.1403 H         1 UNK         0.3000 
    191 H191       -2.8559  -21.4170  -48.5338 H         1 UNK         0.0600 
    192 H192       -3.5166  -19.5331  -47.0900 H         1 UNK         0.0600 
    193 H193       -4.8698  -20.6376  -47.2760 H         1 UNK         0.0600 
    194 H194       -3.9397  -20.6345  -45.7805 H         1 UNK         0.0600 
    195 H195       -2.8230  -23.0739  -45.3360 H         1 UNK         0.3000 
    196 H196       -4.7204  -25.0850  -45.9635 H         1 UNK         0.0600 
    197 H197       -3.7192  -26.2866  -44.0215 H         1 UNK         0.0600 
    198 H198       -4.0106  -24.5945  -43.6496 H         1 UNK         0.0600 
    199 H199       -2.3759  -25.1522  -43.9936 H         1 UNK         0.0600 
    200 H200       -1.1390  -25.0635  -46.3253 H         1 UNK         0.3000 
    201 H201       -0.8660  -27.6476  -47.4628 H         1 UNK         0.0600 
    202 H202        1.0324  -26.3499  -46.5304 H         1 UNK         0.0600 
    203 H203        0.8788  -25.1520  -47.8131 H         1 UNK         0.0600 
    204 H204        1.3610  -26.7992  -48.1974 H         1 UNK         0.0600 
    205 H205       -1.6530  -24.5242  -48.9467 H         1 UNK         0.3000 
    206 H206       -1.7044  -25.5191  -51.6813 H         1 UNK         0.0600 
    207 H207       -1.0862  -23.1763  -51.1560 H         1 UNK         0.0600 
    208 H208       -2.5193  -23.2146  -52.1671 H         1 UNK         0.0600 
    209 H209       -2.6681  -22.8942  -50.4430 H         1 UNK         0.0600 
    210 H210       -3.6710  -26.4029  -49.2696 H         1 UNK         0.3000 
    211 H211       -5.6233  -27.3830  -49.0745 H         1 UNK         0.0600 
    212 H212       -5.8710  -27.3169  -52.1261 H         1 UNK         0.0600 
    213 H213       -6.7760  -28.3403  -51.0225 H         1 UNK         0.0600 
    214 H214       -5.0419  -28.5611  -51.1917 H         1 UNK         0.0600 
    215 H215       -5.6781  -24.9273  -48.3487 H         1 UNK         0.3000 
    216 H216       -6.9664  -23.3016  -47.6181 H         1 UNK         0.0600 
    217 H217       -9.4048  -23.2912  -47.8206 H         1 UNK         0.0600 
    218 H218       -8.8694  -24.9259  -47.4669 H         1 UNK         0.0600 
    219 H219       -9.3665  -24.4905  -49.1021 H         1 UNK         0.0600 
    220 H220       -5.2973  -22.9382  -49.5975 H         1 UNK         0.3000 
    221 H221       -4.4678  -21.5039  -51.0081 H         1 UNK         0.0600 
    222 H222       -7.0588  -19.8827  -50.9758 H         1 UNK         0.0600 
    223 H223       -5.7178  -19.6850  -49.8452 H         1 UNK         0.0600 
    224 H224       -5.4888  -19.3527  -51.5548 H         1 UNK         0.0600 
    225 H225       -4.0517  -21.5521  -53.1260 H         1 UNK         0.3000 
    226 H226       -5.8123  -23.1539  -54.8803 H         1 UNK         0.0600 
    227 H227       -3.3971  -23.7064  -54.7381 H         1 UNK         0.0600 
    228 H228       -3.7996  -23.1500  -56.3560 H         1 UNK         0.0600 
    229 H229       -2.9644  -22.0728  -55.2412 H         1 UNK         0.0600 
    230 H230       -4.6931  -19.8568  -54.4193 H         1 UNK         0.3000 
    231 H231       -6.6461  -18.6238  -56.0404 H         1 UNK         0.0600 
    232 H232       -3.7986  -18.6389  -57.2294 H         1 UNK         0.0600 
    233 H233       -5.1159  -17.5929  -57.7701 H         1 UNK         0.0600 
    234 H234       -5.2312  -19.3222  -57.9832 H         1 UNK         0.0600 
    235 H235       -4.0410  -16.6163  -56.3075 H         1 UNK         0.3000 
    236 H236       -4.3322  -15.2511  -53.7644 H         1 UNK         0.0600 
    237 H237       -3.6824  -14.0279  -55.8277 H         1 UNK         0.0600 
    238 H238       -2.4204  -13.8873  -54.6145 H         1 UNK         0.0600 
    239 H239       -2.2116  -14.9924  -55.9669 H         1 UNK         0.0600 
    240 H240       -2.3073  -17.8113  -55.0379 H         1 UNK         0.3000 
    241 H241       -0.4633  -18.0119  -52.8191 H         1 UNK         0.0600 
    242 H242       -1.5519  -18.1506  -50.7998 H         1 UNK         0.3800 
    243 H243       -2.6661  -19.4365  -50.4298 H         1 UNK         0.3800 
    244 H244       -0.1352  -20.3953  -53.8296 H         1 UNK         0.0800 
    245 H245       -1.2576  -19.9364  -55.0682 H         1 UNK         0.0800 
    246 H246        3.1816  -19.0108  -54.9280 H         1 UNK         0.0800 
    247 H247        2.3006  -20.4007  -54.3465 H         1 UNK         0.0800 
@<TRIPOS>BOND
     1    1    2 1    
     2    1  127 1    
     3    1  128 1    
     4    1  129 1    
     5    2    3 2    
     6    2    4 am   BACKBONE|DICT|INTERRES
     7    4    5 1    
     8    4  130 1    
     9    5    6 1    
    10    5   65 1    
    11    5  131 1    
    12    6    7 1    
    13    6  132 1    
    14    6  133 1    
    15    7    8 1    
    16    8    9 1    
    17    8  134 1    
    18    8  135 1    
    19    9   10 ar   
    20    9   14 ar   
    21   10   11 ar   
    22   10  136 1    
    23   11   12 ar   
    24   11  126 1    
    25   12   13 ar   
    26   12  137 1    
    27   13   14 ar   
    28   13   15 1    
    29   14  138 1    
    30   15   16 1    
    31   15  139 1    
    32   15  140 1    
    33   16   17 1    
    34   17   18 1    
    35   17  141 1    
    36   17  142 1    
    37   18   19 1    
    38   18   67 1    
    39   18  143 1    
    40   19   20 am   BACKBONE|DICT|INTERRES
    41   19  144 1    
    42   20   21 2    
    43   20   22 1    
    44   22   23 1    
    45   22   24 1    
    46   22  145 1    
    47   23  146 1    
    48   23  147 1    
    49   23  148 1    
    50   24   25 am   BACKBONE|DICT|INTERRES
    51   24  149 1    
    52   25   26 2    
    53   25   27 1    
    54   27   28 1    
    55   27   29 1    
    56   27  150 1    
    57   28  151 1    
    58   28  152 1    
    59   28  153 1    
    60   29   30 am   BACKBONE|DICT|INTERRES
    61   29  154 1    
    62   30   31 2    
    63   30   32 1    
    64   32   33 1    
    65   32   34 1    
    66   32  155 1    
    67   33  156 1    
    68   33  157 1    
    69   33  158 1    
    70   34   35 am   BACKBONE|DICT|INTERRES
    71   34  159 1    
    72   35   36 2    
    73   35   37 1    
    74   37   38 1    
    75   37   39 1    
    76   37  160 1    
    77   38  161 1    
    78   38  162 1    
    79   38  163 1    
    80   39   40 am   BACKBONE|DICT|INTERRES
    81   39  164 1    
    82   40   41 2    
    83   40   42 1    
    84   42   43 1    
    85   42   44 1    
    86   42  165 1    
    87   43  166 1    
    88   43  167 1    
    89   43  168 1    
    90   44   45 am   BACKBONE|DICT|INTERRES
    91   44  169 1    
    92   45   46 2    
    93   45   47 1    
    94   47   48 1    
    95   47   49 1    
    96   47  170 1    
    97   48  171 1    
    98   48  172 1    
    99   48  173 1    
   100   49   50 am   BACKBONE|DICT|INTERRES
   101   49  174 1    
   102   50   51 2    
   103   50   52 1    
   104   52   53 1    
   105   52   54 1    
   106   52  175 1    
   107   53  176 1    
   108   53  177 1    
   109   53  178 1    
   110   54   55 am   BACKBONE|DICT|INTERRES
   111   54  179 1    
   112   55   56 2    
   113   55   57 1    
   114   57   58 1    
   115   57   59 1    
   116   57  180 1    
   117   58  181 1    
   118   58  182 1    
   119   58  183 1    
   120   59   60 am   BACKBONE|DICT|INTERRES
   121   59  184 1    
   122   60   61 2    
   123   60   62 1    
   124   62   63 1    
   125   62   64 1    
   126   62  185 1    
   127   63  186 1    
   128   63  187 1    
   129   63  188 1    
   130   64   65 am   BACKBONE|DICT|INTERRES
   131   64  189 1    
   132   65   66 2    
   133   67   68 2    
   134   67   69 am   BACKBONE|DICT|INTERRES
   135   69   70 1    
   136   69  190 1    
   137   70   71 1    
   138   70   72 1    
   139   70  191 1    
   140   71  192 1    
   141   71  193 1    
   142   71  194 1    
   143   72   73 2    
   144   72   74 am   BACKBONE|DICT|INTERRES
   145   74   75 1    
   146   74  195 1    
   147   75   76 1    
   148   75   77 1    
   149   75  196 1    
   150   76  197 1    
   151   76  198 1    
   152   76  199 1    
   153   77   78 2    
   154   77   79 am   BACKBONE|DICT|INTERRES
   155   79   80 1    
   156   79  200 1    
   157   80   81 1    
   158   80   82 1    
   159   80  201 1    
   160   81  202 1    
   161   81  203 1    
   162   81  204 1    
   163   82   83 2    
   164   82   84 am   BACKBONE|DICT|INTERRES
   165   84   85 1    
   166   84  205 1    
   167   85   86 1    
   168   85   87 1    
   169   85  206 1    
   170   86  207 1    
   171   86  208 1    
   172   86  209 1    
   173   87   88 2    
   174   87   89 am   BACKBONE|DICT|INTERRES
   175   89   90 1    
   176   89  210 1    
   177   90   91 1    
   178   90   92 1    
   179   90  211 1    
   180   91  212 1    
   181   91  213 1    
   182   91  214 1    
   183   92   93 2    
   184   92   94 am   BACKBONE|DICT|INTERRES
   185   94   95 1    
   186   94  215 1    
   187   95   96 1    
   188   95   97 1    
   189   95  216 1    
   190   96  217 1    
   191   96  218 1    
   192   96  219 1    
   193   97   98 2    
   194   97   99 am   BACKBONE|DICT|INTERRES
   195   99  100 1    
   196   99  220 1    
   197  100  101 1    
   198  100  102 1    
   199  100  221 1    
   200  101  222 1    
   201  101  223 1    
   202  101  224 1    
   203  102  103 2    
   204  102  104 am   BACKBONE|DICT|INTERRES
   205  104  105 1    
   206  104  225 1    
   207  105  106 1    
   208  105  107 1    
   209  105  226 1    
   210  106  227 1    
   211  106  228 1    
   212  106  229 1    
   213  107  108 2    
   214  107  109 am   BACKBONE|DICT|INTERRES
   215  109  110 1    
   216  109  230 1    
   217  110  111 1    
   218  110  112 1    
   219  110  231 1    
   220  111  232 1    
   221  111  233 1    
   222  111  234 1    
   223  112  113 2    
   224  112  114 am   BACKBONE|DICT|INTERRES
   225  114  115 1    
   226  114  235 1    
   227  115  116 1    
   228  115  117 1    
   229  115  236 1    
   230  116  237 1    
   231  116  238 1    
   232  116  239 1    
   233  117  118 2    
   234  117  119 am   BACKBONE|DICT|INTERRES
   235  119  120 1    
   236  119  240 1    
   237  120  121 1    
   238  120  124 1    
   239  120  241 1    
   240  121  122 am   BACKBONE|DICT|INTERRES
   241  121  123 2    
   242  122  242 1    
   243  122  243 1    
   244  124  125 1    
   245  124  244 1    
   246  124  245 1    
   247  125  126 1    
   248  126  246 1    
   249  126  247 1    
@<TRIPOS>SUBSTRUCTURE
     1 UNK         1 GROUP             0       ****    0 ROOT    
