@<TRIPOS>MOLECULE
3R540
247   249    1
SMALL
USER_CHARGES


@<TRIPOS>ATOM
      1 CA         -3.0616   -8.2211  -48.7500 C.3       0 UNK        -0.1800 
      2 C          -2.5270   -9.6439  -48.6738 C.2       0 UNK         0.5000 
      3 O          -1.9604  -10.0299  -47.6524 O.2       0 UNK        -0.5000 
      4 N          -2.6899  -10.4173  -49.7571 N.am      1 UNK        -0.5000 
      5 CA         -2.2873  -11.8263  -49.9099 C.3       1 UNK         0.1400 
      6 C6         -2.8816  -12.7406  -48.7991 C.3       23 UNK        -0.0398 
      7 S7         -3.1732  -14.4549  -49.3510 S.3       23 UNK        -0.2404 
      8 C8         -1.8791  -15.3342  -48.4246 C.3       23 UNK        -0.0205 
      9 C9         -1.3926  -16.5653  -49.1698 C.ar      23 UNK        -0.0193 
     10 C10        -0.1480  -16.5591  -49.8051 C.ar      23 UNK        -0.1150 
     11 C11         0.3208  -17.6941  -50.4750 C.ar      23 UNK        -0.0193 
     12 C12        -0.4821  -18.8379  -50.5098 C.ar      23 UNK        -0.1150 
     13 C13        -1.7237  -18.8670  -49.8603 C.ar      23 UNK        -0.0193 
     14 C14        -2.1727  -17.7220  -49.1982 C.ar      23 UNK        -0.1150 
     15 C15        -2.6005  -20.1169  -49.8519 C.3       23 UNK        -0.0205 
     16 S16        -1.6685  -21.6819  -49.7558 S.3       23 UNK        -0.2404 
     17 C17        -0.8869  -21.4838  -48.1194 C.3       23 UNK        -0.0398 
     18 CA         -0.8022  -22.7905  -47.3000 C.3       11 UNK         0.1400 
     19 N           0.0489  -22.6106  -46.1209 N.am      11 UNK        -0.5000 
     20 C           0.4594  -23.5945  -45.3098 C.2       10 UNK         0.5000 
     21 O           0.2026  -24.7826  -45.4938 O.2       10 UNK        -0.5000 
     22 CA          1.2363  -23.1777  -44.0487 C.3       10 UNK         0.1400 
     23 CB          2.7073  -22.8875  -44.3803 C.3       10 UNK        -0.1800 
     24 N           0.6354  -22.0201  -43.3847 N.am      10 UNK        -0.5000 
     25 C          -0.5918  -22.0135  -42.8438 C.2       9 UNK         0.5000 
     26 O          -1.3159  -23.0075  -42.7882 O.2       9 UNK        -0.5000 
     27 CA         -1.1199  -20.6625  -42.3266 C.3       9 UNK         0.1400 
     28 CB         -0.5733  -20.3589  -40.9242 C.3       9 UNK        -0.1800 
     29 N          -0.8064  -19.5530  -43.2278 N.am      9 UNK        -0.5000 
     30 C          -1.2644  -19.4323  -44.4821 C.2       8 UNK         0.5000 
     31 O          -2.0457  -20.2260  -45.0035 O.2       8 UNK        -0.5000 
     32 CA         -0.7145  -18.2587  -45.3104 C.3       8 UNK         0.1400 
     33 CB         -1.4622  -16.9575  -44.9889 C.3       8 UNK        -0.1800 
     34 N           0.7182  -18.0711  -45.0919 N.am      8 UNK        -0.5000 
     35 C           1.6611  -18.9291  -45.5031 C.2       7 UNK         0.5000 
     36 O           1.4203  -19.9533  -46.1436 O.2       7 UNK        -0.5000 
     37 CA          3.1069  -18.6249  -45.0694 C.3       7 UNK         0.1400 
     38 CB          3.7842  -17.6415  -46.0315 C.3       7 UNK        -0.1800 
     39 N           3.1824  -18.0999  -43.7051 N.am      7 UNK        -0.5000 
     40 C           2.9332  -18.8327  -42.6118 C.2       6 UNK         0.5000 
     41 O           2.6412  -20.0276  -42.6455 O.2       6 UNK        -0.5000 
     42 CA          2.9793  -18.1056  -41.2554 C.3       6 UNK         0.1400 
     43 CB          4.4123  -18.0869  -40.7034 C.3       6 UNK        -0.1800 
     44 N           2.4557  -16.7372  -41.2869 N.am      6 UNK        -0.5000 
     45 C           1.2147  -16.3898  -41.6547 C.2       5 UNK         0.5000 
     46 O           0.3857  -17.1924  -42.0842 O.2       5 UNK        -0.5000 
     47 CA          0.8085  -14.9095  -41.5090 C.3       5 UNK         0.1400 
     48 CB          1.8452  -14.0323  -40.7695 C.3       5 UNK        -0.1800 
     49 N           0.4394  -14.3064  -42.7936 N.am      5 UNK        -0.5000 
     50 C           1.2305  -14.1322  -43.8617 C.2       4 UNK         0.5000 
     51 O           2.3990  -14.5262  -43.9181 O.2       4 UNK        -0.5000 
     52 CA          0.6015  -13.3547  -45.0411 C.3       4 UNK         0.1400 
     53 CB          0.1674  -11.9411  -44.6150 C.3       4 UNK        -0.1800 
     54 N           1.5123  -13.2198  -46.1756 N.am      4 UNK        -0.5000 
     55 C           1.8488  -14.1992  -47.0199 C.2       3 UNK         0.5000 
     56 O           1.3478  -15.3232  -46.9954 O.2       3 UNK        -0.5000 
     57 CA          2.8948  -13.8245  -48.0863 C.3       3 UNK         0.1400 
     58 CB          3.4988  -15.0467  -48.7955 C.3       3 UNK        -0.1800 
     59 N           2.2982  -12.9420  -49.0858 N.am      3 UNK        -0.5000 
     60 C           2.1842  -11.6142  -48.9718 C.2       2 UNK         0.5000 
     61 O           2.5916  -10.9779  -47.9985 O.2       2 UNK        -0.5000 
     62 CA          1.4853  -10.8695  -50.1251 C.3       2 UNK         0.1400 
     63 CB          1.9876  -11.3086  -51.5179 C.3       2 UNK        -0.1800 
     64 N           0.0246  -10.9407  -50.0263 N.am      2 UNK        -0.5000 
     65 C          -0.7612  -12.0250  -50.1085 C.2       1 UNK         0.5000 
     66 O          -0.3280  -13.1457  -50.3722 O.2       1 UNK        -0.5000 
     67 C          -2.1954  -23.3488  -46.9307 C.2       11 UNK         0.5000 
     68 O          -2.6838  -24.2579  -47.6037 O.2       11 UNK        -0.5000 
     69 N          -2.7964  -22.8358  -45.8485 N.am      12 UNK        -0.5000 
     70 CA         -4.0620  -23.3212  -45.2961 C.3       12 UNK         0.1400 
     71 CB         -4.5396  -22.3810  -44.1803 C.3       12 UNK        -0.1800 
     72 C          -3.9907  -24.7776  -44.8050 C.2       12 UNK         0.5000 
     73 O          -4.9505  -25.5245  -44.9934 O.2       12 UNK        -0.5000 
     74 N          -2.8550  -25.1609  -44.2105 N.am      13 UNK        -0.5000 
     75 CA         -2.5894  -26.5201  -43.7504 C.3       13 UNK         0.1400 
     76 CB         -1.4343  -26.4979  -42.7363 C.3       13 UNK        -0.1800 
     77 C          -2.2894  -27.4898  -44.9088 C.2       13 UNK         0.5000 
     78 O          -2.9107  -28.5503  -44.9881 O.2       13 UNK        -0.5000 
     79 N          -1.3239  -27.1295  -45.7641 N.am      14 UNK        -0.5000 
     80 CA         -0.7439  -28.0274  -46.7636 C.3       14 UNK         0.1400 
     81 CB          0.7052  -27.5978  -47.0417 C.3       14 UNK        -0.1800 
     82 C          -1.5314  -28.0940  -48.0817 C.2       14 UNK         0.5000 
     83 O          -1.5676  -29.1594  -48.6992 O.2       14 UNK        -0.5000 
     84 N          -2.1142  -26.9673  -48.5089 N.am      15 UNK        -0.5000 
     85 CA         -2.7367  -26.8030  -49.8261 C.3       15 UNK         0.1400 
     86 CB         -1.9317  -25.7581  -50.6213 C.3       15 UNK        -0.1800 
     87 C          -4.2197  -26.4062  -49.7307 C.2       15 UNK         0.5000 
     88 O          -4.8028  -26.0227  -50.7454 O.2       15 UNK        -0.5000 
     89 N          -4.8017  -26.4590  -48.5217 N.am      16 UNK        -0.5000 
     90 CA         -6.1857  -26.0847  -48.1909 C.3       16 UNK         0.1400 
     91 CB         -7.1767  -27.0817  -48.8273 C.3       16 UNK        -0.1800 
     92 C          -6.5316  -24.6155  -48.5311 C.2       16 UNK         0.5000 
     93 O          -7.7032  -24.2910  -48.7297 O.2       16 UNK        -0.5000 
     94 N          -5.4974  -23.7648  -48.6183 N.am      17 UNK        -0.5000 
     95 CA         -5.5141  -22.3696  -49.0646 C.3       17 UNK         0.1400 
     96 CB         -6.2981  -21.4718  -48.0837 C.3       17 UNK        -0.1800 
     97 C          -5.9620  -22.1786  -50.5322 C.2       17 UNK         0.5000 
     98 O          -6.3943  -21.0828  -50.8923 O.2       17 UNK        -0.5000 
     99 N          -5.8522  -23.2293  -51.3619 N.am      18 UNK        -0.5000 
    100 CA        -6.3012  -23.2280  -52.7575 C.3       18 UNK         0.1400 
    101 CB        -6.2868  -24.6640  -53.3014 C.3       18 UNK        -0.1800 
    102 C         -5.4771  -22.2986  -53.6672 C.2       18 UNK         0.5000 
    103 O         -6.0358  -21.6845  -54.5769 O.2       18 UNK        -0.5000 
    104 N         -4.1730  -22.1802  -53.3887 N.am      19 UNK        -0.5000 
    105 CA        -3.2318  -21.3090  -54.0951 C.3       19 UNK         0.1400 
    106 CB        -1.8321  -21.9482  -54.0326 C.3       19 UNK        -0.1800 
    107 C         -3.2534  -19.8787  -53.5181 C.2       19 UNK         0.5000 
    108 O         -2.2032  -19.3492  -53.1572 O.2       19 UNK        -0.5000 
    109 N         -4.4547  -19.2981  -53.3875 N.am      20 UNK        -0.5000 
    110 CA        -4.7188  -17.9941  -52.7734 C.3       20 UNK         0.1400 
    111 CB        -6.2253  -17.7051  -52.8393 C.3       20 UNK        -0.1800 
    112 C         -3.9150  -16.8515  -53.4219 C.2       20 UNK         0.5000 
    113 O         -3.8010  -16.8052  -54.6502 O.2       20 UNK        -0.5000 
    114 N         -3.3415  -15.9807  -52.5775 N.am      21 UNK        -0.5000 
    115 CA        -2.4094  -14.8981  -52.9289 C.3       21 UNK         0.1400 
    116 CB        -3.1457  -13.7630  -53.6684 C.3       21 UNK        -0.1800 
    117 C         -1.1509  -15.3938  -53.6749 C.2       21 UNK         0.5000 
    118 O         -0.5743  -14.6583  -54.4782 O.2       21 UNK        -0.5000 
    119 N         -0.7733  -16.6481  -53.4003 N.am      22 UNK        -0.5000 
    120 CA         0.3118  -17.4114  -54.0271 C.3       22 UNK         0.1400 
    121 C          0.0407  -17.8095  -55.5109 C.2       22 UNK         0.5000 
    122 N         -1.1853  -17.7156  -56.0156 N.am      22 UNK        -0.7600 
    123 O          0.9513  -18.2370  -56.2158 O.2       22 UNK        -0.5000 
    124 C124        1.7166  -16.7784  -53.8192 C.3       23 UNK        -0.0398 
    125 S125        2.1104  -16.2519  -52.1105 S.3       23 UNK        -0.2404 
    126 C126        1.7160  -17.7217  -51.0984 C.3       23 UNK        -0.0205 
    127 H127       -3.5257   -8.0125  -49.7143 H         1 UNK         0.0600 
    128 H128       -2.2517   -7.5071  -48.6006 H         1 UNK         0.0600 
    129 H129       -3.8075   -8.0593  -47.9719 H         1 UNK         0.0600 
    130 H130       -3.1464  -10.0200  -50.5671 H         1 UNK         0.3000 
    131 H131       -2.7373  -12.1276  -50.8571 H         1 UNK         0.0600 
    132 H132       -3.8556  -12.3577  -48.4916 H         1 UNK         0.0800 
    133 H133       -2.2664  -12.7211  -47.8980 H         1 UNK         0.0800 
    134 H134       -2.2809  -15.6223  -47.4542 H         1 UNK         0.0800 
    135 H135       -1.0371  -14.6702  -48.2257 H         1 UNK         0.0800 
    136 H136        0.4625  -15.6690  -49.7641 H         1 UNK         0.1150 
    137 H137       -0.1303  -19.7171  -51.0298 H         1 UNK         0.1150 
    138 H138       -3.1299  -17.7279  -48.6959 H         1 UNK         0.1150 
    139 H139       -3.2891  -20.0747  -49.0071 H         1 UNK         0.0800 
    140 H140       -3.2213  -20.1275  -50.7446 H         1 UNK         0.0800 
    141 H141       -1.4095  -20.7145  -47.5500 H         1 UNK         0.0800 
    142 H142        0.1163  -21.0919  -48.2932 H         1 UNK         0.0800 
    143 H143       -0.3152  -23.5420  -47.9254 H         1 UNK         0.0600 
    144 H144        0.3442  -21.6608  -45.9183 H         1 UNK         0.3000 
    145 H145        1.2065  -24.0157  -43.3493 H         1 UNK         0.0600 
    146 H146        3.2783  -22.6701  -43.4775 H         1 UNK         0.0600 
    147 H147        2.8104  -22.0364  -45.0533 H         1 UNK         0.0600 
    148 H148        3.1754  -23.7467  -44.8623 H         1 UNK         0.0600 
    149 H149        1.2019  -21.1790  -43.3318 H         1 UNK         0.3000 
    150 H150       -2.2071  -20.7349  -42.2579 H         1 UNK         0.0600 
    151 H151       -0.8459  -21.1470  -40.2213 H         1 UNK         0.0600 
    152 H152       -0.9763  -19.4226  -40.5377 H         1 UNK         0.0600 
    153 H153        0.5136  -20.2807  -40.9232 H         1 UNK         0.0600 
    154 H154       -0.2085  -18.8171  -42.8605 H         1 UNK         0.3000 
    155 H155       -0.8677  -18.4850  -46.3680 H         1 UNK         0.0600 
    156 H156       -1.4112  -16.7048  -43.9301 H         1 UNK         0.0600 
    157 H157       -2.5163  -17.0407  -45.2555 H         1 UNK         0.0600 
    158 H158       -1.0451  -16.1235  -45.5505 H         1 UNK         0.0600 
    159 H159        0.9955  -17.2745  -44.5377 H         1 UNK         0.3000 
    160 H160        3.6620  -19.5647  -45.1074 H         1 UNK         0.0600 
    161 H161        3.3669  -16.6402  -45.9334 H         1 UNK         0.0600 
    162 H162        3.6589  -17.9549  -47.0689 H         1 UNK         0.0600 
    163 H163        4.8546  -17.5755  -45.8366 H         1 UNK         0.0600 
    164 H164        3.3819  -17.1148  -43.5980 H         1 UNK         0.3000 
    165 H165        2.3579  -18.6743  -40.5611 H         1 UNK         0.0600 
    166 H166        4.4424  -17.6705  -39.6963 H         1 UNK         0.0600 
    167 H167        4.8230  -19.0961  -40.6482 H         1 UNK         0.0600 
    168 H168        5.0785  -17.4952  -41.3324 H         1 UNK         0.0600 
    169 H169        3.0780  -16.0100  -40.9659 H         1 UNK         0.3000 
    170 H170       -0.0994  -14.9127  -40.9042 H         1 UNK         0.0600 
    171 H171        2.0532  -14.4235  -39.7727 H         1 UNK         0.0600 
    172 H172        2.7921  -13.9640  -41.3059 H         1 UNK         0.0600 
    173 H173        1.4697  -13.0172  -40.6393 H         1 UNK         0.0600 
    174 H174       -0.5150  -13.9806  -42.8498 H         1 UNK         0.3000 
    175 H175       -0.2829  -13.9008  -45.3733 H         1 UNK         0.0600 
    176 H176        1.0093  -11.3603  -44.2359 H         1 UNK         0.0600 
    177 H177       -0.2654  -11.3935  -45.4532 H         1 UNK         0.0600 
    178 H178       -0.5903  -11.9717  -43.8315 H         1 UNK         0.0600 
    179 H179        1.9593  -12.3198  -46.2937 H         1 UNK         0.3000 
    180 H180        3.7133  -13.3031  -47.5853 H         1 UNK         0.0600 
    181 H181        4.1862  -14.7476  -49.5869 H         1 UNK         0.0600 
    182 H182        2.7297  -15.6740  -49.2406 H         1 UNK         0.0600 
    183 H183        4.0611  -15.6629  -48.0953 H         1 UNK         0.0600 
    184 H184        1.8158  -13.3880  -49.8566 H         1 UNK         0.3000 
    185 H185        1.7419   -9.8150  -50.0118 H         1 UNK         0.0600 
    186 H186        1.7459  -12.3465  -51.7475 H         1 UNK         0.0600 
    187 H187        1.5525  -10.6885  -52.3016 H         1 UNK         0.0600 
    188 H188        3.0710  -11.2055  -51.5881 H         1 UNK         0.0600 
    189 H189       -0.4309  -10.0725  -49.7842 H         1 UNK         0.3000 
    190 H190       -2.3714  -22.0389  -45.3809 H         1 UNK         0.3000 
    191 H191       -4.8043  -23.2926  -46.0909 H         1 UNK         0.0600 
    192 H192       -4.6565  -21.3613  -44.5478 H         1 UNK         0.0600 
    193 H193       -3.8411  -22.3575  -43.3445 H         1 UNK         0.0600 
    194 H194       -5.5069  -22.6994  -43.7901 H         1 UNK         0.0600 
    195 H195       -2.1336  -24.4679  -44.0439 H         1 UNK         0.3000 
    196 H196       -3.4775  -26.8870  -43.2312 H         1 UNK         0.0600 
    197 H197       -1.6811  -25.8776  -41.8745 H         1 UNK         0.0600 
    198 H198       -0.5159  -26.1059  -43.1742 H         1 UNK         0.0600 
    199 H199       -1.2201  -27.5010  -42.3655 H         1 UNK         0.0600 
    200 H200       -0.8520  -26.2357  -45.6330 H         1 UNK         0.3000 
    201 H201       -0.7119  -29.0374  -46.3487 H         1 UNK         0.0600 
    202 H202        1.2971  -27.5889  -46.1263 H         1 UNK         0.0600 
    203 H203        0.7520  -26.6000  -47.4801 H         1 UNK         0.0600 
    204 H204        1.1905  -28.2842  -47.7368 H         1 UNK         0.0600 
    205 H205       -2.0728  -26.1286  -47.9377 H         1 UNK         0.3000 
    206 H206       -2.7119  -27.7395  -50.3861 H         1 UNK         0.0600 
    207 H207       -1.9707  -24.7755  -50.1511 H         1 UNK         0.0600 
    208 H208       -0.8840  -26.0475  -50.7028 H         1 UNK         0.0600 
    209 H209       -2.3158  -25.6506  -51.6365 H         1 UNK         0.0600 
    210 H210       -4.2303  -26.7576  -47.7438 H         1 UNK         0.3000 
    211 H211       -6.2829  -26.1771  -47.1099 H         1 UNK         0.0600 
    212 H212       -7.1963  -26.9958  -49.9142 H         1 UNK         0.0600 
    213 H213       -8.1918  -26.9094  -48.4680 H         1 UNK         0.0600 
    214 H214       -6.9168  -28.1101  -48.5764 H         1 UNK         0.0600 
    215 H215       -4.5743  -24.1396  -48.4220 H         1 UNK         0.3000 
    216 H216       -4.4745  -22.0551  -49.0289 H         1 UNK         0.0600 
    217 H217       -6.1972  -20.4192  -48.3506 H         1 UNK         0.0600 
    218 H218       -5.9316  -21.5727  -47.0638 H         1 UNK         0.0600 
    219 H219       -7.3629  -21.7054  -48.0832 H         1 UNK         0.0600 
    220 H220       -5.4953  -24.1100  -51.0046 H         1 UNK         0.3000 
    221 H221       -7.3336  -22.8725  -52.7738 H         1 UNK         0.0600 
    222 H222       -5.2784  -25.0796  -53.3124 H         1 UNK         0.0600 
    223 H223       -6.9127  -25.3211  -52.6970 H         1 UNK         0.0600 
    224 H224       -6.6680  -24.6994  -54.3227 H         1 UNK         0.0600 
    225 H225       -3.8076  -22.6883  -52.5967 H         1 UNK         0.3000 
    226 H226       -3.5182  -21.2380  -55.1464 H         1 UNK         0.0600 
    227 H227       -1.8341  -22.9469  -54.4694 H         1 UNK         0.0600 
    228 H228       -1.1053  -21.3534  -54.5876 H         1 UNK         0.0600 
    229 H229       -1.4735  -22.0313  -53.0056 H         1 UNK         0.0600 
    230 H230       -5.2600  -19.8114  -53.7220 H         1 UNK         0.3000 
    231 H231       -4.4303  -18.0707  -51.7231 H         1 UNK         0.0600 
    232 H232       -6.4619  -16.7514  -52.3658 H         1 UNK         0.0600 
    233 H233       -6.7970  -18.4758  -52.3214 H         1 UNK         0.0600 
    234 H234       -6.5797  -17.6584  -53.8699 H         1 UNK         0.0600 
    235 H235       -3.4839  -16.1067  -51.5844 H         1 UNK         0.3000 
    236 H236       -2.0399  -14.4916  -51.9889 H         1 UNK         0.0600 
    237 H237       -3.4914  -14.0796  -54.6528 H         1 UNK         0.0600 
    238 H238       -4.0113  -13.4215  -53.1009 H         1 UNK         0.0600 
    239 H239       -2.4928  -12.9013  -53.8112 H         1 UNK         0.0600 
    240 H240       -1.3368  -17.1862  -52.7553 H         1 UNK         0.3000 
    241 H241        0.3137  -18.3664  -53.5031 H         1 UNK         0.0600 
    242 H242       -1.3478  -17.9802  -56.9737 H         1 UNK         0.3800 
    243 H243       -1.9565  -17.3829  -55.4478 H         1 UNK         0.3800 
    244 H244        1.8315  -15.9063  -54.4643 H         1 UNK         0.0800 
    245 H245        2.4907  -17.4813  -54.1308 H         1 UNK         0.0800 
    246 H246        2.4409  -17.7838  -50.2864 H         1 UNK         0.0800 
    247 H247        1.8633  -18.6231  -51.6944 H         1 UNK         0.0800 
@<TRIPOS>BOND
     1    1    2 1    
     2    1  127 1    
     3    1  128 1    
     4    1  129 1    
     5    2    3 2    
     6    2    4 am   BACKBONE|DICT|INTERRES
     7    4    5 1    
     8    4  130 1    
     9    5    6 1    
    10    5   65 1    
    11    5  131 1    
    12    6    7 1    
    13    6  132 1    
    14    6  133 1    
    15    7    8 1    
    16    8    9 1    
    17    8  134 1    
    18    8  135 1    
    19    9   10 ar   
    20    9   14 ar   
    21   10   11 ar   
    22   10  136 1    
    23   11   12 ar   
    24   11  126 1    
    25   12   13 ar   
    26   12  137 1    
    27   13   14 ar   
    28   13   15 1    
    29   14  138 1    
    30   15   16 1    
    31   15  139 1    
    32   15  140 1    
    33   16   17 1    
    34   17   18 1    
    35   17  141 1    
    36   17  142 1    
    37   18   19 1    
    38   18   67 1    
    39   18  143 1    
    40   19   20 am   BACKBONE|DICT|INTERRES
    41   19  144 1    
    42   20   21 2    
    43   20   22 1    
    44   22   23 1    
    45   22   24 1    
    46   22  145 1    
    47   23  146 1    
    48   23  147 1    
    49   23  148 1    
    50   24   25 am   BACKBONE|DICT|INTERRES
    51   24  149 1    
    52   25   26 2    
    53   25   27 1    
    54   27   28 1    
    55   27   29 1    
    56   27  150 1    
    57   28  151 1    
    58   28  152 1    
    59   28  153 1    
    60   29   30 am   BACKBONE|DICT|INTERRES
    61   29  154 1    
    62   30   31 2    
    63   30   32 1    
    64   32   33 1    
    65   32   34 1    
    66   32  155 1    
    67   33  156 1    
    68   33  157 1    
    69   33  158 1    
    70   34   35 am   BACKBONE|DICT|INTERRES
    71   34  159 1    
    72   35   36 2    
    73   35   37 1    
    74   37   38 1    
    75   37   39 1    
    76   37  160 1    
    77   38  161 1    
    78   38  162 1    
    79   38  163 1    
    80   39   40 am   BACKBONE|DICT|INTERRES
    81   39  164 1    
    82   40   41 2    
    83   40   42 1    
    84   42   43 1    
    85   42   44 1    
    86   42  165 1    
    87   43  166 1    
    88   43  167 1    
    89   43  168 1    
    90   44   45 am   BACKBONE|DICT|INTERRES
    91   44  169 1    
    92   45   46 2    
    93   45   47 1    
    94   47   48 1    
    95   47   49 1    
    96   47  170 1    
    97   48  171 1    
    98   48  172 1    
    99   48  173 1    
   100   49   50 am   BACKBONE|DICT|INTERRES
   101   49  174 1    
   102   50   51 2    
   103   50   52 1    
   104   52   53 1    
   105   52   54 1    
   106   52  175 1    
   107   53  176 1    
   108   53  177 1    
   109   53  178 1    
   110   54   55 am   BACKBONE|DICT|INTERRES
   111   54  179 1    
   112   55   56 2    
   113   55   57 1    
   114   57   58 1    
   115   57   59 1    
   116   57  180 1    
   117   58  181 1    
   118   58  182 1    
   119   58  183 1    
   120   59   60 am   BACKBONE|DICT|INTERRES
   121   59  184 1    
   122   60   61 2    
   123   60   62 1    
   124   62   63 1    
   125   62   64 1    
   126   62  185 1    
   127   63  186 1    
   128   63  187 1    
   129   63  188 1    
   130   64   65 am   BACKBONE|DICT|INTERRES
   131   64  189 1    
   132   65   66 2    
   133   67   68 2    
   134   67   69 am   BACKBONE|DICT|INTERRES
   135   69   70 1    
   136   69  190 1    
   137   70   71 1    
   138   70   72 1    
   139   70  191 1    
   140   71  192 1    
   141   71  193 1    
   142   71  194 1    
   143   72   73 2    
   144   72   74 am   BACKBONE|DICT|INTERRES
   145   74   75 1    
   146   74  195 1    
   147   75   76 1    
   148   75   77 1    
   149   75  196 1    
   150   76  197 1    
   151   76  198 1    
   152   76  199 1    
   153   77   78 2    
   154   77   79 am   BACKBONE|DICT|INTERRES
   155   79   80 1    
   156   79  200 1    
   157   80   81 1    
   158   80   82 1    
   159   80  201 1    
   160   81  202 1    
   161   81  203 1    
   162   81  204 1    
   163   82   83 2    
   164   82   84 am   BACKBONE|DICT|INTERRES
   165   84   85 1    
   166   84  205 1    
   167   85   86 1    
   168   85   87 1    
   169   85  206 1    
   170   86  207 1    
   171   86  208 1    
   172   86  209 1    
   173   87   88 2    
   174   87   89 am   BACKBONE|DICT|INTERRES
   175   89   90 1    
   176   89  210 1    
   177   90   91 1    
   178   90   92 1    
   179   90  211 1    
   180   91  212 1    
   181   91  213 1    
   182   91  214 1    
   183   92   93 2    
   184   92   94 am   BACKBONE|DICT|INTERRES
   185   94   95 1    
   186   94  215 1    
   187   95   96 1    
   188   95   97 1    
   189   95  216 1    
   190   96  217 1    
   191   96  218 1    
   192   96  219 1    
   193   97   98 2    
   194   97   99 am   BACKBONE|DICT|INTERRES
   195   99  100 1    
   196   99  220 1    
   197  100  101 1    
   198  100  102 1    
   199  100  221 1    
   200  101  222 1    
   201  101  223 1    
   202  101  224 1    
   203  102  103 2    
   204  102  104 am   BACKBONE|DICT|INTERRES
   205  104  105 1    
   206  104  225 1    
   207  105  106 1    
   208  105  107 1    
   209  105  226 1    
   210  106  227 1    
   211  106  228 1    
   212  106  229 1    
   213  107  108 2    
   214  107  109 am   BACKBONE|DICT|INTERRES
   215  109  110 1    
   216  109  230 1    
   217  110  111 1    
   218  110  112 1    
   219  110  231 1    
   220  111  232 1    
   221  111  233 1    
   222  111  234 1    
   223  112  113 2    
   224  112  114 am   BACKBONE|DICT|INTERRES
   225  114  115 1    
   226  114  235 1    
   227  115  116 1    
   228  115  117 1    
   229  115  236 1    
   230  116  237 1    
   231  116  238 1    
   232  116  239 1    
   233  117  118 2    
   234  117  119 am   BACKBONE|DICT|INTERRES
   235  119  120 1    
   236  119  240 1    
   237  120  121 1    
   238  120  124 1    
   239  120  241 1    
   240  121  122 am   BACKBONE|DICT|INTERRES
   241  121  123 2    
   242  122  242 1    
   243  122  243 1    
   244  124  125 1    
   245  124  244 1    
   246  124  245 1    
   247  125  126 1    
   248  126  246 1    
   249  126  247 1    
@<TRIPOS>SUBSTRUCTURE
     1 UNK         1 GROUP             0       ****    0 ROOT    
