@<TRIPOS>MOLECULE
3R540
247   249    1
SMALL
USER_CHARGES


@<TRIPOS>ATOM
      1 CA         -2.6729  -12.9593  -51.1143 C.3       0 UNK        -0.1800 
      2 C          -2.4894  -13.0442  -49.6012 C.2       0 UNK         0.5000 
      3 O          -2.8640  -12.1136  -48.8917 O.2       0 UNK        -0.5000 
      4 N          -1.9304  -14.1321  -49.0569 N.am      1 UNK        -0.5000 
      5 CA         -1.3474  -15.2723  -49.7686 C.3       1 UNK         0.1400 
      6 C6         -1.4282  -16.5516  -48.9029 C.3       23 UNK        -0.0398 
      7 S7         -1.1912  -18.0778  -49.8668 S.3       23 UNK        -0.2404 
      8 C8          0.5419  -18.4567  -49.4700 C.3       23 UNK        -0.0205 
      9 C9          0.9983  -19.7055  -50.1988 C.ar      23 UNK        -0.0193 
     10 C10         1.4541  -19.6229  -51.5141 C.ar      23 UNK        -0.1150 
     11 C11         1.8497  -20.7731  -52.2002 C.ar      23 UNK        -0.0193 
     12 C12         1.7937  -22.0145  -51.5569 C.ar      23 UNK        -0.1150 
     13 C13         1.3420  -22.1095  -50.2352 C.ar      23 UNK        -0.0193 
     14 C14         0.9523  -20.9466  -49.5644 C.ar      23 UNK        -0.1150 
     15 C15         1.2362  -23.4672  -49.5502 C.3       23 UNK        -0.0205 
     16 S16         2.4789  -23.6986  -48.2388 S.3       23 UNK        -0.2404 
     17 C17         1.7201  -22.7854  -46.8516 C.3       23 UNK        -0.0398 
     18 CA          1.9486  -23.4387  -45.4693 C.3       11 UNK         0.1400 
     19 N           1.6431  -22.5037  -44.3849 N.am      11 UNK        -0.5000 
     20 C           2.0240  -22.6499  -43.1080 C.2       10 UNK         0.5000 
     21 O           2.7169  -23.5828  -42.7008 O.2       10 UNK        -0.5000 
     22 CA          1.5522  -21.5697  -42.1141 C.3       10 UNK         0.1400 
     23 CB          2.4904  -20.3539  -42.1465 C.3       10 UNK        -0.1800 
     24 N           0.1803  -21.1310  -42.3691 N.am      10 UNK        -0.5000 
     25 C          -0.9044  -21.8971  -42.1863 C.2       9 UNK         0.5000 
     26 O          -0.8730  -23.0261  -41.6976 O.2       9 UNK        -0.5000 
     27 CA         -2.2503  -21.3153  -42.6560 C.3       9 UNK         0.1400 
     28 CB         -2.9150  -20.4962  -41.5394 C.3       9 UNK        -0.1800 
     29 N          -2.1194  -20.4867  -43.8563 N.am      9 UNK        -0.5000 
     30 C          -1.7675  -20.9492  -45.0636 C.2       8 UNK         0.5000 
     31 O          -1.5510  -22.1345  -45.3069 O.2       8 UNK        -0.5000 
     32 CA         -1.6222  -19.9025  -46.1761 C.3       8 UNK         0.1400 
     33 CB         -3.0084  -19.4662  -46.6684 C.3       8 UNK        -0.1800 
     34 N          -0.8556  -18.7385  -45.7342 N.am      8 UNK        -0.5000 
     35 C           0.4529  -18.7799  -45.4343 C.2       7 UNK         0.5000 
     36 O           1.1423  -19.7899  -45.5655 O.2       7 UNK        -0.5000 
     37 CA          1.0961  -17.5074  -44.8468 C.3       7 UNK         0.1400 
     38 CB          1.7581  -16.6682  -45.9491 C.3       7 UNK        -0.1800 
     39 N           0.1532  -16.6720  -44.1051 N.am      7 UNK        -0.5000 
     40 C          -0.5229  -17.0631  -43.0150 C.2       6 UNK         0.5000 
     41 O          -0.3570  -18.1537  -42.4672 O.2       6 UNK        -0.5000 
     42 CA         -1.6088  -16.1058  -42.4847 C.3       6 UNK         0.1400 
     43 CB         -1.0726  -15.3009  -41.2919 C.3       6 UNK        -0.1800 
     44 N          -2.1388  -15.1741  -43.4875 N.am      6 UNK        -0.5000 
     45 C          -2.7307  -15.5097  -44.6450 C.2       5 UNK         0.5000 
     46 O          -2.8725  -16.6701  -45.0261 O.2       5 UNK        -0.5000 
     47 CA         -3.1826  -14.3524  -45.5554 C.3       5 UNK         0.1400 
     48 CB         -4.6517  -13.9968  -45.2881 C.3       5 UNK        -0.1800 
     49 N          -2.3526  -13.1549  -45.3916 N.am      5 UNK        -0.5000 
     50 C          -1.0792  -13.0555  -45.7925 C.2       4 UNK         0.5000 
     51 O          -0.5026  -13.9260  -46.4566 O.2       4 UNK        -0.5000 
     52 CA         -0.3239  -11.7931  -45.3499 C.3       4 UNK         0.1400 
     53 CB         -0.1343  -11.7658  -43.8212 C.3       4 UNK        -0.1800 
     54 N           0.9782  -11.7811  -46.0012 N.am      4 UNK        -0.5000 
     55 C           1.7271  -10.7053  -46.2678 C.2       3 UNK         0.5000 
     56 O           1.4246   -9.5596  -45.9323 O.2       3 UNK        -0.5000 
     57 CA          3.0342  -10.9509  -47.0519 C.3       3 UNK         0.1400 
     58 CB          4.2338  -11.0019  -46.0932 C.3       3 UNK        -0.1800 
     59 N           3.0043  -12.1865  -47.8417 N.am      3 UNK        -0.5000 
     60 C           2.2431  -12.3731  -48.9283 C.2       2 UNK         0.5000 
     61 O           1.5527  -11.4874  -49.4348 O.2       2 UNK        -0.5000 
     62 CA          2.1891  -13.7882  -49.5215 C.3       2 UNK         0.1400 
     63 CB          3.2091  -14.7817  -48.9282 C.3       2 UNK        -0.1800 
     64 N           0.8381  -14.2849  -49.2952 N.am      2 UNK        -0.5000 
     65 C           0.1018  -14.9540  -50.1878 C.2       1 UNK         0.5000 
     66 O           0.5057  -15.2899  -51.3015 O.2       1 UNK        -0.5000 
     67 C           1.1735  -24.7631  -45.3048 C.2       11 UNK         0.5000 
     68 O           1.8037  -25.8188  -45.2238 O.2       11 UNK        -0.5000 
     69 N          -0.1655  -24.6720  -45.2297 N.am      12 UNK        -0.5000 
     70 CA         -1.1200  -25.7753  -45.0614 C.3       12 UNK         0.1400 
     71 CB         -1.0665  -26.3069  -43.6152 C.3       12 UNK        -0.1800 
     72 C          -0.9506  -26.8871  -46.1218 C.2       12 UNK         0.5000 
     73 O          -0.7378  -28.0528  -45.7802 O.2       12 UNK        -0.5000 
     74 N          -1.0202  -26.4898  -47.3953 N.am      13 UNK        -0.5000 
     75 CA         -0.8188  -27.3432  -48.5615 C.3       13 UNK         0.1400 
     76 CB          0.6855  -27.4200  -48.8978 C.3       13 UNK        -0.1800 
     77 C          -1.7052  -26.8210  -49.7032 C.2       13 UNK         0.5000 
     78 O          -2.9255  -26.9667  -49.6227 O.2       13 UNK        -0.5000 
     79 N          -1.0960  -26.2088  -50.7314 N.am      14 UNK        -0.5000 
     80 CA         -1.7780  -25.5925  -51.8793 C.3       14 UNK         0.1400 
     81 CB         -0.7260  -25.1210  -52.8955 C.3       14 UNK        -0.1800 
     82 C          -2.7027  -24.4221  -51.4864 C.2       14 UNK         0.5000 
     83 O          -3.7326  -24.2099  -52.1266 O.2       14 UNK        -0.5000 
     84 N          -2.3218  -23.7220  -50.4156 N.am      15 UNK        -0.5000 
     85 CA         -3.1430  -22.7938  -49.6542 C.3       15 UNK         0.1400 
     86 CB         -2.4540  -21.4256  -49.6352 C.3       15 UNK        -0.1800 
     87 C          -3.2199  -23.3638  -48.2314 C.2       15 UNK         0.5000 
     88 O          -2.2585  -23.9975  -47.7834 O.2       15 UNK        -0.5000 
     89 N          -4.3389  -23.1272  -47.5465 N.am      16 UNK        -0.5000 
     90 CA         -4.6181  -23.6511  -46.2138 C.3       16 UNK         0.1400 
     91 CB         -5.0352  -25.1327  -46.2963 C.3       16 UNK        -0.1800 
     92 C          -5.7001  -22.7640  -45.5949 C.2       16 UNK         0.5000 
     93 O          -6.8884  -23.0095  -45.8086 O.2       16 UNK        -0.5000 
     94 N          -5.2602  -21.6914  -44.9223 N.am      17 UNK        -0.5000 
     95 CA         -6.0333  -20.5651  -44.3743 C.3       17 UNK         0.1400 
     96 CB         -7.0690  -21.0260  -43.3321 C.3       17 UNK        -0.1800 
     97 C          -6.6667  -19.6744  -45.4625 C.2       17 UNK         0.5000 
     98 O          -6.4826  -18.4579  -45.4326 O.2       17 UNK        -0.5000 
     99 N          -7.3460  -20.2958  -46.4325 N.am      18 UNK        -0.5000 
    100 CA        -7.6953  -19.7032  -47.7183 C.3       18 UNK         0.1400 
    101 CB        -8.7810  -20.5573  -48.3894 C.3       18 UNK        -0.1800 
    102 C         -6.4337  -19.6333  -48.5958 C.2       18 UNK         0.5000 
    103 O         -5.7127  -20.6309  -48.6979 O.2       18 UNK        -0.5000 
    104 N         -6.1859  -18.4574  -49.1823 N.am      19 UNK        -0.5000 
    105 CA        -5.0163  -18.1623  -50.0067 C.3       19 UNK         0.1400 
    106 CB        -4.9181  -16.6395  -50.1935 C.3       19 UNK        -0.1800 
    107 C         -5.0518  -18.8655  -51.3753 C.2       19 UNK         0.5000 
    108 O         -6.1315  -19.0709  -51.9355 O.2       19 UNK        -0.5000 
    109 N         -3.8610  -19.1611  -51.9061 N.am      20 UNK        -0.5000 
    110 CA        -3.6481  -19.6046  -53.2812 C.3       20 UNK         0.1400 
    111 CB        -2.5426  -20.6721  -53.3012 C.3       20 UNK        -0.1800 
    112 C         -3.2364  -18.4055  -54.1491 C.2       20 UNK         0.5000 
    113 O         -2.7305  -17.4075  -53.6276 O.2       20 UNK        -0.5000 
    114 N         -3.4102  -18.5442  -55.4702 N.am      21 UNK        -0.5000 
    115 CA        -3.0513  -17.5371  -56.4765 C.3       21 UNK         0.1400 
    116 CB        -3.5516  -18.0050  -57.8518 C.3       21 UNK        -0.1800 
    117 C         -1.5436  -17.2124  -56.5319 C.2       21 UNK         0.5000 
    118 O         -1.1752  -16.1149  -56.9523 O.2       21 UNK        -0.5000 
    119 N         -0.7084  -18.1604  -56.0902 N.am      22 UNK        -0.5000 
    120 CA         0.7362  -17.9902  -55.8825 C.3       22 UNK         0.1400 
    121 C          1.1216  -17.1943  -54.5965 C.2       22 UNK         0.5000 
    122 N          0.1876  -16.8214  -53.7275 N.am      22 UNK        -0.7600 
    123 O          2.2954  -16.8958  -54.3949 O.2       22 UNK        -0.5000 
    124 C124        1.4849  -19.3454  -55.9953 C.3       23 UNK        -0.0398 
    125 S125        0.9271  -20.6074  -54.7936 S.3       23 UNK        -0.2404 
    126 C126        2.3317  -20.6581  -53.6358 C.3       23 UNK        -0.0205 
    127 H127       -3.3595  -13.7310  -51.4626 H         1 UNK         0.0600 
    128 H128       -1.7210  -13.0735  -51.6328 H         1 UNK         0.0600 
    129 H129       -3.0890  -11.9916  -51.3952 H         1 UNK         0.0600 
    130 H130       -1.7707  -14.1283  -48.0572 H         1 UNK         0.3000 
    131 H131       -1.9187  -15.4526  -50.6803 H         1 UNK         0.0600 
    132 H132       -0.7329  -16.5168  -48.0646 H         1 UNK         0.0800 
    133 H133       -2.4183  -16.6203  -48.4515 H         1 UNK         0.0800 
    134 H134        1.1821  -17.6190  -49.7478 H         1 UNK         0.0800 
    135 H135        0.6513  -18.5878  -48.3935 H         1 UNK         0.0800 
    136 H136        1.4859  -18.6626  -52.0089 H         1 UNK         0.1150 
    137 H137        2.0926  -22.9057  -52.0904 H         1 UNK         0.1150 
    138 H138        0.5940  -20.9991  -48.5496 H         1 UNK         0.1150 
    139 H139        0.2370  -23.5971  -49.1353 H         1 UNK         0.0800 
    140 H140        1.3673  -24.2627  -50.2843 H         1 UNK         0.0800 
    141 H141        2.1665  -21.7907  -46.8627 H         1 UNK         0.0800 
    142 H142        0.6525  -22.6438  -47.0257 H         1 UNK         0.0800 
    143 H143        3.0129  -23.6725  -45.3924 H         1 UNK         0.0600 
    144 H144        1.1209  -21.6745  -44.6424 H         1 UNK         0.3000 
    145 H145        1.5881  -21.9986  -41.1104 H         1 UNK         0.0600 
    146 H146        2.1698  -19.5868  -41.4412 H         1 UNK         0.0600 
    147 H147        2.5304  -19.9033  -43.1378 H         1 UNK         0.0600 
    148 H148        3.5075  -20.6410  -41.8771 H         1 UNK         0.0600 
    149 H149        0.0524  -20.1809  -42.6993 H         1 UNK         0.3000 
    150 H150       -2.9045  -22.1565  -42.8950 H         1 UNK         0.0600 
    151 H151       -3.0477  -21.1002  -40.6408 H         1 UNK         0.0600 
    152 H152       -3.9012  -20.1427  -41.8390 H         1 UNK         0.0600 
    153 H153       -2.3162  -19.6277  -41.2636 H         1 UNK         0.0600 
    154 H154       -2.2225  -19.4896  -43.7319 H         1 UNK         0.3000 
    155 H155       -1.0868  -20.3634  -47.0058 H         1 UNK         0.0600 
    156 H156       -3.5995  -19.0078  -45.8762 H         1 UNK         0.0600 
    157 H157       -3.5768  -20.3183  -47.0387 H         1 UNK         0.0600 
    158 H158       -2.9304  -18.7470  -47.4799 H         1 UNK         0.0600 
    159 H159       -1.3842  -17.8901  -45.5567 H         1 UNK         0.3000 
    160 H160        1.8743  -17.8263  -44.1513 H         1 UNK         0.0600 
    161 H161        1.0252  -16.2539  -46.6396 H         1 UNK         0.0600 
    162 H162        2.4584  -17.2675  -46.5325 H         1 UNK         0.0600 
    163 H163        2.3194  -15.8363  -45.5235 H         1 UNK         0.0600 
    164 H164       -0.0565  -15.7669  -44.5003 H         1 UNK         0.3000 
    165 H165       -2.4398  -16.7233  -42.1381 H         1 UNK         0.0600 
    166 H166       -1.8565  -14.6914  -40.8420 H         1 UNK         0.0600 
    167 H167       -0.6912  -15.9627  -40.5130 H         1 UNK         0.0600 
    168 H168       -0.2584  -14.6380  -41.5876 H         1 UNK         0.0600 
    169 H169       -2.0626  -14.1932  -43.2653 H         1 UNK         0.3000 
    170 H170       -3.1033  -14.6975  -46.5872 H         1 UNK         0.0600 
    171 H171       -5.2939  -14.8689  -45.4206 H         1 UNK         0.0600 
    172 H172       -4.8009  -13.6299  -44.2719 H         1 UNK         0.0600 
    173 H173       -5.0018  -13.2291  -45.9785 H         1 UNK         0.0600 
    174 H174       -2.7679  -12.3877  -44.8823 H         1 UNK         0.3000 
    175 H175       -0.8997  -10.9226  -45.6709 H         1 UNK         0.0600 
    176 H176        0.4116  -12.6422  -43.4691 H         1 UNK         0.0600 
    177 H177        0.4208  -10.8815  -43.5078 H         1 UNK         0.0600 
    178 H178       -1.0918  -11.7412  -43.3002 H         1 UNK         0.0600 
    179 H179        1.2741  -12.6848  -46.3439 H         1 UNK         0.3000 
    180 H180        3.1746  -10.1090  -47.7331 H         1 UNK         0.0600 
    181 H181        5.1712  -11.1106  -46.6391 H         1 UNK         0.0600 
    182 H182        4.1538  -11.8333  -45.3917 H         1 UNK         0.0600 
    183 H183        4.3049  -10.0843  -45.5077 H         1 UNK         0.0600 
    184 H184        3.5515  -12.9600  -47.4925 H         1 UNK         0.3000 
    185 H185        2.3838  -13.6866  -50.5912 H         1 UNK         0.0600 
    186 H186        3.1295  -15.7539  -49.4152 H         1 UNK         0.0600 
    187 H187        4.2317  -14.4327  -49.0774 H         1 UNK         0.0600 
    188 H188        3.0577  -14.9382  -47.8604 H         1 UNK         0.0600 
    189 H189        0.4069  -14.0111  -48.4202 H         1 UNK         0.3000 
    190 H190       -0.5921  -23.7512  -45.3119 H         1 UNK         0.3000 
    191 H191       -2.1114  -25.3499  -45.2169 H         1 UNK         0.0600 
    192 H192       -1.8247  -27.0735  -43.4516 H         1 UNK         0.0600 
    193 H193       -1.2525  -25.5087  -42.8969 H         1 UNK         0.0600 
    194 H194       -0.0968  -26.7474  -43.3811 H         1 UNK         0.0600 
    195 H195       -1.3090  -25.5299  -47.5820 H         1 UNK         0.3000 
    196 H196       -1.1714  -28.3525  -48.3394 H         1 UNK         0.0600 
    197 H197        0.8622  -28.0138  -49.7954 H         1 UNK         0.0600 
    198 H198        1.2383  -27.8956  -48.0874 H         1 UNK         0.0600 
    199 H199        1.1225  -26.4336  -49.0504 H         1 UNK         0.0600 
    200 H200       -0.0877  -26.1689  -50.7339 H         1 UNK         0.3000 
    201 H201       -2.3962  -26.3586  -52.3517 H         1 UNK         0.0600 
    202 H202       -0.0724  -24.3564  -52.4743 H         1 UNK         0.0600 
    203 H203       -1.2021  -24.6914  -53.7780 H         1 UNK         0.0600 
    204 H204       -0.1028  -25.9487  -53.2345 H         1 UNK         0.0600 
    205 H205       -1.5063  -24.0457  -49.9184 H         1 UNK         0.3000 
    206 H206       -4.1429  -22.7056  -50.0844 H         1 UNK         0.0600 
    207 H207       -2.0531  -21.1536  -50.6087 H         1 UNK         0.0600 
    208 H208       -3.1500  -20.6448  -49.3392 H         1 UNK         0.0600 
    209 H209       -1.6269  -21.4104  -48.9311 H         1 UNK         0.0600 
    210 H210       -5.0497  -22.5232  -47.9490 H         1 UNK         0.3000 
    211 H211       -3.7230  -23.5805  -45.5943 H         1 UNK         0.0600 
    212 H212       -5.9013  -25.2724  -46.9443 H         1 UNK         0.0600 
    213 H213       -5.2941  -25.5198  -45.3102 H         1 UNK         0.0600 
    214 H214       -4.2273  -25.7523  -46.6863 H         1 UNK         0.0600 
    215 H215       -4.2601  -21.5837  -44.8437 H         1 UNK         0.3000 
    216 H216       -5.3069  -19.9408  -43.8519 H         1 UNK         0.0600 
    217 H217       -6.5982  -21.6122  -42.5429 H         1 UNK         0.0600 
    218 H218       -7.8589  -21.6325  -43.7755 H         1 UNK         0.0600 
    219 H219       -7.5478  -20.1682  -42.8584 H         1 UNK         0.0600 
    220 H220       -7.4022  -21.3091  -46.3727 H         1 UNK         0.3000 
    221 H221       -8.0901  -18.6982  -47.5546 H         1 UNK         0.0600 
    222 H222       -9.0662  -20.1368  -49.3545 H         1 UNK         0.0600 
    223 H223       -8.4397  -21.5788  -48.5633 H         1 UNK         0.0600 
    224 H224       -9.6803  -20.6048  -47.7752 H         1 UNK         0.0600 
    225 H225       -6.8488  -17.7052  -49.0674 H         1 UNK         0.3000 
    226 H226       -4.1318  -18.5008  -49.4677 H         1 UNK         0.0600 
    227 H227       -4.7809  -16.1298  -49.2396 H         1 UNK         0.0600 
    228 H228       -4.0719  -16.3775  -50.8288 H         1 UNK         0.0600 
    229 H229       -5.8136  -16.2344  -50.6662 H         1 UNK         0.0600 
    230 H230       -3.0239  -18.8834  -51.4107 H         1 UNK         0.3000 
    231 H231       -4.5622  -20.0391  -53.6912 H         1 UNK         0.0600 
    232 H232       -2.3197  -20.9948  -54.3188 H         1 UNK         0.0600 
    233 H233       -2.8485  -21.5597  -52.7489 H         1 UNK         0.0600 
    234 H234       -1.6133  -20.3028  -52.8641 H         1 UNK         0.0600 
    235 H235       -3.8186  -19.3982  -55.8223 H         1 UNK         0.3000 
    236 H236       -3.5719  -16.6122  -56.2195 H         1 UNK         0.0600 
    237 H237       -3.0839  -18.9436  -58.1517 H         1 UNK         0.0600 
    238 H238       -4.6318  -18.1518  -57.8508 H         1 UNK         0.0600 
    239 H239       -3.3269  -17.2658  -58.6219 H         1 UNK         0.0600 
    240 H240       -1.0974  -19.0289  -55.7548 H         1 UNK         0.3000 
    241 H241        1.1027  -17.3742  -56.7059 H         1 UNK         0.0600 
    242 H242        0.4514  -16.2901  -52.9023 H         1 UNK         0.3800 
    243 H243       -0.7888  -17.0573  -53.8628 H         1 UNK         0.3800 
    244 H244        2.5634  -19.1982  -55.9209 H         1 UNK         0.0800 
    245 H245        1.3249  -19.7563  -56.9929 H         1 UNK         0.0800 
    246 H246        2.9400  -19.7574  -53.7293 H         1 UNK         0.0800 
    247 H247        2.9813  -21.4957  -53.8936 H         1 UNK         0.0800 
@<TRIPOS>BOND
     1    1    2 1    
     2    1  127 1    
     3    1  128 1    
     4    1  129 1    
     5    2    3 2    
     6    2    4 am   BACKBONE|DICT|INTERRES
     7    4    5 1    
     8    4  130 1    
     9    5    6 1    
    10    5   65 1    
    11    5  131 1    
    12    6    7 1    
    13    6  132 1    
    14    6  133 1    
    15    7    8 1    
    16    8    9 1    
    17    8  134 1    
    18    8  135 1    
    19    9   10 ar   
    20    9   14 ar   
    21   10   11 ar   
    22   10  136 1    
    23   11   12 ar   
    24   11  126 1    
    25   12   13 ar   
    26   12  137 1    
    27   13   14 ar   
    28   13   15 1    
    29   14  138 1    
    30   15   16 1    
    31   15  139 1    
    32   15  140 1    
    33   16   17 1    
    34   17   18 1    
    35   17  141 1    
    36   17  142 1    
    37   18   19 1    
    38   18   67 1    
    39   18  143 1    
    40   19   20 am   BACKBONE|DICT|INTERRES
    41   19  144 1    
    42   20   21 2    
    43   20   22 1    
    44   22   23 1    
    45   22   24 1    
    46   22  145 1    
    47   23  146 1    
    48   23  147 1    
    49   23  148 1    
    50   24   25 am   BACKBONE|DICT|INTERRES
    51   24  149 1    
    52   25   26 2    
    53   25   27 1    
    54   27   28 1    
    55   27   29 1    
    56   27  150 1    
    57   28  151 1    
    58   28  152 1    
    59   28  153 1    
    60   29   30 am   BACKBONE|DICT|INTERRES
    61   29  154 1    
    62   30   31 2    
    63   30   32 1    
    64   32   33 1    
    65   32   34 1    
    66   32  155 1    
    67   33  156 1    
    68   33  157 1    
    69   33  158 1    
    70   34   35 am   BACKBONE|DICT|INTERRES
    71   34  159 1    
    72   35   36 2    
    73   35   37 1    
    74   37   38 1    
    75   37   39 1    
    76   37  160 1    
    77   38  161 1    
    78   38  162 1    
    79   38  163 1    
    80   39   40 am   BACKBONE|DICT|INTERRES
    81   39  164 1    
    82   40   41 2    
    83   40   42 1    
    84   42   43 1    
    85   42   44 1    
    86   42  165 1    
    87   43  166 1    
    88   43  167 1    
    89   43  168 1    
    90   44   45 am   BACKBONE|DICT|INTERRES
    91   44  169 1    
    92   45   46 2    
    93   45   47 1    
    94   47   48 1    
    95   47   49 1    
    96   47  170 1    
    97   48  171 1    
    98   48  172 1    
    99   48  173 1    
   100   49   50 am   BACKBONE|DICT|INTERRES
   101   49  174 1    
   102   50   51 2    
   103   50   52 1    
   104   52   53 1    
   105   52   54 1    
   106   52  175 1    
   107   53  176 1    
   108   53  177 1    
   109   53  178 1    
   110   54   55 am   BACKBONE|DICT|INTERRES
   111   54  179 1    
   112   55   56 2    
   113   55   57 1    
   114   57   58 1    
   115   57   59 1    
   116   57  180 1    
   117   58  181 1    
   118   58  182 1    
   119   58  183 1    
   120   59   60 am   BACKBONE|DICT|INTERRES
   121   59  184 1    
   122   60   61 2    
   123   60   62 1    
   124   62   63 1    
   125   62   64 1    
   126   62  185 1    
   127   63  186 1    
   128   63  187 1    
   129   63  188 1    
   130   64   65 am   BACKBONE|DICT|INTERRES
   131   64  189 1    
   132   65   66 2    
   133   67   68 2    
   134   67   69 am   BACKBONE|DICT|INTERRES
   135   69   70 1    
   136   69  190 1    
   137   70   71 1    
   138   70   72 1    
   139   70  191 1    
   140   71  192 1    
   141   71  193 1    
   142   71  194 1    
   143   72   73 2    
   144   72   74 am   BACKBONE|DICT|INTERRES
   145   74   75 1    
   146   74  195 1    
   147   75   76 1    
   148   75   77 1    
   149   75  196 1    
   150   76  197 1    
   151   76  198 1    
   152   76  199 1    
   153   77   78 2    
   154   77   79 am   BACKBONE|DICT|INTERRES
   155   79   80 1    
   156   79  200 1    
   157   80   81 1    
   158   80   82 1    
   159   80  201 1    
   160   81  202 1    
   161   81  203 1    
   162   81  204 1    
   163   82   83 2    
   164   82   84 am   BACKBONE|DICT|INTERRES
   165   84   85 1    
   166   84  205 1    
   167   85   86 1    
   168   85   87 1    
   169   85  206 1    
   170   86  207 1    
   171   86  208 1    
   172   86  209 1    
   173   87   88 2    
   174   87   89 am   BACKBONE|DICT|INTERRES
   175   89   90 1    
   176   89  210 1    
   177   90   91 1    
   178   90   92 1    
   179   90  211 1    
   180   91  212 1    
   181   91  213 1    
   182   91  214 1    
   183   92   93 2    
   184   92   94 am   BACKBONE|DICT|INTERRES
   185   94   95 1    
   186   94  215 1    
   187   95   96 1    
   188   95   97 1    
   189   95  216 1    
   190   96  217 1    
   191   96  218 1    
   192   96  219 1    
   193   97   98 2    
   194   97   99 am   BACKBONE|DICT|INTERRES
   195   99  100 1    
   196   99  220 1    
   197  100  101 1    
   198  100  102 1    
   199  100  221 1    
   200  101  222 1    
   201  101  223 1    
   202  101  224 1    
   203  102  103 2    
   204  102  104 am   BACKBONE|DICT|INTERRES
   205  104  105 1    
   206  104  225 1    
   207  105  106 1    
   208  105  107 1    
   209  105  226 1    
   210  106  227 1    
   211  106  228 1    
   212  106  229 1    
   213  107  108 2    
   214  107  109 am   BACKBONE|DICT|INTERRES
   215  109  110 1    
   216  109  230 1    
   217  110  111 1    
   218  110  112 1    
   219  110  231 1    
   220  111  232 1    
   221  111  233 1    
   222  111  234 1    
   223  112  113 2    
   224  112  114 am   BACKBONE|DICT|INTERRES
   225  114  115 1    
   226  114  235 1    
   227  115  116 1    
   228  115  117 1    
   229  115  236 1    
   230  116  237 1    
   231  116  238 1    
   232  116  239 1    
   233  117  118 2    
   234  117  119 am   BACKBONE|DICT|INTERRES
   235  119  120 1    
   236  119  240 1    
   237  120  121 1    
   238  120  124 1    
   239  120  241 1    
   240  121  122 am   BACKBONE|DICT|INTERRES
   241  121  123 2    
   242  122  242 1    
   243  122  243 1    
   244  124  125 1    
   245  124  244 1    
   246  124  245 1    
   247  125  126 1    
   248  126  246 1    
   249  126  247 1    
@<TRIPOS>SUBSTRUCTURE
     1 UNK         1 GROUP             0       ****    0 ROOT    
