@<TRIPOS>MOLECULE
3R540
247   249    1
SMALL
USER_CHARGES


@<TRIPOS>ATOM
      1 CA          4.4783  -17.0857  -46.2748 C.3       0 UNK        -0.1800 
      2 C           3.7622  -15.9294  -46.9560 C.2       0 UNK         0.5000 
      3 O           4.3990  -15.1450  -47.6591 O.2       0 UNK        -0.5000 
      4 N           2.4432  -15.8218  -46.7484 N.am      1 UNK        -0.5000 
      5 CA          1.5274  -14.8401  -47.3441 C.3       1 UNK         0.1400 
      6 C6          1.5026  -14.8919  -48.8952 C.3       23 UNK        -0.0398 
      7 S7         -0.0111  -14.1650  -49.6156 S.3       23 UNK        -0.2404 
      8 C8         -1.1153  -15.6085  -49.7758 C.3       23 UNK        -0.0205 
      9 C9         -0.5293  -16.7008  -50.6597 C.ar      23 UNK        -0.0193 
     10 C10        -0.3125  -16.4717  -52.0215 C.ar      23 UNK        -0.1150 
     11 C11         0.2484  -17.4664  -52.8274 C.ar      23 UNK        -0.0193 
     12 C12         0.6022  -18.6930  -52.2582 C.ar      23 UNK        -0.1150 
     13 C13         0.3678  -18.9445  -50.9032 C.ar      23 UNK        -0.0193 
     14 C14        -0.2057  -17.9450  -50.1120 C.ar      23 UNK        -0.1150 
     15 C15         0.6675  -20.3210  -50.3269 C.3       23 UNK        -0.0205 
     16 S16         2.0325  -20.3363  -49.1180 S.3       23 UNK        -0.2404 
     17 C17         1.1705  -20.1893  -47.5126 C.3       23 UNK        -0.0398 
     18 CA          0.7319  -21.5509  -46.9115 C.3       11 UNK         0.1400 
     19 N           0.6088  -21.4999  -45.4527 N.am      11 UNK        -0.5000 
     20 C           0.3599  -22.5567  -44.6646 C.2       10 UNK         0.5000 
     21 O           0.2742  -23.7140  -45.0760 O.2       10 UNK        -0.5000 
     22 CA          0.1085  -22.2639  -43.1742 C.3       10 UNK         0.1400 
     23 CB          1.4323  -22.0541  -42.4247 C.3       10 UNK        -0.1800 
     24 N          -0.7674  -21.1082  -42.9704 N.am      10 UNK        -0.5000 
     25 C          -2.0449  -21.0473  -43.3742 C.2       9 UNK         0.5000 
     26 O          -2.6347  -21.9826  -43.9150 O.2       9 UNK        -0.5000 
     27 CA         -2.7741  -19.7040  -43.1880 C.3       9 UNK         0.1400 
     28 CB         -3.2743  -19.5454  -41.7447 C.3       9 UNK        -0.1800 
     29 N          -1.9477  -18.5532  -43.5546 N.am      9 UNK        -0.5000 
     30 C          -1.4704  -18.3194  -44.7855 C.2       8 UNK         0.5000 
     31 O          -1.6984  -19.0345  -45.7597 O.2       8 UNK        -0.5000 
     32 CA         -0.5279  -17.1156  -44.9472 C.3       8 UNK         0.1400 
     33 CB         -1.3212  -15.8000  -44.9805 C.3       8 UNK        -0.1800 
     34 N           0.4896  -17.0605  -43.8960 N.am      8 UNK        -0.5000 
     35 C           1.4040  -18.0143  -43.6653 C.2       7 UNK         0.5000 
     36 O           1.5561  -18.9973  -44.3876 O.2       7 UNK        -0.5000 
     37 CA          2.2582  -17.8722  -42.3944 C.3       7 UNK         0.1400 
     38 CB          3.4629  -16.9509  -42.6327 C.3       7 UNK        -0.1800 
     39 N           1.4690  -17.3762  -41.2682 N.am      7 UNK        -0.5000 
     40 C           0.5268  -18.0907  -40.6364 C.2       6 UNK         0.5000 
     41 O           0.2563  -19.2590  -40.9123 O.2       6 UNK        -0.5000 
     42 CA         -0.2755  -17.3597  -39.5443 C.3       6 UNK         0.1400 
     43 CB          0.4730  -17.4015  -38.2039 C.3       6 UNK        -0.1800 
     44 N          -0.5563  -15.9677  -39.8999 N.am      6 UNK        -0.5000 
     45 C          -1.3621  -15.5911  -40.9034 C.2       5 UNK         0.5000 
     46 O          -2.0061  -16.3821  -41.5915 O.2       5 UNK        -0.5000 
     47 CA         -1.4069  -14.0845  -41.2262 C.3       5 UNK         0.1400 
     48 CB         -2.4762  -13.3809  -40.3779 C.3       5 UNK        -0.1800 
     49 N          -0.1119  -13.4247  -41.0273 N.am      5 UNK        -0.5000 
     50 C           0.9870  -13.6972  -41.7424 C.2       4 UNK         0.5000 
     51 O           1.0114  -14.5021  -42.6771 O.2       4 UNK        -0.5000 
     52 CA          2.2883  -13.0259  -41.2872 C.3       4 UNK         0.1400 
     53 CB          2.8489  -13.7728  -40.0575 C.3       4 UNK        -0.1800 
     54 N           3.2381  -13.0621  -42.3963 N.am      4 UNK        -0.5000 
     55 C           4.4530  -12.5021  -42.4233 C.2       3 UNK         0.5000 
     56 O           4.9292  -11.8428  -41.4983 O.2       3 UNK        -0.5000 
     57 CA          5.2765  -12.7024  -43.7092 C.3       3 UNK         0.1400 
     58 CB          5.9621  -14.0776  -43.7093 C.3       3 UNK        -0.1800 
     59 N           4.4926  -12.5567  -44.9367 N.am      3 UNK        -0.5000 
     60 C           3.9391  -11.4113  -45.3613 C.2       2 UNK         0.5000 
     61 O           3.9873  -10.3536  -44.7324 O.2       2 UNK        -0.5000 
     62 CA          3.2378  -11.4379  -46.7318 C.3       2 UNK         0.1400 
     63 CB          4.1460  -10.8252  -47.8092 C.3       2 UNK        -0.1800 
     64 N           2.8637  -12.7884  -47.1505 N.am      2 UNK        -0.5000 
     65 C           1.7431  -13.4185  -46.7819 C.2       1 UNK         0.5000 
     66 O           0.9069  -12.9295  -46.0226 O.2       1 UNK        -0.5000 
     67 C          -0.5694  -22.0645  -47.5602 C.2       11 UNK         0.5000 
     68 O          -0.5144  -22.9821  -48.3771 O.2       11 UNK        -0.5000 
     69 N          -1.7147  -21.4864  -47.1700 N.am      12 UNK        -0.5000 
     70 CA         -3.0476  -21.8591  -47.6461 C.3       12 UNK         0.1400 
     71 CB         -4.0966  -20.9059  -47.0557 C.3       12 UNK        -0.1800 
     72 C          -3.4056  -23.3253  -47.3552 C.2       12 UNK         0.5000 
     73 O          -3.9243  -24.0042  -48.2393 O.2       12 UNK        -0.5000 
     74 N          -3.0777  -23.8032  -46.1479 N.am      13 UNK        -0.5000 
     75 CA         -3.2507  -25.1974  -45.7412 C.3       13 UNK         0.1400 
     76 CB         -2.9687  -25.3275  -44.2367 C.3       13 UNK        -0.1800 
     77 C          -2.3744  -26.1769  -46.5466 C.2       13 UNK         0.5000 
     78 O          -2.8391  -27.2669  -46.8825 O.2       13 UNK        -0.5000 
     79 N          -1.1303  -25.7763  -46.8394 N.am      14 UNK        -0.5000 
     80 CA         -0.1567  -26.5820  -47.5729 C.3       14 UNK         0.1400 
     81 CB          1.2580  -26.0577  -47.2782 C.3       14 UNK        -0.1800 
     82 C          -0.4180  -26.6138  -49.0896 C.2       14 UNK         0.5000 
     83 O          -0.4335  -27.6941  -49.6812 O.2       14 UNK        -0.5000 
     84 N          -0.5808  -25.4318  -49.6961 N.am      15 UNK        -0.5000 
     85 CA         -0.6060  -25.2427  -51.1485 C.3       15 UNK         0.1400 
     86 CB          0.0928  -23.9117  -51.4735 C.3       15 UNK        -0.1800 
     87 C          -2.0206  -25.2459  -51.7535 C.2       15 UNK         0.5000 
     88 O          -2.1363  -25.2601  -52.9793 O.2       15 UNK        -0.5000 
     89 N          -3.0594  -25.1842  -50.9064 N.am      16 UNK        -0.5000 
     90 CA         -4.4736  -24.9812  -51.2570 C.3       16 UNK         0.1400 
     91 CB         -5.0142  -26.1169  -52.1520 C.3       16 UNK        -0.1800 
     92 C          -4.7567  -23.5742  -51.8311 C.2       16 UNK         0.5000 
     93 O          -5.7564  -23.3830  -52.5248 O.2       16 UNK        -0.5000 
     94 N          -3.8815  -22.6061  -51.5206 N.am      17 UNK        -0.5000 
     95 CA         -4.0268  -21.1965  -51.8828 C.3       17 UNK         0.1400 
     96 CB         -2.7151  -20.4584  -51.5781 C.3       17 UNK        -0.1800 
     97 C          -5.2055  -20.5384  -51.1415 C.2       17 UNK         0.5000 
     98 O          -5.6163  -21.0202  -50.0838 O.2       17 UNK        -0.5000 
     99 N          -5.7432  -19.4617  -51.7269 N.am      18 UNK        -0.5000 
    100 CA        -6.9249  -18.6881  -51.3161 C.3       18 UNK         0.1400 
    101 CB        -6.8042  -18.1537  -49.8752 C.3       18 UNK        -0.1800 
    102 C         -8.2543  -19.4366  -51.5420 C.2       18 UNK         0.5000 
    103 O         -9.2133  -18.8282  -52.0183 O.2       18 UNK        -0.5000 
    104 N         -8.2793  -20.7456  -51.2576 N.am      19 UNK        -0.5000 
    105 CA        -9.3400  -21.6738  -51.6572 C.3       19 UNK         0.1400 
    106 CB        -9.1584  -22.9986  -50.9009 C.3       19 UNK        -0.1800 
    107 C         -9.3532  -21.9134  -53.1816 C.2       19 UNK         0.5000 
    108 O        -10.4193  -22.1270  -53.7602 O.2       19 UNK        -0.5000 
    109 N         -8.1702  -21.8380  -53.7983 N.am      20 UNK        -0.5000 
    110 CA        -7.9245  -21.8450  -55.2332 C.3       20 UNK         0.1400 
    111 CB        -7.5544  -23.2705  -55.6772 C.3       20 UNK        -0.1800 
    112 C         -6.7890  -20.8506  -55.5291 C.2       20 UNK         0.5000 
    113 O         -6.1224  -20.3779  -54.6027 O.2       20 UNK        -0.5000 
    114 N         -6.5842  -20.5410  -56.8144 N.am      21 UNK        -0.5000 
    115 CA        -5.4952  -19.6841  -57.2842 C.3       21 UNK         0.1400 
    116 CB        -5.7414  -19.3141  -58.7551 C.3       21 UNK        -0.1800 
    117 C         -4.1286  -20.3749  -57.1166 C.2       21 UNK         0.5000 
    118 O         -3.9933  -21.5494  -57.4680 O.2       21 UNK        -0.5000 
    119 N         -3.1457  -19.6316  -56.5977 N.am      22 UNK        -0.5000 
    120 CA        -1.7691  -20.1024  -56.3691 C.3       22 UNK         0.1400 
    121 C         -0.8454  -20.0751  -57.6240 C.2       22 UNK         0.5000 
    122 N         -1.2784  -19.5439  -58.7611 N.am      22 UNK        -0.7600 
    123 O          0.2809  -20.5614  -57.5695 O.2       22 UNK        -0.5000 
    124 C124       -1.1254  -19.4010  -55.1454 C.3       23 UNK        -0.0398 
    125 S125       -1.0351  -17.5793  -55.2818 S.3       23 UNK        -0.2404 
    126 C126        0.4648  -17.2171  -54.3129 C.3       23 UNK        -0.0205 
    127 H127        3.7806  -17.7579  -45.7754 H         1 UNK         0.0600 
    128 H128        5.1862  -16.7087  -45.5372 H         1 UNK         0.0600 
    129 H129        5.0322  -17.6665  -47.0122 H         1 UNK         0.0600 
    130 H130        2.0058  -16.4796  -46.1205 H         1 UNK         0.3000 
    131 H131        0.5385  -15.1511  -47.0107 H         1 UNK         0.0600 
    132 H132        2.3651  -14.3811  -49.3252 H         1 UNK         0.0800 
    133 H133        1.5944  -15.9249  -49.2291 H         1 UNK         0.0800 
    134 H134       -2.0649  -15.2806  -50.2007 H         1 UNK         0.0800 
    135 H135       -1.3431  -15.9925  -48.7801 H         1 UNK         0.0800 
    136 H136       -0.5783  -15.5167  -52.4526 H         1 UNK         0.1150 
    137 H137        1.0363  -19.4639  -52.8788 H         1 UNK         0.1150 
    138 H138       -0.4066  -18.1300  -49.0689 H         1 UNK         0.1150 
    139 H139       -0.2437  -20.7198  -49.8895 H         1 UNK         0.0800 
    140 H140        0.9332  -21.0097  -51.1299 H         1 UNK         0.0800 
    141 H141        0.3376  -19.4913  -47.5731 H         1 UNK         0.0800 
    142 H142        1.8924  -19.7174  -46.8463 H         1 UNK         0.0800 
    143 H143        1.5134  -22.2836  -47.1246 H         1 UNK         0.0600 
    144 H144        0.7129  -20.5854  -45.0214 H         1 UNK         0.3000 
    145 H145       -0.3884  -23.1363  -42.7449 H         1 UNK         0.0600 
    146 H146        1.2623  -21.9105  -41.3575 H         1 UNK         0.0600 
    147 H147        2.0852  -22.9205  -42.5368 H         1 UNK         0.0600 
    148 H148        1.9742  -21.1848  -42.7966 H         1 UNK         0.0600 
    149 H149       -0.3701  -20.3148  -42.4773 H         1 UNK         0.3000 
    150 H150       -3.6446  -19.7065  -43.8467 H         1 UNK         0.0600 
    151 H151       -3.9201  -20.3777  -41.4621 H         1 UNK         0.0600 
    152 H152       -3.8534  -18.6293  -41.6272 H         1 UNK         0.0600 
    153 H153       -2.4502  -19.5127  -41.0322 H         1 UNK         0.0600 
    154 H154       -1.7536  -17.8797  -42.8193 H         1 UNK         0.3000 
    155 H155       -0.0115  -17.2301  -45.9014 H         1 UNK         0.0600 
    156 H156       -1.9410  -15.7452  -45.8761 H         1 UNK         0.0600 
    157 H157       -0.6619  -14.9327  -44.9834 H         1 UNK         0.0600 
    158 H158       -1.9844  -15.7011  -44.1222 H         1 UNK         0.0600 
    159 H159        0.4781  -16.2434  -43.2920 H         1 UNK         0.3000 
    160 H160        2.6385  -18.8615  -42.1315 H         1 UNK         0.0600 
    161 H161        3.1618  -15.9734  -43.0070 H         1 UNK         0.0600 
    162 H162        4.1425  -17.3883  -43.3633 H         1 UNK         0.0600 
    163 H163        4.0341  -16.7990  -41.7168 H         1 UNK         0.0600 
    164 H164        1.5975  -16.4098  -41.0126 H         1 UNK         0.3000 
    165 H165       -1.2273  -17.8811  -39.4224 H         1 UNK         0.0600 
    166 H166       -0.1185  -16.9486  -37.4081 H         1 UNK         0.0600 
    167 H167        0.6824  -18.4300  -37.9066 H         1 UNK         0.0600 
    168 H168        1.4264  -16.8740  -38.2560 H         1 UNK         0.0600 
    169 H169       -0.0748  -15.2543  -39.3736 H         1 UNK         0.3000 
    170 H170       -1.6814  -13.9792  -42.2779 H         1 UNK         0.0600 
    171 H171       -3.4544  -13.8413  -40.5236 H         1 UNK         0.0600 
    172 H172       -2.2450  -13.4308  -39.3131 H         1 UNK         0.0600 
    173 H173       -2.5691  -12.3301  -40.6530 H         1 UNK         0.0600 
    174 H174       -0.0569  -12.7557  -40.2726 H         1 UNK         0.3000 
    175 H175        2.0792  -11.9852  -41.0327 H         1 UNK         0.0600 
    176 H176        3.1387  -14.7943  -40.3053 H         1 UNK         0.0600 
    177 H177        3.7240  -13.2717  -39.6450 H         1 UNK         0.0600 
    178 H178        2.1130  -13.8253  -39.2544 H         1 UNK         0.0600 
    179 H179        2.8966  -13.5605  -43.2085 H         1 UNK         0.3000 
    180 H180        6.0568  -11.9384  -43.7206 H         1 UNK         0.0600 
    181 H181        5.2372  -14.8898  -43.7502 H         1 UNK         0.0600 
    182 H182        6.5604  -14.2167  -42.8079 H         1 UNK         0.0600 
    183 H183        6.6320  -14.1843  -44.5627 H         1 UNK         0.0600 
    184 H184        4.4142  -13.3693  -45.5296 H         1 UNK         0.3000 
    185 H185        2.3385  -10.8228  -46.6557 H         1 UNK         0.0600 
    186 H186        4.4290   -9.8044  -47.5490 H         1 UNK         0.0600 
    187 H187        5.0649  -11.3993  -47.9354 H         1 UNK         0.0600 
    188 H188        3.6402  -10.7849  -48.7742 H         1 UNK         0.0600 
    189 H189        3.5376  -13.3049  -47.7063 H         1 UNK         0.3000 
    190 H190       -1.6758  -20.7086  -46.5143 H         1 UNK         0.3000 
    191 H191       -3.0561  -21.7375  -48.7290 H         1 UNK         0.0600 
    192 H192       -5.0992  -21.1702  -47.3939 H         1 UNK         0.0600 
    193 H193       -3.9112  -19.8773  -47.3654 H         1 UNK         0.0600 
    194 H194       -4.1004  -20.9340  -45.9665 H         1 UNK         0.0600 
    195 H195       -2.6974  -23.1660  -45.4532 H         1 UNK         0.3000 
    196 H196       -4.2943  -25.4681  -45.9149 H         1 UNK         0.0600 
    197 H197       -3.1067  -26.3555  -43.8997 H         1 UNK         0.0600 
    198 H198       -3.6437  -24.7003  -43.6541 H         1 UNK         0.0600 
    199 H199       -1.9472  -25.0345  -43.9921 H         1 UNK         0.0600 
    200 H200       -0.8123  -24.8764  -46.4968 H         1 UNK         0.3000 
    201 H201       -0.2115  -27.6089  -47.2052 H         1 UNK         0.0600 
    202 H202        1.4875  -26.1244  -46.2145 H         1 UNK         0.0600 
    203 H203        1.3740  -25.0152  -47.5777 H         1 UNK         0.0600 
    204 H204        2.0111  -26.6397  -47.8109 H         1 UNK         0.0600 
    205 H205       -0.5616  -24.5809  -49.1337 H         1 UNK         0.3000 
    206 H206       -0.0418  -26.0437  -51.6309 H         1 UNK         0.0600 
    207 H207        1.0954  -23.8743  -51.0468 H         1 UNK         0.0600 
    208 H208        0.1924  -23.7722  -52.5506 H         1 UNK         0.0600 
    209 H209       -0.4688  -23.0619  -51.0852 H         1 UNK         0.0600 
    210 H210       -2.8602  -25.1575  -49.9139 H         1 UNK         0.3000 
    211 H211       -5.0283  -25.0337  -50.3203 H         1 UNK         0.0600 
    212 H212       -4.6082  -26.0709  -53.1625 H         1 UNK         0.0600 
    213 H213       -6.0996  -26.0575  -52.2393 H         1 UNK         0.0600 
    214 H214       -4.7760  -27.0956  -51.7359 H         1 UNK         0.0600 
    215 H215       -3.1159  -22.8452  -50.9106 H         1 UNK         0.3000 
    216 H216       -4.2106  -21.1466  -52.9574 H         1 UNK         0.0600 
    217 H217       -2.7490  -19.4325  -51.9473 H         1 UNK         0.0600 
    218 H218       -1.8647  -20.9456  -52.0553 H         1 UNK         0.0600 
    219 H219       -2.5191  -20.4054  -50.5080 H         1 UNK         0.0600 
    220 H220       -5.3823  -19.2087  -52.6380 H         1 UNK         0.3000 
    221 H221       -6.9426  -17.8216  -51.9791 H         1 UNK         0.0600 
    222 H222       -6.8558  -18.9507  -49.1333 H         1 UNK         0.0600 
    223 H223       -5.8654  -17.6192  -49.7297 H         1 UNK         0.0600 
    224 H224       -7.6135  -17.4569  -49.6545 H         1 UNK         0.0600 
    225 H225       -7.4487  -21.1459  -50.8327 H         1 UNK         0.3000 
    226 H226      -10.3027  -21.2427  -51.3748 H         1 UNK         0.0600 
    227 H227       -9.2019  -22.8462  -49.8224 H         1 UNK         0.0600 
    228 H228       -9.9449  -23.7078  -51.1618 H         1 UNK         0.0600 
    229 H229       -8.2018  -23.4678  -51.1348 H         1 UNK         0.0600 
    230 H230       -7.3434  -21.6503  -53.2448 H         1 UNK         0.3000 
    231 H231       -8.8173  -21.5113  -55.7659 H         1 UNK         0.0600 
    232 H232       -8.3516  -23.9755  -55.4413 H         1 UNK         0.0600 
    233 H233       -6.6448  -23.6188  -55.1860 H         1 UNK         0.0600 
    234 H234       -7.3862  -23.3186  -56.7535 H         1 UNK         0.0600 
    235 H235       -7.1443  -20.9877  -57.5255 H         1 UNK         0.3000 
    236 H236       -5.5052  -18.7649  -56.6942 H         1 UNK         0.0600 
    237 H237       -4.9594  -18.6510  -59.1270 H         1 UNK         0.0600 
    238 H238       -5.7559  -20.1967  -59.3960 H         1 UNK         0.0600 
    239 H239       -6.6918  -18.7944  -58.8776 H         1 UNK         0.0600 
    240 H240       -3.3236  -18.6696  -56.3466 H         1 UNK         0.3000 
    241 H241       -1.8331  -21.1596  -56.1033 H         1 UNK         0.0600 
    242 H242       -0.6742  -19.5380  -59.5681 H         1 UNK         0.3800 
    243 H243       -2.1991  -19.1408  -58.8210 H         1 UNK         0.3800 
    244 H244       -1.7002  -19.6370  -54.2500 H         1 UNK         0.0800 
    245 H245       -0.1278  -19.8052  -54.9682 H         1 UNK         0.0800 
    246 H246        1.2995  -17.8124  -54.6865 H         1 UNK         0.0800 
    247 H247        0.7425  -16.1740  -54.4714 H         1 UNK         0.0800 
@<TRIPOS>BOND
     1    1    2 1    
     2    1  127 1    
     3    1  128 1    
     4    1  129 1    
     5    2    3 2    
     6    2    4 am   BACKBONE|DICT|INTERRES
     7    4    5 1    
     8    4  130 1    
     9    5    6 1    
    10    5   65 1    
    11    5  131 1    
    12    6    7 1    
    13    6  132 1    
    14    6  133 1    
    15    7    8 1    
    16    8    9 1    
    17    8  134 1    
    18    8  135 1    
    19    9   10 ar   
    20    9   14 ar   
    21   10   11 ar   
    22   10  136 1    
    23   11   12 ar   
    24   11  126 1    
    25   12   13 ar   
    26   12  137 1    
    27   13   14 ar   
    28   13   15 1    
    29   14  138 1    
    30   15   16 1    
    31   15  139 1    
    32   15  140 1    
    33   16   17 1    
    34   17   18 1    
    35   17  141 1    
    36   17  142 1    
    37   18   19 1    
    38   18   67 1    
    39   18  143 1    
    40   19   20 am   BACKBONE|DICT|INTERRES
    41   19  144 1    
    42   20   21 2    
    43   20   22 1    
    44   22   23 1    
    45   22   24 1    
    46   22  145 1    
    47   23  146 1    
    48   23  147 1    
    49   23  148 1    
    50   24   25 am   BACKBONE|DICT|INTERRES
    51   24  149 1    
    52   25   26 2    
    53   25   27 1    
    54   27   28 1    
    55   27   29 1    
    56   27  150 1    
    57   28  151 1    
    58   28  152 1    
    59   28  153 1    
    60   29   30 am   BACKBONE|DICT|INTERRES
    61   29  154 1    
    62   30   31 2    
    63   30   32 1    
    64   32   33 1    
    65   32   34 1    
    66   32  155 1    
    67   33  156 1    
    68   33  157 1    
    69   33  158 1    
    70   34   35 am   BACKBONE|DICT|INTERRES
    71   34  159 1    
    72   35   36 2    
    73   35   37 1    
    74   37   38 1    
    75   37   39 1    
    76   37  160 1    
    77   38  161 1    
    78   38  162 1    
    79   38  163 1    
    80   39   40 am   BACKBONE|DICT|INTERRES
    81   39  164 1    
    82   40   41 2    
    83   40   42 1    
    84   42   43 1    
    85   42   44 1    
    86   42  165 1    
    87   43  166 1    
    88   43  167 1    
    89   43  168 1    
    90   44   45 am   BACKBONE|DICT|INTERRES
    91   44  169 1    
    92   45   46 2    
    93   45   47 1    
    94   47   48 1    
    95   47   49 1    
    96   47  170 1    
    97   48  171 1    
    98   48  172 1    
    99   48  173 1    
   100   49   50 am   BACKBONE|DICT|INTERRES
   101   49  174 1    
   102   50   51 2    
   103   50   52 1    
   104   52   53 1    
   105   52   54 1    
   106   52  175 1    
   107   53  176 1    
   108   53  177 1    
   109   53  178 1    
   110   54   55 am   BACKBONE|DICT|INTERRES
   111   54  179 1    
   112   55   56 2    
   113   55   57 1    
   114   57   58 1    
   115   57   59 1    
   116   57  180 1    
   117   58  181 1    
   118   58  182 1    
   119   58  183 1    
   120   59   60 am   BACKBONE|DICT|INTERRES
   121   59  184 1    
   122   60   61 2    
   123   60   62 1    
   124   62   63 1    
   125   62   64 1    
   126   62  185 1    
   127   63  186 1    
   128   63  187 1    
   129   63  188 1    
   130   64   65 am   BACKBONE|DICT|INTERRES
   131   64  189 1    
   132   65   66 2    
   133   67   68 2    
   134   67   69 am   BACKBONE|DICT|INTERRES
   135   69   70 1    
   136   69  190 1    
   137   70   71 1    
   138   70   72 1    
   139   70  191 1    
   140   71  192 1    
   141   71  193 1    
   142   71  194 1    
   143   72   73 2    
   144   72   74 am   BACKBONE|DICT|INTERRES
   145   74   75 1    
   146   74  195 1    
   147   75   76 1    
   148   75   77 1    
   149   75  196 1    
   150   76  197 1    
   151   76  198 1    
   152   76  199 1    
   153   77   78 2    
   154   77   79 am   BACKBONE|DICT|INTERRES
   155   79   80 1    
   156   79  200 1    
   157   80   81 1    
   158   80   82 1    
   159   80  201 1    
   160   81  202 1    
   161   81  203 1    
   162   81  204 1    
   163   82   83 2    
   164   82   84 am   BACKBONE|DICT|INTERRES
   165   84   85 1    
   166   84  205 1    
   167   85   86 1    
   168   85   87 1    
   169   85  206 1    
   170   86  207 1    
   171   86  208 1    
   172   86  209 1    
   173   87   88 2    
   174   87   89 am   BACKBONE|DICT|INTERRES
   175   89   90 1    
   176   89  210 1    
   177   90   91 1    
   178   90   92 1    
   179   90  211 1    
   180   91  212 1    
   181   91  213 1    
   182   91  214 1    
   183   92   93 2    
   184   92   94 am   BACKBONE|DICT|INTERRES
   185   94   95 1    
   186   94  215 1    
   187   95   96 1    
   188   95   97 1    
   189   95  216 1    
   190   96  217 1    
   191   96  218 1    
   192   96  219 1    
   193   97   98 2    
   194   97   99 am   BACKBONE|DICT|INTERRES
   195   99  100 1    
   196   99  220 1    
   197  100  101 1    
   198  100  102 1    
   199  100  221 1    
   200  101  222 1    
   201  101  223 1    
   202  101  224 1    
   203  102  103 2    
   204  102  104 am   BACKBONE|DICT|INTERRES
   205  104  105 1    
   206  104  225 1    
   207  105  106 1    
   208  105  107 1    
   209  105  226 1    
   210  106  227 1    
   211  106  228 1    
   212  106  229 1    
   213  107  108 2    
   214  107  109 am   BACKBONE|DICT|INTERRES
   215  109  110 1    
   216  109  230 1    
   217  110  111 1    
   218  110  112 1    
   219  110  231 1    
   220  111  232 1    
   221  111  233 1    
   222  111  234 1    
   223  112  113 2    
   224  112  114 am   BACKBONE|DICT|INTERRES
   225  114  115 1    
   226  114  235 1    
   227  115  116 1    
   228  115  117 1    
   229  115  236 1    
   230  116  237 1    
   231  116  238 1    
   232  116  239 1    
   233  117  118 2    
   234  117  119 am   BACKBONE|DICT|INTERRES
   235  119  120 1    
   236  119  240 1    
   237  120  121 1    
   238  120  124 1    
   239  120  241 1    
   240  121  122 am   BACKBONE|DICT|INTERRES
   241  121  123 2    
   242  122  242 1    
   243  122  243 1    
   244  124  125 1    
   245  124  244 1    
   246  124  245 1    
   247  125  126 1    
   248  126  246 1    
   249  126  247 1    
@<TRIPOS>SUBSTRUCTURE
     1 UNK         1 GROUP             0       ****    0 ROOT    
