@<TRIPOS>MOLECULE
3R540
247   249    1
SMALL
USER_CHARGES


@<TRIPOS>ATOM
      1 CA         -1.6885  -17.0583  -43.0683 C.3       0 UNK        -0.1800 
      2 C          -2.3564  -16.8441  -44.4175 C.2       0 UNK         0.5000 
      3 O          -3.5719  -17.0032  -44.5323 O.2       0 UNK        -0.5000 
      4 N          -1.5684  -16.4762  -45.4347 N.am      1 UNK        -0.5000 
      5 CA         -2.0516  -16.0492  -46.7536 C.3       1 UNK         0.1400 
      6 C6         -0.9219  -16.0155  -47.8156 C.3       23 UNK        -0.0398 
      7 S7          0.0523  -17.5522  -47.9183 S.3       23 UNK        -0.2404 
      8 C8         -0.6014  -18.3329  -49.4331 C.3       23 UNK        -0.0205 
      9 C9          0.3809  -19.2457  -50.1692 C.ar      23 UNK        -0.0193 
     10 C10         0.1121  -19.5701  -51.5017 C.ar      23 UNK        -0.1150 
     11 C11         0.9925  -20.3566  -52.2462 C.ar      23 UNK        -0.0193 
     12 C12         2.1555  -20.8413  -51.6424 C.ar      23 UNK        -0.1150 
     13 C13         2.4419  -20.5335  -50.3089 C.ar      23 UNK        -0.0193 
     14 C14         1.5488  -19.7454  -49.5775 C.ar      23 UNK        -0.1150 
     15 C15         3.7449  -21.0038  -49.6795 C.3       23 UNK        -0.0205 
     16 S16         3.5844  -22.6290  -48.8796 S.3       23 UNK        -0.2404 
     17 C17         2.8931  -22.1872  -47.2488 C.3       23 UNK        -0.0398 
     18 CA          1.7532  -23.1397  -46.8207 C.3       11 UNK         0.1400 
     19 N           1.6216  -23.2093  -45.3659 N.am      11 UNK        -0.5000 
     20 C           1.0249  -24.2112  -44.7072 C.2       10 UNK         0.5000 
     21 O           0.5425  -25.2009  -45.2578 O.2       10 UNK        -0.5000 
     22 CA          0.9140  -24.0552  -43.1792 C.3       10 UNK         0.1400 
     23 CB          2.2115  -24.5046  -42.4912 C.3       10 UNK        -0.1800 
     24 N           0.6014  -22.6821  -42.7777 N.am      10 UNK        -0.5000 
     25 C          -0.5525  -22.0645  -43.0641 C.2       9 UNK         0.5000 
     26 O          -1.4810  -22.6016  -43.6651 O.2       9 UNK        -0.5000 
     27 CA         -0.6839  -20.5905  -42.6468 C.3       9 UNK         0.1400 
     28 CB         -1.2440  -20.5016  -41.2199 C.3       9 UNK        -0.1800 
     29 N           0.5557  -19.8107  -42.7508 N.am      9 UNK        -0.5000 
     30 C           1.2806  -19.6522  -43.8721 C.2       8 UNK         0.5000 
     31 O           1.0238  -20.2325  -44.9277 O.2       8 UNK        -0.5000 
     32 CA          2.4884  -18.6928  -43.8342 C.3       8 UNK         0.1400 
     33 CB          2.2799  -17.5174  -44.8017 C.3       8 UNK        -0.1800 
     34 N           2.7745  -18.1599  -42.5022 N.am      8 UNK        -0.5000 
     35 C           3.4523  -18.8167  -41.5492 C.2       7 UNK         0.5000 
     36 O           3.9231  -19.9436  -41.7059 O.2       7 UNK        -0.5000 
     37 CA          3.6144  -18.1134  -40.1842 C.3       7 UNK         0.1400 
     38 CB          4.9895  -17.4346  -40.0918 C.3       7 UNK        -0.1800 
     39 N           2.5769  -17.1177  -39.9039 N.am      7 UNK        -0.5000 
     40 C           1.2660  -17.3770  -39.8020 C.2       6 UNK         0.5000 
     41 O           0.7968  -18.5114  -39.8728 O.2       6 UNK        -0.5000 
     42 CA          0.3142  -16.1744  -39.6417 C.3       6 UNK         0.1400 
     43 CB         -0.1368  -16.0406  -38.1796 C.3       6 UNK        -0.1800 
     44 N           0.8706  -14.8921  -40.0890 N.am      6 UNK        -0.5000 
     45 C           1.2613  -14.6055  -41.3381 C.2       5 UNK         0.5000 
     46 O           1.2523  -15.4210  -42.2643 O.2       5 UNK        -0.5000 
     47 CA          1.8243  -13.1893  -41.5586 C.3       5 UNK         0.1400 
     48 CB          3.3180  -13.1542  -41.1979 C.3       5 UNK        -0.1800 
     49 N           1.6668  -12.7472  -42.9429 N.am      5 UNK        -0.5000 
     50 C           0.5015  -12.4179  -43.5126 C.2       4 UNK         0.5000 
     51 O          -0.5694  -12.3627  -42.9013 O.2       4 UNK        -0.5000 
     52 CA          0.5628  -12.1094  -45.0186 C.3       4 UNK         0.1400 
     53 CB          0.9015  -13.3817  -45.8098 C.3       4 UNK        -0.1800 
     54 N          -0.7196  -11.5872  -45.4932 N.am      4 UNK        -0.5000 
     55 C          -0.9510  -10.3120  -45.8327 C.2       3 UNK         0.5000 
     56 O          -0.0744   -9.4451  -45.8324 O.2       3 UNK        -0.5000 
     57 CA         -2.4000   -9.9213  -46.2103 C.3       3 UNK         0.1400 
     58 CB         -2.4591   -8.7616  -47.2278 C.3       3 UNK        -0.1800 
     59 N          -3.2420  -11.0426  -46.6456 N.am      3 UNK        -0.5000 
     60 C          -3.0887  -11.8061  -47.7368 C.2       2 UNK         0.5000 
     61 O          -2.1967  -11.6593  -48.5746 O.2       2 UNK        -0.5000 
     62 CA         -4.0913  -12.9700  -47.8870 C.3       2 UNK         0.1400 
     63 CB         -4.7948  -12.9241  -49.2535 C.3       2 UNK        -0.1800 
     64 N          -3.4502  -14.2773  -47.7260 N.am      2 UNK        -0.5000 
     65 C          -2.7277  -14.6602  -46.6638 C.2       1 UNK         0.5000 
     66 O          -2.5578  -13.9493  -45.6683 O.2       1 UNK        -0.5000 
     67 C           0.4045  -22.7889  -47.4792 C.2       11 UNK         0.5000 
     68 O           0.0518  -23.3947  -48.4894 O.2       11 UNK        -0.5000 
     69 N          -0.3608  -21.8777  -46.8591 N.am      12 UNK        -0.5000 
     70 CA         -1.7201  -21.5216  -47.2703 C.3       12 UNK         0.1400 
     71 CB         -2.2332  -20.3546  -46.4135 C.3       12 UNK        -0.1800 
     72 C          -2.6938  -22.7152  -47.2070 C.2       12 UNK         0.5000 
     73 O          -3.4950  -22.8935  -48.1246 O.2       12 UNK        -0.5000 
     74 N          -2.5771  -23.5310  -46.1493 N.am      13 UNK        -0.5000 
     75 CA         -3.3206  -24.7768  -45.9674 C.3       13 UNK         0.1400 
     76 CB         -3.1276  -25.2917  -44.5333 C.3       13 UNK        -0.1800 
     77 C          -2.9286  -25.8568  -46.9910 C.2       13 UNK         0.5000 
     78 O          -3.8130  -26.5347  -47.5131 O.2       13 UNK        -0.5000 
     79 N          -1.6259  -25.9777  -47.2889 N.am      14 UNK        -0.5000 
     80 CA         -1.0924  -26.8805  -48.3142 C.3       14 UNK         0.1400 
     81 CB          0.4387  -26.9409  -48.2066 C.3       14 UNK        -0.1800 
     82 C          -1.5279  -26.4842  -49.7387 C.2       14 UNK         0.5000 
     83 O          -1.8365  -27.3593  -50.5481 O.2       14 UNK        -0.5000 
     84 N          -1.5832  -25.1716  -50.0018 N.am      15 UNK        -0.5000 
     85 CA         -2.1099  -24.5691  -51.2273 C.3       15 UNK         0.1400 
     86 CB         -1.7079  -23.0862  -51.2531 C.3       15 UNK        -0.1800 
     87 C          -3.6382  -24.7233  -51.3806 C.2       15 UNK         0.5000 
     88 O          -4.1455  -24.6182  -52.4974 O.2       15 UNK        -0.5000 
     89 N          -4.3406  -24.9620  -50.2633 N.am      16 UNK        -0.5000 
     90 CA         -5.7780  -25.2040  -50.0856 C.3       16 UNK         0.1400 
     91 CB         -6.2512  -26.4303  -50.8884 C.3       16 UNK        -0.1800 
     92 C          -6.6619  -23.9736  -50.3570 C.2       16 UNK         0.5000 
     93 O          -7.4796  -23.6164  -49.5088 O.2       16 UNK        -0.5000 
     94 N          -6.4650  -23.3301  -51.5125 N.am      17 UNK        -0.5000 
     95 CA         -7.1158  -22.0786  -51.9068 C.3       17 UNK         0.1400 
     96 CB         -7.3113  -22.0816  -53.4322 C.3       17 UNK        -0.1800 
     97 C          -6.3223  -20.8367  -51.4489 C.2       17 UNK         0.5000 
     98 O          -6.7183  -19.7158  -51.7720 O.2       17 UNK        -0.5000 
     99 N          -5.2131  -21.0514  -50.7240 N.am      18 UNK        -0.5000 
    100 CA        -4.2499  -20.0527  -50.2623 C.3       18 UNK         0.1400 
    101 CB        -4.8644  -19.1623  -49.1591 C.3       18 UNK        -0.1800 
    102 C         -3.6406  -19.2799  -51.4486 C.2       18 UNK         0.5000 
    103 O         -3.1904  -19.9129  -52.4043 O.2       18 UNK        -0.5000 
    104 N         -3.6360  -17.9412  -51.3817 N.am      19 UNK        -0.5000 
    105 CA        -3.0616  -17.0394  -52.3856 C.3       19 UNK         0.1400 
    106 CB        -3.2325  -15.5885  -51.9110 C.3       19 UNK        -0.1800 
    107 C         -3.6350  -17.2181  -53.8048 C.2       19 UNK         0.5000 
    108 O         -2.9084  -17.0229  -54.7789 O.2       19 UNK        -0.5000 
    109 N         -4.9038  -17.6372  -53.9065 N.am      20 UNK        -0.5000 
    110 CA        -5.5864  -17.9103  -55.1728 C.3       20 UNK         0.1400 
    111 CB        -7.0886  -18.0870  -54.9056 C.3       20 UNK        -0.1800 
    112 C         -5.0223  -19.1221  -55.9448 C.2       20 UNK         0.5000 
    113 O         -5.2937  -19.2440  -57.1400 O.2       20 UNK        -0.5000 
    114 N         -4.2501  -19.9895  -55.2731 N.am      21 UNK        -0.5000 
    115 CA        -3.6146  -21.1578  -55.8815 C.3       21 UNK         0.1400 
    116 CB        -3.2560  -22.1659  -54.7828 C.3       21 UNK        -0.1800 
    117 C         -2.3564  -20.8177  -56.7040 C.2       21 UNK         0.5000 
    118 O         -1.9598  -21.6398  -57.5318 O.2       21 UNK        -0.5000 
    119 N         -1.7353  -19.6525  -56.4671 N.am      22 UNK        -0.5000 
    120 CA        -0.4793  -19.2554  -57.1281 C.3       22 UNK         0.1400 
    121 C         -0.3319  -17.7408  -57.4496 C.2       22 UNK         0.5000 
    122 N         -1.1818  -16.8471  -56.9612 N.am      22 UNK        -0.7600 
    123 O          0.5665  -17.3642  -58.1979 O.2       22 UNK        -0.5000 
    124 C124        0.7734  -19.8531  -56.4297 C.3       23 UNK        -0.0398 
    125 S125        1.0821  -19.2058  -54.7477 S.3       23 UNK        -0.2404 
    126 C126        0.6942  -20.6488  -53.7087 C.3       23 UNK        -0.0205 
    127 H127       -2.1575  -17.8882  -42.5425 H         1 UNK         0.0600 
    128 H128       -0.6260  -17.2724  -43.1737 H         1 UNK         0.0600 
    129 H129       -1.7955  -16.1628  -42.4564 H         1 UNK         0.0600 
    130 H130       -0.5790  -16.3615  -45.2778 H         1 UNK         0.3000 
    131 H131       -2.8056  -16.7679  -47.0818 H         1 UNK         0.0600 
    132 H132       -0.2161  -15.2142  -47.6032 H         1 UNK         0.0800 
    133 H133       -1.3290  -15.7809  -48.7995 H         1 UNK         0.0800 
    134 H134       -1.4938  -18.9013  -49.1742 H         1 UNK         0.0800 
    135 H135       -0.9158  -17.5516  -50.1252 H         1 UNK         0.0800 
    136 H136       -0.7730  -19.1845  -51.9822 H         1 UNK         0.1150 
    137 H137        2.8491  -21.4403  -52.2156 H         1 UNK         0.1150 
    138 H138        1.7856  -19.5042  -48.5529 H         1 UNK         0.1150 
    139 H139        4.5151  -21.0731  -50.4492 H         1 UNK         0.0800 
    140 H140        4.1096  -20.2690  -48.9600 H         1 UNK         0.0800 
    141 H141        2.5718  -21.1461  -47.2184 H         1 UNK         0.0800 
    142 H142        3.7191  -22.2573  -46.5397 H         1 UNK         0.0800 
    143 H143        2.0207  -24.1444  -47.1561 H         1 UNK         0.0600 
    144 H144        1.9122  -22.3931  -44.8466 H         1 UNK         0.3000 
    145 H145        0.1035  -24.7024  -42.8371 H         1 UNK         0.0600 
    146 H146        2.1133  -24.4726  -41.4060 H         1 UNK         0.0600 
    147 H147        2.4622  -25.5306  -42.7639 H         1 UNK         0.0600 
    148 H148        3.0566  -23.8742  -42.7707 H         1 UNK         0.0600 
    149 H149        1.3169  -22.1684  -42.2840 H         1 UNK         0.3000 
    150 H150       -1.4076  -20.1293  -43.3201 H         1 UNK         0.0600 
    151 H151       -2.1734  -21.0653  -41.1276 H         1 UNK         0.0600 
    152 H152       -1.4650  -19.4724  -40.9401 H         1 UNK         0.0600 
    153 H153       -0.5422  -20.9036  -40.4881 H         1 UNK         0.0600 
    154 H154        0.8411  -19.3170  -41.9137 H         1 UNK         0.3000 
    155 H155        3.3562  -19.2578  -44.1806 H         1 UNK         0.0600 
    156 H156        1.3955  -16.9339  -44.5472 H         1 UNK         0.0600 
    157 H157        2.1579  -17.8735  -45.8249 H         1 UNK         0.0600 
    158 H158        3.1367  -16.8436  -44.7960 H         1 UNK         0.0600 
    159 H159        2.3961  -17.2418  -42.2956 H         1 UNK         0.3000 
    160 H160        3.5567  -18.8826  -39.4114 H         1 UNK         0.0600 
    161 H161        5.1529  -17.0059  -39.1028 H         1 UNK         0.0600 
    162 H162        5.0932  -16.6352  -40.8268 H         1 UNK         0.0600 
    163 H163        5.7924  -18.1512  -40.2701 H         1 UNK         0.0600 
    164 H164        2.8776  -16.1572  -39.8346 H         1 UNK         0.3000 
    165 H165       -0.5668  -16.3819  -40.2519 H         1 UNK         0.0600 
    166 H166       -0.8865  -15.2571  -38.0673 H         1 UNK         0.0600 
    167 H167       -0.5845  -16.9689  -37.8215 H         1 UNK         0.0600 
    168 H168        0.6996  -15.8041  -37.5208 H         1 UNK         0.0600 
    169 H169        0.9357  -14.1709  -39.3849 H         1 UNK         0.3000 
    170 H170        1.2886  -12.4926  -40.9102 H         1 UNK         0.0600 
    171 H171        3.4787  -13.4362  -40.1566 H         1 UNK         0.0600 
    172 H172        3.8982  -13.8403  -41.8167 H         1 UNK         0.0600 
    173 H173        3.7318  -12.1539  -41.3276 H         1 UNK         0.0600 
    174 H174        2.4923  -12.8014  -43.5209 H         1 UNK         0.3000 
    175 H175        1.3594  -11.3810  -45.1826 H         1 UNK         0.0600 
    176 H176        0.2194  -14.1934  -45.5602 H         1 UNK         0.0600 
    177 H177        0.8479  -13.2028  -46.8838 H         1 UNK         0.0600 
    178 H178        1.9115  -13.7292  -45.5902 H         1 UNK         0.0600 
    179 H179       -1.4952  -12.2426  -45.4676 H         1 UNK         0.3000 
    180 H180       -2.8507   -9.5591  -45.2853 H         1 UNK         0.0600 
    181 H181       -1.9522   -9.0133  -48.1597 H         1 UNK         0.0600 
    182 H182       -1.9817   -7.8655  -46.8299 H         1 UNK         0.0600 
    183 H183       -3.4894   -8.4975  -47.4662 H         1 UNK         0.0600 
    184 H184       -3.9825  -11.2886  -46.0031 H         1 UNK         0.3000 
    185 H185       -4.8560  -12.8803  -47.1126 H         1 UNK         0.0600 
    186 H186       -4.0904  -13.0585  -50.0755 H         1 UNK         0.0600 
    187 H187       -5.5561  -13.7003  -49.3336 H         1 UNK         0.0600 
    188 H188       -5.2928  -11.9652  -49.4027 H         1 UNK         0.0600 
    189 H189       -3.5389  -14.9039  -48.5107 H         1 UNK         0.3000 
    190 H190        0.0206  -21.3863  -46.0550 H         1 UNK         0.3000 
    191 H191       -1.6626  -21.1879  -48.3071 H         1 UNK         0.0600 
    192 H192       -2.3998  -20.6573  -45.3807 H         1 UNK         0.0600 
    193 H193       -3.1813  -19.9772  -46.7961 H         1 UNK         0.0600 
    194 H194       -1.5294  -19.5232  -46.4058 H         1 UNK         0.0600 
    195 H195       -1.9489  -23.2666  -45.3954 H         1 UNK         0.3000 
    196 H196       -4.3810  -24.5565  -46.1077 H         1 UNK         0.0600 
    197 H197       -2.0780  -25.4892  -44.3134 H         1 UNK         0.0600 
    198 H198       -3.6783  -26.2194  -44.3728 H         1 UNK         0.0600 
    199 H199       -3.4911  -24.5680  -43.8036 H         1 UNK         0.0600 
    200 H200       -0.9519  -25.4168  -46.7808 H         1 UNK         0.3000 
    201 H201       -1.4840  -27.8801  -48.1144 H         1 UNK         0.0600 
    202 H202        0.7522  -27.2702  -47.2158 H         1 UNK         0.0600 
    203 H203        0.8962  -25.9704  -48.3975 H         1 UNK         0.0600 
    204 H204        0.8522  -27.6451  -48.9296 H         1 UNK         0.0600 
    205 H205       -1.2132  -24.5255  -49.3084 H         1 UNK         0.3000 
    206 H206       -1.6455  -25.0658  -52.0813 H         1 UNK         0.0600 
    207 H207       -0.6247  -22.9701  -51.2963 H         1 UNK         0.0600 
    208 H208       -2.1245  -22.5766  -52.1186 H         1 UNK         0.0600 
    209 H209       -2.0613  -22.5578  -50.3693 H         1 UNK         0.0600 
    210 H210       -3.8128  -24.9689  -49.4003 H         1 UNK         0.3000 
    211 H211       -5.9000  -25.4450  -49.0285 H         1 UNK         0.0600 
    212 H212       -6.1785  -26.2710  -51.9644 H         1 UNK         0.0600 
    213 H213       -7.2931  -26.6616  -50.6642 H         1 UNK         0.0600 
    214 H214       -5.6612  -27.3125  -50.6393 H         1 UNK         0.0600 
    215 H215       -5.7456  -23.6949  -52.1328 H         1 UNK         0.3000 
    216 H216       -8.1025  -22.0207  -51.4431 H         1 UNK         0.0600 
    217 H217       -7.9034  -21.2237  -53.7512 H         1 UNK         0.0600 
    218 H218       -7.8406  -22.9761  -53.7608 H         1 UNK         0.0600 
    219 H219       -6.3618  -22.0392  -53.9641 H         1 UNK         0.0600 
    220 H220       -4.9735  -22.0108  -50.5210 H         1 UNK         0.3000 
    221 H221       -3.4271  -20.6091  -49.8154 H         1 UNK         0.0600 
    222 H222       -5.6853  -18.5491  -49.5326 H         1 UNK         0.0600 
    223 H223       -5.2575  -19.7737  -48.3466 H         1 UNK         0.0600 
    224 H224       -4.1186  -18.4974  -48.7220 H         1 UNK         0.0600 
    225 H225       -4.0761  -17.5037  -50.5865 H         1 UNK         0.3000 
    226 H226       -1.9927  -17.2498  -52.4471 H         1 UNK         0.0600 
    227 H227       -2.7255  -15.4200  -50.9612 H         1 UNK         0.0600 
    228 H228       -2.8058  -14.8890  -52.6314 H         1 UNK         0.0600 
    229 H229       -4.2839  -15.3273  -51.7841 H         1 UNK         0.0600 
    230 H230       -5.4225  -17.8308  -53.0605 H         1 UNK         0.3000 
    231 H231       -5.4596  -17.0356  -55.8141 H         1 UNK         0.0600 
    232 H232       -7.5099  -17.2082  -54.4174 H         1 UNK         0.0600 
    233 H233       -7.2839  -18.9501  -54.2704 H         1 UNK         0.0600 
    234 H234       -7.6373  -18.2352  -55.8366 H         1 UNK         0.0600 
    235 H235       -4.0485  -19.8253  -54.2922 H         1 UNK         0.3000 
    236 H236       -4.3335  -21.6337  -56.5518 H         1 UNK         0.0600 
    237 H237       -2.9134  -23.1089  -55.2103 H         1 UNK         0.0600 
    238 H238       -2.4551  -21.7833  -54.1547 H         1 UNK         0.0600 
    239 H239       -4.1064  -22.3890  -54.1409 H         1 UNK         0.0600 
    240 H240       -2.1111  -19.0148  -55.7794 H         1 UNK         0.3000 
    241 H241       -0.5017  -19.6954  -58.1271 H         1 UNK         0.0600 
    242 H242       -1.0537  -15.8809  -57.2153 H         1 UNK         0.3800 
    243 H243       -1.8870  -17.0735  -56.2647 H         1 UNK         0.3800 
    244 H244        0.6888  -20.9397  -56.3908 H         1 UNK         0.0800 
    245 H245        1.6633  -19.6579  -57.0303 H         1 UNK         0.0800 
    246 H246       -0.3589  -20.9040  -53.8237 H         1 UNK         0.0800 
    247 H247        1.2671  -21.5128  -54.0487 H         1 UNK         0.0800 
@<TRIPOS>BOND
     1    1    2 1    
     2    1  127 1    
     3    1  128 1    
     4    1  129 1    
     5    2    3 2    
     6    2    4 am   BACKBONE|DICT|INTERRES
     7    4    5 1    
     8    4  130 1    
     9    5    6 1    
    10    5   65 1    
    11    5  131 1    
    12    6    7 1    
    13    6  132 1    
    14    6  133 1    
    15    7    8 1    
    16    8    9 1    
    17    8  134 1    
    18    8  135 1    
    19    9   10 ar   
    20    9   14 ar   
    21   10   11 ar   
    22   10  136 1    
    23   11   12 ar   
    24   11  126 1    
    25   12   13 ar   
    26   12  137 1    
    27   13   14 ar   
    28   13   15 1    
    29   14  138 1    
    30   15   16 1    
    31   15  139 1    
    32   15  140 1    
    33   16   17 1    
    34   17   18 1    
    35   17  141 1    
    36   17  142 1    
    37   18   19 1    
    38   18   67 1    
    39   18  143 1    
    40   19   20 am   BACKBONE|DICT|INTERRES
    41   19  144 1    
    42   20   21 2    
    43   20   22 1    
    44   22   23 1    
    45   22   24 1    
    46   22  145 1    
    47   23  146 1    
    48   23  147 1    
    49   23  148 1    
    50   24   25 am   BACKBONE|DICT|INTERRES
    51   24  149 1    
    52   25   26 2    
    53   25   27 1    
    54   27   28 1    
    55   27   29 1    
    56   27  150 1    
    57   28  151 1    
    58   28  152 1    
    59   28  153 1    
    60   29   30 am   BACKBONE|DICT|INTERRES
    61   29  154 1    
    62   30   31 2    
    63   30   32 1    
    64   32   33 1    
    65   32   34 1    
    66   32  155 1    
    67   33  156 1    
    68   33  157 1    
    69   33  158 1    
    70   34   35 am   BACKBONE|DICT|INTERRES
    71   34  159 1    
    72   35   36 2    
    73   35   37 1    
    74   37   38 1    
    75   37   39 1    
    76   37  160 1    
    77   38  161 1    
    78   38  162 1    
    79   38  163 1    
    80   39   40 am   BACKBONE|DICT|INTERRES
    81   39  164 1    
    82   40   41 2    
    83   40   42 1    
    84   42   43 1    
    85   42   44 1    
    86   42  165 1    
    87   43  166 1    
    88   43  167 1    
    89   43  168 1    
    90   44   45 am   BACKBONE|DICT|INTERRES
    91   44  169 1    
    92   45   46 2    
    93   45   47 1    
    94   47   48 1    
    95   47   49 1    
    96   47  170 1    
    97   48  171 1    
    98   48  172 1    
    99   48  173 1    
   100   49   50 am   BACKBONE|DICT|INTERRES
   101   49  174 1    
   102   50   51 2    
   103   50   52 1    
   104   52   53 1    
   105   52   54 1    
   106   52  175 1    
   107   53  176 1    
   108   53  177 1    
   109   53  178 1    
   110   54   55 am   BACKBONE|DICT|INTERRES
   111   54  179 1    
   112   55   56 2    
   113   55   57 1    
   114   57   58 1    
   115   57   59 1    
   116   57  180 1    
   117   58  181 1    
   118   58  182 1    
   119   58  183 1    
   120   59   60 am   BACKBONE|DICT|INTERRES
   121   59  184 1    
   122   60   61 2    
   123   60   62 1    
   124   62   63 1    
   125   62   64 1    
   126   62  185 1    
   127   63  186 1    
   128   63  187 1    
   129   63  188 1    
   130   64   65 am   BACKBONE|DICT|INTERRES
   131   64  189 1    
   132   65   66 2    
   133   67   68 2    
   134   67   69 am   BACKBONE|DICT|INTERRES
   135   69   70 1    
   136   69  190 1    
   137   70   71 1    
   138   70   72 1    
   139   70  191 1    
   140   71  192 1    
   141   71  193 1    
   142   71  194 1    
   143   72   73 2    
   144   72   74 am   BACKBONE|DICT|INTERRES
   145   74   75 1    
   146   74  195 1    
   147   75   76 1    
   148   75   77 1    
   149   75  196 1    
   150   76  197 1    
   151   76  198 1    
   152   76  199 1    
   153   77   78 2    
   154   77   79 am   BACKBONE|DICT|INTERRES
   155   79   80 1    
   156   79  200 1    
   157   80   81 1    
   158   80   82 1    
   159   80  201 1    
   160   81  202 1    
   161   81  203 1    
   162   81  204 1    
   163   82   83 2    
   164   82   84 am   BACKBONE|DICT|INTERRES
   165   84   85 1    
   166   84  205 1    
   167   85   86 1    
   168   85   87 1    
   169   85  206 1    
   170   86  207 1    
   171   86  208 1    
   172   86  209 1    
   173   87   88 2    
   174   87   89 am   BACKBONE|DICT|INTERRES
   175   89   90 1    
   176   89  210 1    
   177   90   91 1    
   178   90   92 1    
   179   90  211 1    
   180   91  212 1    
   181   91  213 1    
   182   91  214 1    
   183   92   93 2    
   184   92   94 am   BACKBONE|DICT|INTERRES
   185   94   95 1    
   186   94  215 1    
   187   95   96 1    
   188   95   97 1    
   189   95  216 1    
   190   96  217 1    
   191   96  218 1    
   192   96  219 1    
   193   97   98 2    
   194   97   99 am   BACKBONE|DICT|INTERRES
   195   99  100 1    
   196   99  220 1    
   197  100  101 1    
   198  100  102 1    
   199  100  221 1    
   200  101  222 1    
   201  101  223 1    
   202  101  224 1    
   203  102  103 2    
   204  102  104 am   BACKBONE|DICT|INTERRES
   205  104  105 1    
   206  104  225 1    
   207  105  106 1    
   208  105  107 1    
   209  105  226 1    
   210  106  227 1    
   211  106  228 1    
   212  106  229 1    
   213  107  108 2    
   214  107  109 am   BACKBONE|DICT|INTERRES
   215  109  110 1    
   216  109  230 1    
   217  110  111 1    
   218  110  112 1    
   219  110  231 1    
   220  111  232 1    
   221  111  233 1    
   222  111  234 1    
   223  112  113 2    
   224  112  114 am   BACKBONE|DICT|INTERRES
   225  114  115 1    
   226  114  235 1    
   227  115  116 1    
   228  115  117 1    
   229  115  236 1    
   230  116  237 1    
   231  116  238 1    
   232  116  239 1    
   233  117  118 2    
   234  117  119 am   BACKBONE|DICT|INTERRES
   235  119  120 1    
   236  119  240 1    
   237  120  121 1    
   238  120  124 1    
   239  120  241 1    
   240  121  122 am   BACKBONE|DICT|INTERRES
   241  121  123 2    
   242  122  242 1    
   243  122  243 1    
   244  124  125 1    
   245  124  244 1    
   246  124  245 1    
   247  125  126 1    
   248  126  246 1    
   249  126  247 1    
@<TRIPOS>SUBSTRUCTURE
     1 UNK         1 GROUP             0       ****    0 ROOT    
