@<TRIPOS>MOLECULE
3R540
247   249    1
SMALL
USER_CHARGES


@<TRIPOS>ATOM
      1 CA         -3.4676  -11.0718  -48.2369 C.3       0 UNK        -0.1800 
      2 C          -2.2322  -10.9902  -47.3521 C.2       0 UNK         0.5000 
      3 O          -2.0638  -10.0168  -46.6174 O.2       0 UNK        -0.5000 
      4 N          -1.3745  -12.0160  -47.3999 N.am      1 UNK        -0.5000 
      5 CA         -0.1162  -12.1459  -46.6518 C.3       1 UNK         0.1400 
      6 C6          0.8846  -13.0749  -47.3912 C.3       23 UNK        -0.0398 
      7 S7          0.2189  -14.7294  -47.7964 S.3       23 UNK        -0.2404 
      8 C8          1.3199  -15.1998  -49.1655 C.3       23 UNK        -0.0205 
      9 C9          0.9606  -16.5633  -49.7367 C.ar      23 UNK        -0.0193 
     10 C10        -0.1633  -16.6960  -50.5576 C.ar      23 UNK        -0.1150 
     11 C11        -0.4836  -17.9296  -51.1287 C.ar      23 UNK        -0.0193 
     12 C12         0.3405  -19.0297  -50.8866 C.ar      23 UNK        -0.1150 
     13 C13         1.4494  -18.9246  -50.0424 C.ar      23 UNK        -0.0193 
     14 C14         1.7565  -17.6844  -49.4716 C.ar      23 UNK        -0.1150 
     15 C15         2.3283  -20.1420  -49.7758 C.3       23 UNK        -0.0205 
     16 S16         1.7237  -21.1706  -48.3913 S.3       23 UNK        -0.2404 
     17 C17         0.2603  -21.9962  -49.1237 C.3       23 UNK        -0.0398 
     18 CA         -1.0969  -21.5432  -48.5215 C.3       11 UNK         0.1400 
     19 N          -1.1358  -20.0994  -48.2675 N.am      11 UNK        -0.5000 
     20 C          -2.0216  -19.4438  -47.5098 C.2       10 UNK         0.5000 
     21 O          -3.0766  -19.9391  -47.1138 O.2       10 UNK        -0.5000 
     22 CA         -1.6209  -18.0050  -47.1285 C.3       10 UNK         0.1400 
     23 CB         -2.5466  -17.3750  -46.0687 C.3       10 UNK        -0.1800 
     24 N          -0.2120  -17.9205  -46.7167 N.am      10 UNK        -0.5000 
     25 C           0.3781  -18.5797  -45.7072 C.2       9 UNK         0.5000 
     26 O          -0.2182  -19.3364  -44.9351 O.2       9 UNK        -0.5000 
     27 CA          1.8913  -18.3573  -45.5229 C.3       9 UNK         0.1400 
     28 CB          2.2672  -16.8625  -45.6204 C.3       9 UNK        -0.1800 
     29 N           2.2660  -18.9429  -44.2353 N.am      9 UNK        -0.5000 
     30 C           3.4924  -19.0824  -43.7242 C.2       8 UNK         0.5000 
     31 O           4.5181  -18.6599  -44.2609 O.2       8 UNK        -0.5000 
     32 CA          3.5929  -19.8259  -42.3836 C.3       8 UNK         0.1400 
     33 CB          4.6894  -20.9120  -42.4482 C.3       8 UNK        -0.1800 
     34 N           3.8632  -18.8514  -41.3281 N.am      8 UNK        -0.5000 
     35 C           3.9386  -19.1059  -40.0146 C.2       7 UNK         0.5000 
     36 O           3.7535  -20.2167  -39.5158 O.2       7 UNK        -0.5000 
     37 CA          4.2474  -17.9129  -39.0957 C.3       7 UNK         0.1400 
     38 CB          5.5558  -17.2050  -39.4905 C.3       7 UNK        -0.1800 
     39 N           3.1407  -16.9633  -39.1429 N.am      7 UNK        -0.5000 
     40 C           2.1670  -16.8701  -38.2257 C.2       6 UNK         0.5000 
     41 O           2.1601  -17.5010  -37.1678 O.2       6 UNK        -0.5000 
     42 CA          0.9875  -15.9240  -38.5413 C.3       6 UNK         0.1400 
     43 CB          1.2034  -14.5533  -37.8824 C.3       6 UNK        -0.1800 
     44 N           0.7715  -15.7272  -39.9743 N.am      6 UNK        -0.5000 
     45 C           0.4223  -16.6863  -40.8424 C.2       5 UNK         0.5000 
     46 O           0.1080  -17.8294  -40.5110 O.2       5 UNK        -0.5000 
     47 CA          0.4849  -16.3237  -42.3365 C.3       5 UNK         0.1400 
     48 CB         -0.9182  -16.0444  -42.8900 C.3       5 UNK        -0.1800 
     49 N           1.3664  -15.1921  -42.6416 N.am      5 UNK        -0.5000 
     50 C           2.6925  -15.1549  -42.4399 C.2       4 UNK         0.5000 
     51 O           3.3313  -16.0798  -41.9388 O.2       4 UNK        -0.5000 
     52 CA          3.4206  -13.8570  -42.8250 C.3       4 UNK         0.1400 
     53 CB          3.8778  -13.9000  -44.2898 C.3       4 UNK        -0.1800 
     54 N           2.5709  -12.6858  -42.6147 N.am      4 UNK        -0.5000 
     55 C           2.4235  -12.0631  -41.4373 C.2       3 UNK         0.5000 
     56 O           3.0362  -12.3767  -40.4167 O.2       3 UNK        -0.5000 
     57 CA          1.4068  -10.9066  -41.3854 C.3       3 UNK         0.1400 
     58 CB          2.0823   -9.5777  -41.7559 C.3       3 UNK        -0.1800 
     59 N           0.2534  -11.1201  -42.2614 N.am      3 UNK        -0.5000 
     60 C          -0.6842  -12.0574  -42.0657 C.2       2 UNK         0.5000 
     61 O          -0.6942  -12.8237  -41.1019 O.2       2 UNK        -0.5000 
     62 CA         -1.7757  -12.1810  -43.1468 C.3       2 UNK         0.1400 
     63 CB         -2.9628  -11.2636  -42.8189 C.3       2 UNK        -0.1800 
     64 N          -1.3182  -11.9002  -44.5114 N.am      2 UNK        -0.5000 
     65 C          -0.3310  -12.5284  -45.1649 C.2       1 UNK         0.5000 
     66 O           0.3955  -13.3659  -44.6288 O.2       1 UNK        -0.5000 
     67 C          -2.2915  -22.0799  -49.3471 C.2       11 UNK         0.5000 
     68 O          -2.4563  -23.2936  -49.4592 O.2       11 UNK        -0.5000 
     69 N          -3.1266  -21.1852  -49.8927 N.am      12 UNK        -0.5000 
     70 CA         -4.4246  -21.5207  -50.4798 C.3       12 UNK         0.1400 
     71 CB         -4.9171  -20.3475  -51.3378 C.3       12 UNK        -0.1800 
     72 C          -5.4752  -21.9046  -49.4175 C.2       12 UNK         0.5000 
     73 O          -6.3800  -22.6783  -49.7249 O.2       12 UNK        -0.5000 
     74 N          -5.3338  -21.3951  -48.1846 N.am      13 UNK        -0.5000 
     75 CA         -6.1718  -21.7765  -47.0446 C.3       13 UNK         0.1400 
     76 CB         -6.1646  -20.6450  -46.0053 C.3       13 UNK        -0.1800 
     77 C          -5.7088  -23.0994  -46.4047 C.2       13 UNK         0.5000 
     78 O          -6.5101  -23.7763  -45.7587 O.2       13 UNK        -0.5000 
     79 N          -4.4329  -23.4577  -46.6045 N.am      14 UNK        -0.5000 
     80 CA         -3.8007  -24.6808  -46.1150 C.3       14 UNK         0.1400 
     81 CB         -2.2796  -24.4581  -46.0334 C.3       14 UNK        -0.1800 
     82 C          -4.1753  -25.8850  -46.9999 C.2       14 UNK         0.5000 
     83 O          -3.3415  -26.3841  -47.7558 O.2       14 UNK        -0.5000 
     84 N          -5.4448  -26.3053  -46.9116 N.am      15 UNK        -0.5000 
     85 CA         -6.0460  -27.4558  -47.5992 C.3       15 UNK         0.1400 
     86 CB         -5.4708  -28.7742  -47.0402 C.3       15 UNK        -0.1800 
     87 C          -5.9611  -27.3723  -49.1399 C.2       15 UNK         0.5000 
     88 O          -5.8004  -28.3964  -49.8059 O.2       15 UNK        -0.5000 
     89 N          -6.0695  -26.1448  -49.6714 N.am      16 UNK        -0.5000 
     90 CA         -6.0350  -25.7863  -51.0936 C.3       16 UNK         0.1400 
     91 CB         -7.2194  -26.4240  -51.8515 C.3       16 UNK        -0.1800 
     92 C          -4.6794  -26.0370  -51.7888 C.2       16 UNK         0.5000 
     93 O          -4.6410  -26.0841  -53.0193 O.2       16 UNK        -0.5000 
     94 N          -3.5885  -26.1587  -51.0149 N.am      17 UNK        -0.5000 
     95 CA         -2.2482  -26.5211  -51.4926 C.3       17 UNK         0.1400 
     96 CB         -1.2879  -26.6268  -50.2985 C.3       17 UNK        -0.1800 
     97 C          -1.6639  -25.5887  -52.5718 C.2       17 UNK         0.5000 
     98 O          -0.9604  -26.0700  -53.4611 O.2       17 UNK        -0.5000 
     99 N          -1.9814  -24.2906  -52.4905 N.am      18 UNK        -0.5000 
    100 CA        -1.5789  -23.2747  -53.4666 C.3       18 UNK         0.1400 
    101 CB        -0.6175  -22.2845  -52.7981 C.3       18 UNK        -0.1800 
    102 C         -2.7845  -22.5422  -54.0783 C.2       18 UNK         0.5000 
    103 O         -2.6001  -21.4767  -54.6674 O.2       18 UNK        -0.5000 
    104 N         -3.9978  -23.1023  -53.9597 N.am      19 UNK        -0.5000 
    105 CA        -5.2225  -22.4948  -54.4966 C.3       19 UNK         0.1400 
    106 CB        -6.4503  -23.2692  -54.0015 C.3       19 UNK        -0.1800 
    107 C         -5.2226  -22.3884  -56.0333 C.2       19 UNK         0.5000 
    108 O         -5.7407  -21.4134  -56.5764 O.2       19 UNK        -0.5000 
    109 N         -4.5899  -23.3619  -56.7016 N.am      20 UNK        -0.5000 
    110 CA        -4.3830  -23.3750  -58.1506 C.3       20 UNK         0.1400 
    111 CB        -3.9288  -24.7807  -58.5731 C.3       20 UNK        -0.1800 
    112 C         -3.3725  -22.3144  -58.6352 C.2       20 UNK         0.5000 
    113 O         -3.4358  -21.9135  -59.7980 O.2       20 UNK        -0.5000 
    114 N         -2.4612  -21.8874  -57.7499 N.am      21 UNK        -0.5000 
    115 CA        -1.4539  -20.8660  -58.0259 C.3       21 UNK         0.1400 
    116 CB        -0.1798  -21.1702  -57.2196 C.3       21 UNK        -0.1800 
    117 C         -1.9885  -19.4620  -57.7036 C.2       21 UNK         0.5000 
    118 O         -1.8894  -18.5670  -58.5444 O.2       21 UNK        -0.5000 
    119 N         -2.5388  -19.2953  -56.4947 N.am      22 UNK        -0.5000 
    120 CA        -3.0593  -18.0158  -55.9898 C.3       22 UNK         0.1400 
    121 C         -4.4634  -17.6295  -56.5361 C.2       22 UNK         0.5000 
    122 N         -5.2730  -18.5552  -57.0344 N.am      22 UNK        -0.7600 
    123 O         -4.8233  -16.4557  -56.5168 O.2       22 UNK        -0.5000 
    124 C124       -3.0382  -17.9620  -54.4425 C.3       23 UNK        -0.0398 
    125 S125       -1.3465  -18.0225  -53.7606 S.3       23 UNK        -0.2404 
    126 C126       -1.7297  -18.0834  -51.9862 C.3       23 UNK        -0.0205 
    127 H127       -3.4917  -10.2275  -48.9258 H         1 UNK         0.0600 
    128 H128       -4.3695  -11.0408  -47.6255 H         1 UNK         0.0600 
    129 H129       -3.4854  -11.9905  -48.8237 H         1 UNK         0.0600 
    130 H130       -1.5877  -12.8063  -47.9926 H         1 UNK         0.3000 
    131 H131        0.3484  -11.1582  -46.6233 H         1 UNK         0.0600 
    132 H132        1.1790  -12.5910  -48.3235 H         1 UNK         0.0800 
    133 H133        1.8091  -13.1918  -46.8247 H         1 UNK         0.0800 
    134 H134        2.3542  -15.1894  -48.8180 H         1 UNK         0.0800 
    135 H135        1.2538  -14.4521  -49.9574 H         1 UNK         0.0800 
    136 H136       -0.7866  -15.8346  -50.7531 H         1 UNK         0.1150 
    137 H137        0.1097  -19.9700  -51.3584 H         1 UNK         0.1150 
    138 H138        2.6281  -17.5894  -48.8394 H         1 UNK         0.1150 
    139 H139        2.4117  -20.7508  -50.6775 H         1 UNK         0.0800 
    140 H140        3.3432  -19.8156  -49.5439 H         1 UNK         0.0800 
    141 H141        0.3801  -23.0718  -48.9820 H         1 UNK         0.0800 
    142 H142        0.2835  -21.8473  -50.1989 H         1 UNK         0.0800 
    143 H143       -1.1789  -22.0141  -47.5403 H         1 UNK         0.0600 
    144 H144       -0.3014  -19.6015  -48.5467 H         1 UNK         0.3000 
    145 H145       -1.7145  -17.4114  -48.0388 H         1 UNK         0.0600 
    146 H146       -3.5820  -17.3645  -46.4109 H         1 UNK         0.0600 
    147 H147       -2.5200  -17.9230  -45.1266 H         1 UNK         0.0600 
    148 H148       -2.2630  -16.3421  -45.8673 H         1 UNK         0.0600 
    149 H149        0.3532  -17.2922  -47.2717 H         1 UNK         0.3000 
    150 H150        2.4145  -18.9110  -46.3044 H         1 UNK         0.0600 
    151 H151        2.2947  -16.5417  -46.6598 H         1 UNK         0.0600 
    152 H152        3.2519  -16.6490  -45.2104 H         1 UNK         0.0600 
    153 H153        1.5463  -16.2257  -45.1098 H         1 UNK         0.0600 
    154 H154        1.4718  -19.3526  -43.7560 H         1 UNK         0.3000 
    155 H155        2.6360  -20.3073  -42.1718 H         1 UNK         0.0600 
    156 H156        5.6853  -20.4734  -42.5216 H         1 UNK         0.0600 
    157 H157        4.5495  -21.5555  -43.3177 H         1 UNK         0.0600 
    158 H158        4.6728  -21.5586  -41.5716 H         1 UNK         0.0600 
    159 H159        3.9561  -17.8891  -41.6459 H         1 UNK         0.3000 
    160 H160        4.3766  -18.2973  -38.0817 H         1 UNK         0.0600 
    161 H161        5.5008  -16.7518  -40.4804 H         1 UNK         0.0600 
    162 H162        6.3909  -17.9065  -39.4964 H         1 UNK         0.0600 
    163 H163        5.8004  -16.4155  -38.7798 H         1 UNK         0.0600 
    164 H164        3.0452  -16.4457  -40.0100 H         1 UNK         0.3000 
    165 H165        0.0831  -16.3703  -38.1230 H         1 UNK         0.0600 
    166 H166        0.3508  -13.8950  -38.0518 H         1 UNK         0.0600 
    167 H167        1.3284  -14.6533  -36.8035 H         1 UNK         0.0600 
    168 H168        2.0928  -14.0564  -38.2722 H         1 UNK         0.0600 
    169 H169        0.9710  -14.8074  -40.3422 H         1 UNK         0.3000 
    170 H170        0.8817  -17.1934  -42.8555 H         1 UNK         0.0600 
    171 H171       -1.5477  -16.9319  -42.8158 H         1 UNK         0.0600 
    172 H172       -1.4120  -15.2467  -42.3368 H         1 UNK         0.0600 
    173 H173       -0.8807  -15.7595  -43.9414 H         1 UNK         0.0600 
    174 H174        0.9389  -14.4121  -43.1324 H         1 UNK         0.3000 
    175 H175        4.3113  -13.7738  -42.1984 H         1 UNK         0.0600 
    176 H176        4.3975  -12.9833  -44.5685 H         1 UNK         0.0600 
    177 H177        3.0377  -14.0304  -44.9713 H         1 UNK         0.0600 
    178 H178        4.5683  -14.7276  -44.4560 H         1 UNK         0.0600 
    179 H179        1.9807  -12.4126  -43.3889 H         1 UNK         0.3000 
    180 H180        1.0442  -10.8305  -40.3579 H         1 UNK         0.0600 
    181 H181        1.3916   -8.7410  -41.6498 H         1 UNK         0.0600 
    182 H182        2.4485   -9.5839  -42.7833 H         1 UNK         0.0600 
    183 H183        2.9346   -9.3785  -41.1048 H         1 UNK         0.0600 
    184 H184        0.1820  -10.5324  -43.0790 H         1 UNK         0.3000 
    185 H185       -2.1351  -13.2105  -43.1351 H         1 UNK         0.0600 
    186 H186       -3.7851  -11.4175  -43.5180 H         1 UNK         0.0600 
    187 H187       -3.3472  -11.4630  -41.8176 H         1 UNK         0.0600 
    188 H188       -2.6804  -10.2108  -42.8597 H         1 UNK         0.0600 
    189 H189       -1.8282  -11.1901  -45.0265 H         1 UNK         0.3000 
    190 H190       -2.9327  -20.2069  -49.7404 H         1 UNK         0.3000 
    191 H191       -4.2981  -22.3850  -51.1346 H         1 UNK         0.0600 
    192 H192       -5.9058  -20.5523  -51.7508 H         1 UNK         0.0600 
    193 H193       -4.2482  -20.1746  -52.1796 H         1 UNK         0.0600 
    194 H194       -4.9858  -19.4243  -50.7615 H         1 UNK         0.0600 
    195 H195       -4.5549  -20.7755  -47.9763 H         1 UNK         0.3000 
    196 H196       -7.2004  -21.9126  -47.3854 H         1 UNK         0.0600 
    197 H197       -5.1737  -20.4955  -45.5755 H         1 UNK         0.0600 
    198 H198       -6.4851  -19.7010  -46.4463 H         1 UNK         0.0600 
    199 H199       -6.8458  -20.8683  -45.1833 H         1 UNK         0.0600 
    200 H200       -3.8622  -22.8615  -47.1837 H         1 UNK         0.3000 
    201 H201       -4.1592  -24.8853  -45.1039 H         1 UNK         0.0600 
    202 H202       -2.0372  -23.5991  -45.4074 H         1 UNK         0.0600 
    203 H203       -1.8389  -24.2941  -47.0166 H         1 UNK         0.0600 
    204 H204       -1.7850  -25.3274  -45.5984 H         1 UNK         0.0600 
    205 H205       -6.0666  -25.7716  -46.3133 H         1 UNK         0.3000 
    206 H206       -7.1093  -27.4334  -47.3569 H         1 UNK         0.0600 
    207 H207       -5.5617  -28.8153  -45.9548 H         1 UNK         0.0600 
    208 H208       -6.0044  -29.6369  -47.4408 H         1 UNK         0.0600 
    209 H209       -4.4169  -28.8948  -47.2934 H         1 UNK         0.0600 
    210 H210       -6.1835  -25.3676  -49.0355 H         1 UNK         0.3000 
    211 H211       -6.1796  -24.7103  -51.1356 H         1 UNK         0.0600 
    212 H212       -7.3000  -26.0295  -52.8642 H         1 UNK         0.0600 
    213 H213       -8.1651  -26.2157  -51.3511 H         1 UNK         0.0600 
    214 H214       -7.1144  -27.5058  -51.9355 H         1 UNK         0.0600 
    215 H215       -3.6947  -26.0901  -50.0098 H         1 UNK         0.3000 
    216 H216       -2.3307  -27.5125  -51.9424 H         1 UNK         0.0600 
    217 H217       -1.2273  -25.6889  -49.7456 H         1 UNK         0.0600 
    218 H218       -0.2791  -26.8825  -50.6250 H         1 UNK         0.0600 
    219 H219       -1.6085  -27.4040  -49.6047 H         1 UNK         0.0600 
    220 H220       -2.5210  -23.9802  -51.6924 H         1 UNK         0.3000 
    221 H221       -1.0531  -23.7340  -54.3056 H         1 UNK         0.0600 
    222 H222        0.2275  -22.8010  -52.3433 H         1 UNK         0.0600 
    223 H223       -1.1336  -21.7102  -52.0311 H         1 UNK         0.0600 
    224 H224       -0.2119  -21.5746  -53.5204 H         1 UNK         0.0600 
    225 H225       -4.0803  -24.0203  -53.5400 H         1 UNK         0.3000 
    226 H226       -5.2894  -21.4769  -54.1076 H         1 UNK         0.0600 
    227 H227       -6.4164  -24.3138  -54.3115 H         1 UNK         0.0600 
    228 H228       -6.5234  -23.2345  -52.9154 H         1 UNK         0.0600 
    229 H229       -7.3704  -22.8387  -54.3988 H         1 UNK         0.0600 
    230 H230       -4.1956  -24.1291  -56.1770 H         1 UNK         0.3000 
    231 H231       -5.3389  -23.1644  -58.6348 H         1 UNK         0.0600 
    232 H232       -2.9816  -25.0549  -58.1068 H         1 UNK         0.0600 
    233 H233       -3.7916  -24.8388  -59.6537 H         1 UNK         0.0600 
    234 H234       -4.6687  -25.5333  -58.3002 H         1 UNK         0.0600 
    235 H235       -2.5183  -22.2170  -56.7970 H         1 UNK         0.3000 
    236 H236       -1.1875  -20.8911  -59.0849 H         1 UNK         0.0600 
    237 H237       -0.3618  -21.1598  -56.1447 H         1 UNK         0.0600 
    238 H238        0.2260  -22.1477  -57.4801 H         1 UNK         0.0600 
    239 H239        0.5953  -20.4311  -57.4258 H         1 UNK         0.0600 
    240 H240       -2.5647  -20.0778  -55.8449 H         1 UNK         0.3000 
    241 H241       -2.3877  -17.2297  -56.3413 H         1 UNK         0.0600 
    242 H242       -6.1737  -18.2757  -57.3881 H         1 UNK         0.3800 
    243 H243       -5.0475  -19.5420  -56.9941 H         1 UNK         0.3800 
    244 H244       -3.6211  -18.7866  -54.0303 H         1 UNK         0.0800 
    245 H245       -3.5030  -17.0422  -54.0823 H         1 UNK         0.0800 
    246 H246       -2.4526  -17.3037  -51.7409 H         1 UNK         0.0800 
    247 H247       -2.2102  -19.0352  -51.7612 H         1 UNK         0.0800 
@<TRIPOS>BOND
     1    1    2 1    
     2    1  127 1    
     3    1  128 1    
     4    1  129 1    
     5    2    3 2    
     6    2    4 am   BACKBONE|DICT|INTERRES
     7    4    5 1    
     8    4  130 1    
     9    5    6 1    
    10    5   65 1    
    11    5  131 1    
    12    6    7 1    
    13    6  132 1    
    14    6  133 1    
    15    7    8 1    
    16    8    9 1    
    17    8  134 1    
    18    8  135 1    
    19    9   10 ar   
    20    9   14 ar   
    21   10   11 ar   
    22   10  136 1    
    23   11   12 ar   
    24   11  126 1    
    25   12   13 ar   
    26   12  137 1    
    27   13   14 ar   
    28   13   15 1    
    29   14  138 1    
    30   15   16 1    
    31   15  139 1    
    32   15  140 1    
    33   16   17 1    
    34   17   18 1    
    35   17  141 1    
    36   17  142 1    
    37   18   19 1    
    38   18   67 1    
    39   18  143 1    
    40   19   20 am   BACKBONE|DICT|INTERRES
    41   19  144 1    
    42   20   21 2    
    43   20   22 1    
    44   22   23 1    
    45   22   24 1    
    46   22  145 1    
    47   23  146 1    
    48   23  147 1    
    49   23  148 1    
    50   24   25 am   BACKBONE|DICT|INTERRES
    51   24  149 1    
    52   25   26 2    
    53   25   27 1    
    54   27   28 1    
    55   27   29 1    
    56   27  150 1    
    57   28  151 1    
    58   28  152 1    
    59   28  153 1    
    60   29   30 am   BACKBONE|DICT|INTERRES
    61   29  154 1    
    62   30   31 2    
    63   30   32 1    
    64   32   33 1    
    65   32   34 1    
    66   32  155 1    
    67   33  156 1    
    68   33  157 1    
    69   33  158 1    
    70   34   35 am   BACKBONE|DICT|INTERRES
    71   34  159 1    
    72   35   36 2    
    73   35   37 1    
    74   37   38 1    
    75   37   39 1    
    76   37  160 1    
    77   38  161 1    
    78   38  162 1    
    79   38  163 1    
    80   39   40 am   BACKBONE|DICT|INTERRES
    81   39  164 1    
    82   40   41 2    
    83   40   42 1    
    84   42   43 1    
    85   42   44 1    
    86   42  165 1    
    87   43  166 1    
    88   43  167 1    
    89   43  168 1    
    90   44   45 am   BACKBONE|DICT|INTERRES
    91   44  169 1    
    92   45   46 2    
    93   45   47 1    
    94   47   48 1    
    95   47   49 1    
    96   47  170 1    
    97   48  171 1    
    98   48  172 1    
    99   48  173 1    
   100   49   50 am   BACKBONE|DICT|INTERRES
   101   49  174 1    
   102   50   51 2    
   103   50   52 1    
   104   52   53 1    
   105   52   54 1    
   106   52  175 1    
   107   53  176 1    
   108   53  177 1    
   109   53  178 1    
   110   54   55 am   BACKBONE|DICT|INTERRES
   111   54  179 1    
   112   55   56 2    
   113   55   57 1    
   114   57   58 1    
   115   57   59 1    
   116   57  180 1    
   117   58  181 1    
   118   58  182 1    
   119   58  183 1    
   120   59   60 am   BACKBONE|DICT|INTERRES
   121   59  184 1    
   122   60   61 2    
   123   60   62 1    
   124   62   63 1    
   125   62   64 1    
   126   62  185 1    
   127   63  186 1    
   128   63  187 1    
   129   63  188 1    
   130   64   65 am   BACKBONE|DICT|INTERRES
   131   64  189 1    
   132   65   66 2    
   133   67   68 2    
   134   67   69 am   BACKBONE|DICT|INTERRES
   135   69   70 1    
   136   69  190 1    
   137   70   71 1    
   138   70   72 1    
   139   70  191 1    
   140   71  192 1    
   141   71  193 1    
   142   71  194 1    
   143   72   73 2    
   144   72   74 am   BACKBONE|DICT|INTERRES
   145   74   75 1    
   146   74  195 1    
   147   75   76 1    
   148   75   77 1    
   149   75  196 1    
   150   76  197 1    
   151   76  198 1    
   152   76  199 1    
   153   77   78 2    
   154   77   79 am   BACKBONE|DICT|INTERRES
   155   79   80 1    
   156   79  200 1    
   157   80   81 1    
   158   80   82 1    
   159   80  201 1    
   160   81  202 1    
   161   81  203 1    
   162   81  204 1    
   163   82   83 2    
   164   82   84 am   BACKBONE|DICT|INTERRES
   165   84   85 1    
   166   84  205 1    
   167   85   86 1    
   168   85   87 1    
   169   85  206 1    
   170   86  207 1    
   171   86  208 1    
   172   86  209 1    
   173   87   88 2    
   174   87   89 am   BACKBONE|DICT|INTERRES
   175   89   90 1    
   176   89  210 1    
   177   90   91 1    
   178   90   92 1    
   179   90  211 1    
   180   91  212 1    
   181   91  213 1    
   182   91  214 1    
   183   92   93 2    
   184   92   94 am   BACKBONE|DICT|INTERRES
   185   94   95 1    
   186   94  215 1    
   187   95   96 1    
   188   95   97 1    
   189   95  216 1    
   190   96  217 1    
   191   96  218 1    
   192   96  219 1    
   193   97   98 2    
   194   97   99 am   BACKBONE|DICT|INTERRES
   195   99  100 1    
   196   99  220 1    
   197  100  101 1    
   198  100  102 1    
   199  100  221 1    
   200  101  222 1    
   201  101  223 1    
   202  101  224 1    
   203  102  103 2    
   204  102  104 am   BACKBONE|DICT|INTERRES
   205  104  105 1    
   206  104  225 1    
   207  105  106 1    
   208  105  107 1    
   209  105  226 1    
   210  106  227 1    
   211  106  228 1    
   212  106  229 1    
   213  107  108 2    
   214  107  109 am   BACKBONE|DICT|INTERRES
   215  109  110 1    
   216  109  230 1    
   217  110  111 1    
   218  110  112 1    
   219  110  231 1    
   220  111  232 1    
   221  111  233 1    
   222  111  234 1    
   223  112  113 2    
   224  112  114 am   BACKBONE|DICT|INTERRES
   225  114  115 1    
   226  114  235 1    
   227  115  116 1    
   228  115  117 1    
   229  115  236 1    
   230  116  237 1    
   231  116  238 1    
   232  116  239 1    
   233  117  118 2    
   234  117  119 am   BACKBONE|DICT|INTERRES
   235  119  120 1    
   236  119  240 1    
   237  120  121 1    
   238  120  124 1    
   239  120  241 1    
   240  121  122 am   BACKBONE|DICT|INTERRES
   241  121  123 2    
   242  122  242 1    
   243  122  243 1    
   244  124  125 1    
   245  124  244 1    
   246  124  245 1    
   247  125  126 1    
   248  126  246 1    
   249  126  247 1    
@<TRIPOS>SUBSTRUCTURE
     1 UNK         1 GROUP             0       ****    0 ROOT    
