@<TRIPOS>MOLECULE
3R540
247   249    1
SMALL
USER_CHARGES


@<TRIPOS>ATOM
      1 CA          5.7874  -14.7841  -47.5912 C.3       0 UNK        -0.1800 
      2 C           4.5162  -15.3359  -48.2200 C.2       0 UNK         0.5000 
      3 O           3.8061  -16.1091  -47.5797 O.2       0 UNK        -0.5000 
      4 N           4.2256  -14.9338  -49.4647 N.am      1 UNK        -0.5000 
      5 CA          3.0384  -15.3546  -50.2230 C.3       1 UNK         0.1400 
      6 C6          3.2581  -15.2755  -51.7568 C.3       23 UNK        -0.0398 
      7 S7          4.5527  -16.4181  -52.3501 S.3       23 UNK        -0.2404 
      8 C8          3.5603  -17.8532  -52.8876 C.3       23 UNK        -0.0205 
      9 C9          2.8842  -18.5349  -51.7078 C.ar      23 UNK        -0.0193 
     10 C10         1.5254  -18.3308  -51.4530 C.ar      23 UNK        -0.1150 
     11 C11         0.9287  -18.8804  -50.3160 C.ar      23 UNK        -0.0193 
     12 C12         1.6941  -19.6731  -49.4516 C.ar      23 UNK        -0.1150 
     13 C13         3.0567  -19.8856  -49.6936 C.ar      23 UNK        -0.0193 
     14 C14         3.6383  -19.3193  -50.8317 C.ar      23 UNK        -0.1150 
     15 C15         3.9458  -20.6376  -48.7037 C.3       23 UNK        -0.0205 
     16 S16         3.2578  -22.2188  -48.1127 S.3       23 UNK        -0.2404 
     17 C17         2.6381  -21.7471  -46.4591 C.3       23 UNK        -0.0398 
     18 CA          1.5766  -22.7273  -45.9021 C.3       11 UNK         0.1400 
     19 N           1.3346  -22.4909  -44.4812 N.am      11 UNK        -0.5000 
     20 C           0.9108  -23.4004  -43.5960 C.2       10 UNK         0.5000 
     21 O           0.7042  -24.5807  -43.8813 O.2       10 UNK        -0.5000 
     22 CA          0.6596  -22.8898  -42.1584 C.3       10 UNK         0.1400 
     23 CB          0.8000  -23.9950  -41.0917 C.3       10 UNK        -0.1800 
     24 N           1.4644  -21.7106  -41.8121 N.am      10 UNK        -0.5000 
     25 C           2.8009  -21.6234  -41.7209 C.2       9 UNK         0.5000 
     26 O           3.5601  -22.5853  -41.8414 O.2       9 UNK        -0.5000 
     27 CA          3.4054  -20.2205  -41.4967 C.3       9 UNK         0.1400 
     28 CB          4.1165  -19.7441  -42.7739 C.3       9 UNK        -0.1800 
     29 N           2.4212  -19.2078  -41.1085 N.am      9 UNK        -0.5000 
     30 C           1.8640  -19.0975  -39.8952 C.2       8 UNK         0.5000 
     31 O           2.1665  -19.8077  -38.9360 O.2       8 UNK        -0.5000 
     32 CA          0.7482  -18.0442  -39.7437 C.3       8 UNK         0.1400 
     33 CB          1.3363  -16.6603  -39.4300 C.3       8 UNK        -0.1800 
     34 N          -0.1124  -17.9549  -40.9269 N.am      8 UNK        -0.5000 
     35 C          -0.9054  -18.9449  -41.3637 C.2       7 UNK         0.5000 
     36 O          -1.0232  -20.0296  -40.7943 O.2       7 UNK        -0.5000 
     37 CA         -1.6477  -18.7099  -42.6888 C.3       7 UNK         0.1400 
     38 CB         -2.9135  -17.8702  -42.4657 C.3       7 UNK        -0.1800 
     39 N          -0.7920  -18.0763  -43.6916 N.am      7 UNK        -0.5000 
     40 C           0.2609  -18.6722  -44.2669 C.2       6 UNK         0.5000 
     41 O           0.5579  -19.8515  -44.0835 O.2       6 UNK        -0.5000 
     42 CA          1.1371  -17.8257  -45.2024 C.3       6 UNK         0.1400 
     43 CB          0.5645  -17.8434  -46.6192 C.3       6 UNK        -0.1800 
     44 N           1.2890  -16.4469  -44.7579 N.am      6 UNK        -0.5000 
     45 C           1.9006  -16.0716  -43.6290 C.2       5 UNK         0.5000 
     46 O           2.4215  -16.8561  -42.8368 O.2       5 UNK        -0.5000 
     47 CA          1.8707  -14.5688  -43.3116 C.3       5 UNK         0.1400 
     48 CB          2.9323  -13.8150  -44.1286 C.3       5 UNK        -0.1800 
     49 N           0.5498  -13.9929  -43.5674 N.am      5 UNK        -0.5000 
     50 C          -0.5471  -14.2662  -42.8472 C.2       4 UNK         0.5000 
     51 O          -0.5547  -15.0127  -41.8671 O.2       4 UNK        -0.5000 
     52 CA         -1.8613  -13.6227  -43.3279 C.3       4 UNK         0.1400 
     53 CB         -1.9509  -12.1596  -42.8687 C.3       4 UNK        -0.1800 
     54 N          -2.0260  -13.6881  -44.7821 N.am      4 UNK        -0.5000 
     55 C          -2.2182  -14.8258  -45.4642 C.2       3 UNK         0.5000 
     56 O          -2.2826  -15.9334  -44.9360 O.2       3 UNK        -0.5000 
     57 CA         -2.3128  -14.7204  -46.9975 C.3       3 UNK         0.1400 
     58 CB         -3.7492  -14.3940  -47.4318 C.3       3 UNK        -0.1800 
     59 N          -1.3870  -13.7589  -47.6049 N.am      3 UNK        -0.5000 
     60 C          -0.0559  -13.7803  -47.4579 C.2       2 UNK         0.5000 
     61 O           0.5370  -14.5017  -46.6549 O.2       2 UNK        -0.5000 
     62 CA          0.7620  -12.8405  -48.3603 C.3       2 UNK         0.1400 
     63 CB          1.3012  -11.6507  -47.5518 C.3       2 UNK        -0.1800 
     64 N           1.8837  -13.5596  -48.9656 N.am      2 UNK        -0.5000 
     65 C           1.7591  -14.5886  -49.8180 C.2       1 UNK         0.5000 
     66 O           0.6786  -14.9409  -50.2923 O.2       1 UNK        -0.5000 
     67 C           0.2629  -22.6320  -46.6973 C.2       11 UNK         0.5000 
     68 O           0.0642  -23.4192  -47.6205 O.2       11 UNK        -0.5000 
     69 N          -0.6098  -21.6803  -46.3274 N.am      12 UNK        -0.5000 
     70 CA         -1.8202  -21.3087  -47.0695 C.3       12 UNK         0.1400 
     71 CB         -2.5685  -20.2021  -46.3099 C.3       12 UNK        -0.1800 
     72 C          -2.7681  -22.4806  -47.3840 C.2       12 UNK         0.5000 
     73 O          -3.2585  -22.5827  -48.5085 O.2       12 UNK        -0.5000 
     74 N          -2.9672  -23.3627  -46.3967 N.am      13 UNK        -0.5000 
     75 CA         -3.8117  -24.5529  -46.5053 C.3       13 UNK         0.1400 
     76 CB         -4.0321  -25.1323  -45.0994 C.3       13 UNK        -0.1800 
     77 C          -3.2465  -25.6331  -47.4491 C.2       13 UNK         0.5000 
     78 O          -4.0241  -26.4085  -48.0068 O.2       13 UNK        -0.5000 
     79 N          -1.9169  -25.6746  -47.6030 N.am      14 UNK        -0.5000 
     80 CA         -1.2164  -26.6106  -48.4794 C.3       14 UNK         0.1400 
     81 CB          0.1483  -26.9571  -47.8621 C.3       14 UNK        -0.1800 
     82 C          -1.0428  -26.0315  -49.8926 C.2       14 UNK         0.5000 
     83 O          -1.2310  -26.7551  -50.8711 O.2       14 UNK        -0.5000 
     84 N          -0.6741  -24.7461  -49.9699 N.am      15 UNK        -0.5000 
     85 CA         -0.4080  -24.0195  -51.2070 C.3       15 UNK         0.1400 
     86 CB          0.3251  -22.7083  -50.8812 C.3       15 UNK        -0.1800 
     87 C          -1.6816  -23.7669  -52.0299 C.2       15 UNK         0.5000 
     88 O          -1.7382  -24.1902  -53.1853 O.2       15 UNK        -0.5000 
     89 N          -2.6685  -23.0909  -51.4165 N.am      16 UNK        -0.5000 
     90 CA         -3.9710  -22.7068  -51.9797 C.3       16 UNK         0.1400 
     91 CB         -4.9209  -23.9201  -51.9628 C.3       16 UNK        -0.1800 
     92 C          -3.8741  -22.0374  -53.3714 C.2       16 UNK         0.5000 
     93 O          -4.5862  -22.4280  -54.2998 O.2       16 UNK        -0.5000 
     94 N          -2.9491  -21.0747  -53.4966 N.am      17 UNK        -0.5000 
     95 CA         -2.5885  -20.3741  -54.7294 C.3       17 UNK         0.1400 
     96 CB         -1.4308  -19.4043  -54.4371 C.3       17 UNK        -0.1800 
     97 C          -3.7886  -19.6439  -55.3604 C.2       17 UNK         0.5000 
     98 O          -4.2384  -18.6318  -54.8210 O.2       17 UNK        -0.5000 
     99 N          -4.2855  -20.1997  -56.4760 N.am      18 UNK        -0.5000 
    100 CA        -5.4915  -19.7956  -57.2097 C.3       18 UNK         0.1400 
    101 CB        -5.3203  -18.3915  -57.8278 C.3       18 UNK        -0.1800 
    102 C         -6.7829  -19.9384  -56.3725 C.2       18 UNK         0.5000 
    103 O         -7.7108  -19.1434  -56.5352 O.2       18 UNK        -0.5000 
    104 N         -6.8126  -20.9551  -55.4953 N.am      19 UNK        -0.5000 
    105 CA        -7.8352  -21.2216  -54.4809 C.3       19 UNK         0.1400 
    106 CB        -9.1917  -21.5821  -55.1286 C.3       19 UNK        -0.1800 
    107 C         -7.8904  -20.0681  -53.4585 C.2       19 UNK         0.5000 
    108 O         -6.8328  -19.6562  -52.9787 O.2       19 UNK        -0.5000 
    109 N         -9.0984  -19.5847  -53.1260 N.am      20 UNK        -0.5000 
    110 CA        -9.3888  -18.3827  -52.3269 C.3       20 UNK         0.1400 
    111 CB        -9.0952  -17.1251  -53.1708 C.3       20 UNK        -0.1800 
    112 C         -8.6857  -18.3369  -50.9508 C.2       20 UNK         0.5000 
    113 O         -8.3009  -17.2602  -50.4894 O.2       20 UNK        -0.5000 
    114 N         -8.4779  -19.5183  -50.3484 N.am      21 UNK        -0.5000 
    115 CA        -7.7120  -19.7612  -49.1187 C.3       21 UNK         0.1400 
    116 CB        -8.4799  -19.2229  -47.8934 C.3       21 UNK        -0.1800 
    117 C         -6.2538  -19.2458  -49.1823 C.2       21 UNK         0.5000 
    118 O         -5.6895  -18.8840  -48.1491 O.2       21 UNK        -0.5000 
    119 N         -5.6745  -19.2131  -50.3928 N.am      22 UNK        -0.5000 
    120 CA        -4.3550  -18.6417  -50.7097 C.3       22 UNK         0.1400 
    121 C         -4.3134  -17.0810  -50.6950 C.2       22 UNK         0.5000 
    122 N         -5.4409  -16.3802  -50.6309 N.am      22 UNK        -0.7600 
    123 O         -3.2436  -16.4848  -50.7637 O.2       22 UNK        -0.5000 
    124 C124       -3.2157  -19.2959  -49.8756 C.3       23 UNK        -0.0398 
    125 S125       -1.6928  -19.6486  -50.8149 S.3       23 UNK        -0.2404 
    126 C126       -0.5181  -18.5457  -49.9843 C.3       23 UNK        -0.0205 
    127 H127        5.5477  -14.2448  -46.6747 H         1 UNK         0.0600 
    128 H128        6.4654  -15.5999  -47.3404 H         1 UNK         0.0600 
    129 H129        6.3095  -14.1014  -48.2620 H         1 UNK         0.0600 
    130 H130        4.8567  -14.3101  -49.9475 H         1 UNK         0.3000 
    131 H131        2.8415  -16.3961  -49.9668 H         1 UNK         0.0600 
    132 H132        3.5366  -14.2613  -52.0472 H         1 UNK         0.0800 
    133 H133        2.3366  -15.4962  -52.2985 H         1 UNK         0.0800 
    134 H134        4.2135  -18.5673  -53.3910 H         1 UNK         0.0800 
    135 H135        2.8249  -17.5368  -53.6289 H         1 UNK         0.0800 
    136 H136        0.9398  -17.7045  -52.1115 H         1 UNK         0.1150 
    137 H137        1.2357  -20.1027  -48.5751 H         1 UNK         0.1150 
    138 H138        4.6951  -19.4503  -51.0184 H         1 UNK         0.1150 
    139 H139        4.9091  -20.8591  -49.1654 H         1 UNK         0.0800 
    140 H140        4.1645  -19.9827  -47.8592 H         1 UNK         0.0800 
    141 H141        2.2518  -20.7268  -46.4826 H         1 UNK         0.0800 
    142 H142        3.4995  -21.7240  -45.7898 H         1 UNK         0.0800 
    143 H143        1.9612  -23.7432  -46.0181 H         1 UNK         0.0600 
    144 H144        1.3763  -21.5238  -44.1713 H         1 UNK         0.3000 
    145 H145       -0.3778  -22.5527  -42.1423 H         1 UNK         0.0600 
    146 H146        0.6160  -23.6021  -40.0917 H         1 UNK         0.0600 
    147 H147        0.0796  -24.7959  -41.2618 H         1 UNK         0.0600 
    148 H148        1.7932  -24.4443  -41.0993 H         1 UNK         0.0600 
    149 H149        0.9369  -20.8549  -41.6987 H         1 UNK         0.3000 
    150 H150        4.1487  -20.3057  -40.7014 H         1 UNK         0.0600 
    151 H151        4.8959  -20.4449  -43.0756 H         1 UNK         0.0600 
    152 H152        4.5926  -18.7751  -42.6228 H         1 UNK         0.0600 
    153 H153        3.4206  -19.6484  -43.6078 H         1 UNK         0.0600 
    154 H154        2.1762  -18.5206  -41.8155 H         1 UNK         0.3000 
    155 H155        0.1233  -18.3448  -38.9002 H         1 UNK         0.0600 
    156 H156        1.9608  -16.2917  -40.2437 H         1 UNK         0.0600 
    157 H157        1.9534  -16.6931  -38.5313 H         1 UNK         0.0600 
    158 H158        0.5478  -15.9275  -39.2572 H         1 UNK         0.0600 
    159 H159       -0.0901  -17.0816  -41.4416 H         1 UNK         0.3000 
    160 H160       -1.9550  -19.6849  -43.0724 H         1 UNK         0.0600 
    161 H161       -3.5050  -17.8038  -43.3789 H         1 UNK         0.0600 
    162 H162       -2.6741  -16.8554  -42.1466 H         1 UNK         0.0600 
    163 H163       -3.5499  -18.3157  -41.7001 H         1 UNK         0.0600 
    164 H164       -1.0408  -17.1320  -43.9693 H         1 UNK         0.3000 
    165 H165        2.1291  -18.2803  -45.2310 H         1 UNK         0.0600 
    166 H166        0.3933  -18.8694  -46.9378 H         1 UNK         0.0600 
    167 H167        1.2495  -17.3812  -47.3310 H         1 UNK         0.0600 
    168 H168       -0.3873  -17.3155  -46.6766 H         1 UNK         0.0600 
    169 H169        0.9285  -15.7256  -45.3807 H         1 UNK         0.3000 
    170 H170        2.1007  -14.4429  -42.2515 H         1 UNK         0.0600 
    171 H171        3.9301  -14.2022  -43.9185 H         1 UNK         0.0600 
    172 H172        2.7651  -13.9138  -45.2018 H         1 UNK         0.0600 
    173 H173        2.9374  -12.7524  -43.8856 H         1 UNK         0.0600 
    174 H174        0.4539  -13.4337  -44.4022 H         1 UNK         0.3000 
    175 H175       -2.6856  -14.1728  -42.8686 H         1 UNK         0.0600 
    176 H176       -2.9149  -11.7230  -43.1306 H         1 UNK         0.0600 
    177 H177       -1.8444  -12.0837  -41.7857 H         1 UNK         0.0600 
    178 H178       -1.1703  -11.5453  -43.3193 H         1 UNK         0.0600 
    179 H179       -1.9725  -12.8199  -45.2938 H         1 UNK         0.3000 
    180 H180       -2.0607  -15.7023  -47.4031 H         1 UNK         0.0600 
    181 H181       -4.0546  -13.3999  -47.1033 H         1 UNK         0.0600 
    182 H182       -4.4563  -15.1119  -47.0134 H         1 UNK         0.0600 
    183 H183       -3.8518  -14.4382  -48.5163 H         1 UNK         0.0600 
    184 H184       -1.7886  -13.1258  -48.2810 H         1 UNK         0.3000 
    185 H185        0.1245  -12.4619  -49.1618 H         1 UNK         0.0600 
    186 H186        1.9622  -11.9756  -46.7472 H         1 UNK         0.0600 
    187 H187        1.8594  -10.9627  -48.1871 H         1 UNK         0.0600 
    188 H188        0.4860  -11.0851  -47.0988 H         1 UNK         0.0600 
    189 H189        2.8016  -13.3599  -48.5982 H         1 UNK         0.3000 
    190 H190       -0.3749  -21.1072  -45.5264 H         1 UNK         0.3000 
    191 H191       -1.4899  -20.9019  -48.0262 H         1 UNK         0.0600 
    192 H192       -1.9801  -19.2879  -46.2516 H         1 UNK         0.0600 
    193 H193       -2.8159  -20.5082  -45.2931 H         1 UNK         0.0600 
    194 H194       -3.5043  -19.9460  -46.8079 H         1 UNK         0.0600 
    195 H195       -2.5024  -23.2119  -45.5138 H         1 UNK         0.3000 
    196 H196       -4.7805  -24.2445  -46.9040 H         1 UNK         0.0600 
    197 H197       -4.6803  -26.0090  -45.1350 H         1 UNK         0.0600 
    198 H198       -4.5086  -24.4045  -44.4423 H         1 UNK         0.0600 
    199 H199       -3.0918  -25.4377  -44.6384 H         1 UNK         0.0600 
    200 H200       -1.3519  -24.9572  -47.1668 H         1 UNK         0.3000 
    201 H201       -1.7888  -27.5371  -48.5620 H         1 UNK         0.0600 
    202 H202        0.0304  -27.4121  -46.8785 H         1 UNK         0.0600 
    203 H203        0.7795  -26.0751  -47.7480 H         1 UNK         0.0600 
    204 H204        0.6890  -27.6687  -48.4872 H         1 UNK         0.0600 
    205 H205       -0.5003  -24.2381  -49.1047 H         1 UNK         0.3000 
    206 H206        0.2619  -24.6285  -51.8177 H         1 UNK         0.0600 
    207 H207       -0.2186  -22.1140  -50.1469 H         1 UNK         0.0600 
    208 H208        1.3156  -22.9053  -50.4714 H         1 UNK         0.0600 
    209 H209        0.4587  -22.0929  -51.7719 H         1 UNK         0.0600 
    210 H210       -2.5372  -22.8342  -50.4438 H         1 UNK         0.3000 
    211 H211       -4.3871  -21.9541  -51.3086 H         1 UNK         0.0600 
    212 H212       -4.5692  -24.7140  -52.6227 H         1 UNK         0.0600 
    213 H213       -5.9234  -23.6393  -52.2877 H         1 UNK         0.0600 
    214 H214       -5.0093  -24.3344  -50.9582 H         1 UNK         0.0600 
    215 H215       -2.4224  -20.8138  -52.6735 H         1 UNK         0.3000 
    216 H216       -2.2224  -21.1241  -55.4333 H         1 UNK         0.0600 
    217 H217       -1.1091  -18.8965  -55.3471 H         1 UNK         0.0600 
    218 H218       -0.5649  -19.9299  -54.0337 H         1 UNK         0.0600 
    219 H219       -1.7191  -18.6359  -53.7184 H         1 UNK         0.0600 
    220 H220       -3.8489  -21.0476  -56.8108 H         1 UNK         0.3000 
    221 H221       -5.5934  -20.5025  -58.0343 H         1 UNK         0.0600 
    222 H222       -5.2905  -17.6127  -57.0654 H         1 UNK         0.0600 
    223 H223       -4.4019  -18.3262  -58.4111 H         1 UNK         0.0600 
    224 H224       -6.1468  -18.1573  -58.4996 H         1 UNK         0.0600 
    225 H225       -5.9635  -21.5009  -55.3801 H         1 UNK         0.3000 
    226 H226       -7.4913  -22.0974  -53.9291 H         1 UNK         0.0600 
    227 H227       -9.0730  -22.3876  -55.8535 H         1 UNK         0.0600 
    228 H228       -9.9048  -21.9315  -54.3813 H         1 UNK         0.0600 
    229 H229       -9.6415  -20.7358  -55.6486 H         1 UNK         0.0600 
    230 H230       -9.9043  -20.0206  -53.5520 H         1 UNK         0.3000 
    231 H231      -10.4592  -18.4004  -52.1178 H         1 UNK         0.0600 
    232 H232       -9.6186  -17.1603  -54.1264 H         1 UNK         0.0600 
    233 H233       -8.0292  -17.0221  -53.3784 H         1 UNK         0.0600 
    234 H234       -9.4204  -16.2189  -52.6583 H         1 UNK         0.0600 
    235 H235       -8.8163  -20.3438  -50.8222 H         1 UNK         0.3000 
    236 H236       -7.6405  -20.8445  -49.0127 H         1 UNK         0.0600 
    237 H237       -7.9943  -19.5211  -46.9634 H         1 UNK         0.0600 
    238 H238       -8.5358  -18.1340  -47.8984 H         1 UNK         0.0600 
    239 H239       -9.4979  -19.6111  -47.8641 H         1 UNK         0.0600 
    240 H240       -6.2250  -19.4735  -51.2080 H         1 UNK         0.3000 
    241 H241       -4.2006  -18.9076  -51.7562 H         1 UNK         0.0600 
    242 H242       -5.3916  -15.3748  -50.6366 H         1 UNK         0.3800 
    243 H243       -6.3461  -16.8342  -50.5704 H         1 UNK         0.3800 
    244 H244       -2.9976  -18.7055  -48.9844 H         1 UNK         0.0800 
    245 H245       -3.5491  -20.2610  -49.5000 H         1 UNK         0.0800 
    246 H246       -0.6765  -18.6100  -48.9109 H         1 UNK         0.0800 
    247 H247       -0.7342  -17.5124  -50.2612 H         1 UNK         0.0800 
@<TRIPOS>BOND
     1    1    2 1    
     2    1  127 1    
     3    1  128 1    
     4    1  129 1    
     5    2    3 2    
     6    2    4 am   BACKBONE|DICT|INTERRES
     7    4    5 1    
     8    4  130 1    
     9    5    6 1    
    10    5   65 1    
    11    5  131 1    
    12    6    7 1    
    13    6  132 1    
    14    6  133 1    
    15    7    8 1    
    16    8    9 1    
    17    8  134 1    
    18    8  135 1    
    19    9   10 ar   
    20    9   14 ar   
    21   10   11 ar   
    22   10  136 1    
    23   11   12 ar   
    24   11  126 1    
    25   12   13 ar   
    26   12  137 1    
    27   13   14 ar   
    28   13   15 1    
    29   14  138 1    
    30   15   16 1    
    31   15  139 1    
    32   15  140 1    
    33   16   17 1    
    34   17   18 1    
    35   17  141 1    
    36   17  142 1    
    37   18   19 1    
    38   18   67 1    
    39   18  143 1    
    40   19   20 am   BACKBONE|DICT|INTERRES
    41   19  144 1    
    42   20   21 2    
    43   20   22 1    
    44   22   23 1    
    45   22   24 1    
    46   22  145 1    
    47   23  146 1    
    48   23  147 1    
    49   23  148 1    
    50   24   25 am   BACKBONE|DICT|INTERRES
    51   24  149 1    
    52   25   26 2    
    53   25   27 1    
    54   27   28 1    
    55   27   29 1    
    56   27  150 1    
    57   28  151 1    
    58   28  152 1    
    59   28  153 1    
    60   29   30 am   BACKBONE|DICT|INTERRES
    61   29  154 1    
    62   30   31 2    
    63   30   32 1    
    64   32   33 1    
    65   32   34 1    
    66   32  155 1    
    67   33  156 1    
    68   33  157 1    
    69   33  158 1    
    70   34   35 am   BACKBONE|DICT|INTERRES
    71   34  159 1    
    72   35   36 2    
    73   35   37 1    
    74   37   38 1    
    75   37   39 1    
    76   37  160 1    
    77   38  161 1    
    78   38  162 1    
    79   38  163 1    
    80   39   40 am   BACKBONE|DICT|INTERRES
    81   39  164 1    
    82   40   41 2    
    83   40   42 1    
    84   42   43 1    
    85   42   44 1    
    86   42  165 1    
    87   43  166 1    
    88   43  167 1    
    89   43  168 1    
    90   44   45 am   BACKBONE|DICT|INTERRES
    91   44  169 1    
    92   45   46 2    
    93   45   47 1    
    94   47   48 1    
    95   47   49 1    
    96   47  170 1    
    97   48  171 1    
    98   48  172 1    
    99   48  173 1    
   100   49   50 am   BACKBONE|DICT|INTERRES
   101   49  174 1    
   102   50   51 2    
   103   50   52 1    
   104   52   53 1    
   105   52   54 1    
   106   52  175 1    
   107   53  176 1    
   108   53  177 1    
   109   53  178 1    
   110   54   55 am   BACKBONE|DICT|INTERRES
   111   54  179 1    
   112   55   56 2    
   113   55   57 1    
   114   57   58 1    
   115   57   59 1    
   116   57  180 1    
   117   58  181 1    
   118   58  182 1    
   119   58  183 1    
   120   59   60 am   BACKBONE|DICT|INTERRES
   121   59  184 1    
   122   60   61 2    
   123   60   62 1    
   124   62   63 1    
   125   62   64 1    
   126   62  185 1    
   127   63  186 1    
   128   63  187 1    
   129   63  188 1    
   130   64   65 am   BACKBONE|DICT|INTERRES
   131   64  189 1    
   132   65   66 2    
   133   67   68 2    
   134   67   69 am   BACKBONE|DICT|INTERRES
   135   69   70 1    
   136   69  190 1    
   137   70   71 1    
   138   70   72 1    
   139   70  191 1    
   140   71  192 1    
   141   71  193 1    
   142   71  194 1    
   143   72   73 2    
   144   72   74 am   BACKBONE|DICT|INTERRES
   145   74   75 1    
   146   74  195 1    
   147   75   76 1    
   148   75   77 1    
   149   75  196 1    
   150   76  197 1    
   151   76  198 1    
   152   76  199 1    
   153   77   78 2    
   154   77   79 am   BACKBONE|DICT|INTERRES
   155   79   80 1    
   156   79  200 1    
   157   80   81 1    
   158   80   82 1    
   159   80  201 1    
   160   81  202 1    
   161   81  203 1    
   162   81  204 1    
   163   82   83 2    
   164   82   84 am   BACKBONE|DICT|INTERRES
   165   84   85 1    
   166   84  205 1    
   167   85   86 1    
   168   85   87 1    
   169   85  206 1    
   170   86  207 1    
   171   86  208 1    
   172   86  209 1    
   173   87   88 2    
   174   87   89 am   BACKBONE|DICT|INTERRES
   175   89   90 1    
   176   89  210 1    
   177   90   91 1    
   178   90   92 1    
   179   90  211 1    
   180   91  212 1    
   181   91  213 1    
   182   91  214 1    
   183   92   93 2    
   184   92   94 am   BACKBONE|DICT|INTERRES
   185   94   95 1    
   186   94  215 1    
   187   95   96 1    
   188   95   97 1    
   189   95  216 1    
   190   96  217 1    
   191   96  218 1    
   192   96  219 1    
   193   97   98 2    
   194   97   99 am   BACKBONE|DICT|INTERRES
   195   99  100 1    
   196   99  220 1    
   197  100  101 1    
   198  100  102 1    
   199  100  221 1    
   200  101  222 1    
   201  101  223 1    
   202  101  224 1    
   203  102  103 2    
   204  102  104 am   BACKBONE|DICT|INTERRES
   205  104  105 1    
   206  104  225 1    
   207  105  106 1    
   208  105  107 1    
   209  105  226 1    
   210  106  227 1    
   211  106  228 1    
   212  106  229 1    
   213  107  108 2    
   214  107  109 am   BACKBONE|DICT|INTERRES
   215  109  110 1    
   216  109  230 1    
   217  110  111 1    
   218  110  112 1    
   219  110  231 1    
   220  111  232 1    
   221  111  233 1    
   222  111  234 1    
   223  112  113 2    
   224  112  114 am   BACKBONE|DICT|INTERRES
   225  114  115 1    
   226  114  235 1    
   227  115  116 1    
   228  115  117 1    
   229  115  236 1    
   230  116  237 1    
   231  116  238 1    
   232  116  239 1    
   233  117  118 2    
   234  117  119 am   BACKBONE|DICT|INTERRES
   235  119  120 1    
   236  119  240 1    
   237  120  121 1    
   238  120  124 1    
   239  120  241 1    
   240  121  122 am   BACKBONE|DICT|INTERRES
   241  121  123 2    
   242  122  242 1    
   243  122  243 1    
   244  124  125 1    
   245  124  244 1    
   246  124  245 1    
   247  125  126 1    
   248  126  246 1    
   249  126  247 1    
@<TRIPOS>SUBSTRUCTURE
     1 UNK         1 GROUP             0       ****    0 ROOT    
