@<TRIPOS>MOLECULE
3R540
247   249    1
SMALL
USER_CHARGES


@<TRIPOS>ATOM
      1 CA          6.0383  -13.0590  -47.3779 C.3       0 UNK        -0.1800 
      2 C           5.1509  -12.8035  -46.1697 C.2       0 UNK         0.5000 
      3 O           5.5262  -13.1510  -45.0490 O.2       0 UNK        -0.5000 
      4 N           3.9688  -12.2176  -46.3852 N.am      1 UNK        -0.5000 
      5 CA          3.0224  -11.8701  -45.3231 C.3       1 UNK         0.1400 
      6 C6          1.5737  -11.7232  -45.8498 C.3       23 UNK        -0.0398 
      7 S7          0.9018  -13.3044  -46.4521 S.3       23 UNK        -0.2404 
      8 C8          1.0342  -13.0941  -48.2567 C.3       23 UNK        -0.0205 
      9 C9          0.9483  -14.4261  -48.9876 C.ar      23 UNK        -0.0193 
     10 C10        -0.0491  -14.6635  -49.9411 C.ar      23 UNK        -0.1150 
     11 C11        -0.0974  -15.8788  -50.6356 C.ar      23 UNK        -0.0193 
     12 C12         0.8726  -16.8489  -50.3699 C.ar      23 UNK        -0.1150 
     13 C13         1.8411  -16.6456  -49.3846 C.ar      23 UNK        -0.0193 
     14 C14         1.8887  -15.4229  -48.7161 C.ar      23 UNK        -0.1150 
     15 C15         2.8089  -17.7614  -49.0192 C.3       23 UNK        -0.0205 
     16 S16         2.1319  -18.8236  -47.6986 S.3       23 UNK        -0.2404 
     17 C17         0.6411  -19.4765  -48.5201 C.3       23 UNK        -0.0398 
     18 CA          0.0324  -20.7093  -47.8228 C.3       11 UNK         0.1400 
     19 N          -0.4142  -20.4258  -46.4583 N.am      11 UNK        -0.5000 
     20 C          -0.8134  -21.3559  -45.5807 C.2       10 UNK         0.5000 
     21 O          -0.8050  -22.5669  -45.8085 O.2       10 UNK        -0.5000 
     22 CA         -1.3680  -20.8315  -44.2456 C.3       10 UNK         0.1400 
     23 CB         -0.2300  -20.4125  -43.3022 C.3       10 UNK        -0.1800 
     24 N          -2.2846  -19.7072  -44.4443 N.am      10 UNK        -0.5000 
     25 C          -3.4970  -19.8229  -45.0080 C.2       9 UNK         0.5000 
     26 O          -3.9675  -20.8910  -45.3967 O.2       9 UNK        -0.5000 
     27 CA         -4.3153  -18.5322  -45.2031 C.3       9 UNK         0.1400 
     28 CB         -5.1547  -18.2378  -43.9510 C.3       9 UNK        -0.1800 
     29 N          -3.5012  -17.3598  -45.5166 N.am      9 UNK        -0.5000 
     30 C          -2.6666  -17.2363  -46.5590 C.2       8 UNK         0.5000 
     31 O          -2.5092  -18.1009  -47.4183 O.2       8 UNK        -0.5000 
     32 CA         -1.8305  -15.9452  -46.6170 C.3       8 UNK         0.1400 
     33 CB         -2.5316  -14.9025  -47.5000 C.3       8 UNK        -0.1800 
     34 N          -1.5697  -15.3639  -45.2943 N.am      8 UNK        -0.5000 
     35 C          -0.8979  -15.9775  -44.3111 C.2       7 UNK         0.5000 
     36 O          -0.4573  -17.1266  -44.3956 O.2       7 UNK        -0.5000 
     37 CA         -0.7537  -15.2037  -42.9957 C.3       7 UNK         0.1400 
     38 CB         -1.9900  -15.4173  -42.1032 C.3       7 UNK        -0.1800 
     39 N           0.4456  -15.6742  -42.3171 N.am      7 UNK        -0.5000 
     40 C           1.1176  -15.0321  -41.3578 C.2       6 UNK         0.5000 
     41 O           0.7573  -13.9588  -40.8742 O.2       6 UNK        -0.5000 
     42 CA          2.4426  -15.6666  -40.8937 C.3       6 UNK         0.1400 
     43 CB          2.2143  -16.9360  -40.0485 C.3       6 UNK        -0.1800 
     44 N           3.3730  -15.8844  -42.0112 N.am      6 UNK        -0.5000 
     45 C           3.2801  -16.7812  -43.0051 C.2       5 UNK         0.5000 
     46 O           2.4407  -17.6802  -43.0371 O.2       5 UNK        -0.5000 
     47 CA          4.2395  -16.6257  -44.1970 C.3       5 UNK         0.1400 
     48 CB          3.4889  -16.0322  -45.3974 C.3       5 UNK        -0.1800 
     49 N           5.4055  -15.7867  -43.9184 N.am      5 UNK        -0.5000 
     50 C           6.5156  -16.2223  -43.3104 C.2       4 UNK         0.5000 
     51 O           6.6336  -17.3493  -42.8281 O.2       4 UNK        -0.5000 
     52 CA          7.6973  -15.2444  -43.2451 C.3       4 UNK         0.1400 
     53 CB          8.4501  -15.2246  -44.5856 C.3       4 UNK        -0.1800 
     54 N           7.2551  -13.8866  -42.9270 N.am      4 UNK        -0.5000 
     55 C           7.5555  -13.2413  -41.7948 C.2       3 UNK         0.5000 
     56 O           8.2234  -13.7302  -40.8820 O.2       3 UNK        -0.5000 
     57 CA          7.0453  -11.7952  -41.6502 C.3       3 UNK         0.1400 
     58 CB          8.0466  -10.8151  -42.2813 C.3       3 UNK        -0.1800 
     59 N           5.7123  -11.5216  -42.1943 N.am      3 UNK        -0.5000 
     60 C           4.5729  -12.1386  -41.8493 C.2       2 UNK         0.5000 
     61 O           4.5304  -13.1664  -41.1765 O.2       2 UNK        -0.5000 
     62 CA          3.2510  -11.4745  -42.2907 C.3       2 UNK         0.1400 
     63 CB          2.5737  -10.8202  -41.0767 C.3       2 UNK        -0.1800 
     64 N           3.4640  -10.4354  -43.3059 N.am      2 UNK        -0.5000 
     65 C           3.4710  -10.5568  -44.6412 C.2       1 UNK         0.5000 
     66 O           3.7945   -9.6078  -45.3563 O.2       1 UNK        -0.5000 
     67 C          -1.1193  -21.2678  -48.6778 C.2       11 UNK         0.5000 
     68 O          -0.9177  -22.2464  -49.3939 O.2       11 UNK        -0.5000 
     69 N          -2.3066  -20.6532  -48.5730 N.am      12 UNK        -0.5000 
     70 CA         -3.5250  -21.0713  -49.2612 C.3       12 UNK         0.1400 
     71 CB         -4.6571  -20.0726  -48.9878 C.3       12 UNK        -0.1800 
     72 C          -3.9574  -22.4952  -48.8890 C.2       12 UNK         0.5000 
     73 O          -4.2833  -23.2658  -49.7872 O.2       12 UNK        -0.5000 
     74 N          -3.9144  -22.8307  -47.5913 N.am      13 UNK        -0.5000 
     75 CA         -4.1960  -24.1696  -47.0728 C.3       13 UNK         0.1400 
     76 CB         -4.1978  -24.1461  -45.5373 C.3       13 UNK        -0.1800 
     77 C          -3.2144  -25.2284  -47.6043 C.2       13 UNK         0.5000 
     78 O          -3.6550  -26.2884  -48.0504 O.2       13 UNK        -0.5000 
     79 N          -1.9127  -24.9039  -47.5997 N.am      14 UNK        -0.5000 
     80 CA         -0.8464  -25.7450  -48.1524 C.3       14 UNK         0.1400 
     81 CB          0.5183  -25.1386  -47.7928 C.3       14 UNK        -0.1800 
     82 C          -0.9697  -25.9540  -49.6758 C.2       14 UNK         0.5000 
     83 O          -0.6799  -27.0441  -50.1690 O.2       14 UNK        -0.5000 
     84 N          -1.4362  -24.9176  -50.3822 N.am      15 UNK        -0.5000 
     85 CA         -1.7154  -24.9096  -51.8183 C.3       15 UNK         0.1400 
     86 CB         -1.5435  -23.4712  -52.3327 C.3       15 UNK        -0.1800 
     87 C          -3.1066  -25.4745  -52.1872 C.2       15 UNK         0.5000 
     88 O          -3.4796  -25.4019  -53.3584 O.2       15 UNK        -0.5000 
     89 N          -3.8370  -26.0243  -51.2032 N.am      16 UNK        -0.5000 
     90 CA         -5.1923  -26.5763  -51.2775 C.3       16 UNK         0.1400 
     91 CB         -5.2648  -27.7771  -52.2412 C.3       16 UNK        -0.1800 
     92 C          -6.2306  -25.4858  -51.5991 C.2       16 UNK         0.5000 
     93 O          -6.5601  -25.2508  -52.7652 O.2       16 UNK        -0.5000 
     94 N          -6.7191  -24.8261  -50.5408 N.am      17 UNK        -0.5000 
     95 CA         -7.6092  -23.6624  -50.5860 C.3       17 UNK         0.1400 
     96 CB         -7.8634  -23.1633  -49.1552 C.3       17 UNK        -0.1800 
     97 C          -8.9418  -23.9051  -51.3157 C.2       17 UNK         0.5000 
     98 O          -9.4470  -22.9999  -51.9794 O.2       17 UNK        -0.5000 
     99 N          -9.4732  -25.1273  -51.1913 N.am      18 UNK        -0.5000 
    100 CA       -10.6994  -25.5654  -51.8564 C.3       18 UNK         0.1400 
    101 CB       -11.2548  -26.7886  -51.1101 C.3       18 UNK        -0.1800 
    102 C        -10.4952  -25.8962  -53.3477 C.2       18 UNK         0.5000 
    103 O        -11.4692  -25.8786  -54.1017 O.2       18 UNK        -0.5000 
    104 N         -9.2549  -26.2138  -53.7439 N.am      19 UNK        -0.5000 
    105 CA        -8.9063  -26.6221  -55.1026 C.3       19 UNK         0.1400 
    106 CB        -7.8150  -27.7018  -55.0489 C.3       19 UNK        -0.1800 
    107 C         -8.4428  -25.4335  -55.9571 C.2       19 UNK         0.5000 
    108 O         -8.8645  -25.3279  -57.1100 O.2       19 UNK        -0.5000 
    109 N         -7.5825  -24.5719  -55.3966 N.am      20 UNK        -0.5000 
    110 CA        -6.9664  -23.4614  -56.1262 C.3       20 UNK         0.1400 
    111 CB        -5.7842  -23.9780  -56.9683 C.3       20 UNK        -0.1800 
    112 C         -6.5096  -22.3049  -55.2249 C.2       20 UNK         0.5000 
    113 O         -6.5901  -21.1555  -55.6618 O.2       20 UNK        -0.5000 
    114 N         -6.0239  -22.6125  -54.0116 N.am      21 UNK        -0.5000 
    115 CA        -5.3532  -21.6882  -53.0850 C.3       21 UNK         0.1400 
    116 CB        -6.3066  -20.5550  -52.6378 C.3       21 UNK        -0.1800 
    117 C         -4.0145  -21.1503  -53.6433 C.2       21 UNK         0.5000 
    118 O         -3.4954  -21.6804  -54.6284 O.2       21 UNK        -0.5000 
    119 N         -3.4511  -20.1290  -52.9829 N.am      22 UNK        -0.5000 
    120 CA        -2.1700  -19.5059  -53.3602 C.3       22 UNK         0.1400 
    121 C         -2.2489  -18.4885  -54.5388 C.2       22 UNK         0.5000 
    122 N         -3.4225  -18.1721  -55.0724 N.am      22 UNK        -0.7600 
    123 O         -1.2218  -17.9876  -54.9883 O.2       22 UNK        -0.5000 
    124 C124       -1.4117  -18.9390  -52.1309 C.3       23 UNK        -0.0398 
    125 S125       -2.2541  -17.5608  -51.2668 S.3       23 UNK        -0.2404 
    126 C126       -1.1840  -16.1345  -51.6778 C.3       23 UNK        -0.0205 
    127 H127        7.0015  -12.5665  -47.2453 H         1 UNK         0.0600 
    128 H128        5.5872  -12.6873  -48.2981 H         1 UNK         0.0600 
    129 H129        6.2133  -14.1288  -47.4915 H         1 UNK         0.0600 
    130 H130        3.7246  -11.9096  -47.3142 H         1 UNK         0.3000 
    131 H131        3.0352  -12.6973  -44.6171 H         1 UNK         0.0600 
    132 H132        1.5129  -10.9675  -46.6352 H         1 UNK         0.0800 
    133 H133        0.9129  -11.3823  -45.0505 H         1 UNK         0.0800 
    134 H134        0.2526  -12.4115  -48.5933 H         1 UNK         0.0800 
    135 H135        1.9869  -12.6270  -48.5067 H         1 UNK         0.0800 
    136 H136       -0.7847  -13.8987  -50.1466 H         1 UNK         0.1150 
    137 H137        0.8558  -17.7871  -50.8991 H         1 UNK         0.1150 
    138 H138        2.6471  -15.2489  -47.9674 H         1 UNK         0.1150 
    139 H139        3.0398  -18.3675  -49.8964 H         1 UNK         0.0800 
    140 H140        3.7562  -17.3380  -48.6821 H         1 UNK         0.0800 
    141 H141       -0.0983  -18.6757  -48.5776 H         1 UNK         0.0800 
    142 H142        0.9115  -19.7303  -49.5467 H         1 UNK         0.0800 
    143 H143        0.8021  -21.4821  -47.7663 H         1 UNK         0.0600 
    144 H144       -0.4669  -19.4524  -46.1932 H         1 UNK         0.3000 
    145 H145       -1.9215  -21.6439  -43.7696 H         1 UNK         0.0600 
    146 H146       -0.6174  -20.0649  -42.3445 H         1 UNK         0.0600 
    147 H147        0.4359  -21.2521  -43.0994 H         1 UNK         0.0600 
    148 H148        0.3761  -19.6114  -43.7273 H         1 UNK         0.0600 
    149 H149       -1.9321  -18.7869  -44.2118 H         1 UNK         0.3000 
    150 H150       -4.9982  -18.6909  -46.0385 H         1 UNK         0.0600 
    151 H151       -5.7913  -19.0872  -43.6993 H         1 UNK         0.0600 
    152 H152       -5.8081  -17.3791  -44.1061 H         1 UNK         0.0600 
    153 H153       -4.5259  -18.0301  -43.0841 H         1 UNK         0.0600 
    154 H154       -3.5526  -16.5909  -44.8658 H         1 UNK         0.3000 
    155 H155       -0.8682  -16.1931  -47.0710 H         1 UNK         0.0600 
    156 H156       -1.9278  -14.0014  -47.6045 H         1 UNK         0.0600 
    157 H157       -3.5002  -14.6125  -47.0913 H         1 UNK         0.0600 
    158 H158       -2.7016  -15.2960  -48.5034 H         1 UNK         0.0600 
    159 H159       -1.9006  -14.4212  -45.1492 H         1 UNK         0.3000 
    160 H160       -0.6393  -14.1422  -43.2252 H         1 UNK         0.0600 
    161 H161       -2.1207  -16.4694  -41.8462 H         1 UNK         0.0600 
    162 H162       -2.8994  -15.0852  -42.6050 H         1 UNK         0.0600 
    163 H163       -1.9119  -14.8539  -41.1734 H         1 UNK         0.0600 
    164 H164        0.8347  -16.5369  -42.6939 H         1 UNK         0.3000 
    165 H165        2.9262  -14.9419  -40.2386 H         1 UNK         0.0600 
    166 H166        1.6511  -17.6995  -40.5852 H         1 UNK         0.0600 
    167 H167        3.1611  -17.3751  -39.7343 H         1 UNK         0.0600 
    168 H168        1.6502  -16.6986  -39.1460 H         1 UNK         0.0600 
    169 H169        4.0991  -15.1823  -42.0839 H         1 UNK         0.3000 
    170 H170        4.5788  -17.6259  -44.4752 H         1 UNK         0.0600 
    171 H171        4.1288  -15.9934  -46.2786 H         1 UNK         0.0600 
    172 H172        2.6154  -16.6333  -45.6536 H         1 UNK         0.0600 
    173 H173        3.1352  -15.0230  -45.1905 H         1 UNK         0.0600 
    174 H174        5.3941  -14.8445  -44.2991 H         1 UNK         0.3000 
    175 H175        8.3855  -15.6182  -42.4843 H         1 UNK         0.0600 
    176 H176        7.8210  -14.8602  -45.3986 H         1 UNK         0.0600 
    177 H177        9.3295  -14.5828  -44.5315 H         1 UNK         0.0600 
    178 H178        8.7926  -16.2240  -44.8569 H         1 UNK         0.0600 
    179 H179        6.6739  -13.4224  -43.6212 H         1 UNK         0.3000 
    180 H180        6.9976  -11.5823  -40.5804 H         1 UNK         0.0600 
    181 H181        8.0986  -10.9381  -43.3640 H         1 UNK         0.0600 
    182 H182        9.0510  -10.9700  -41.8846 H         1 UNK         0.0600 
    183 H183        7.7735   -9.7806  -42.0727 H         1 UNK         0.0600 
    184 H184        5.6400  -10.7105  -42.7900 H         1 UNK         0.3000 
    185 H185        2.5699  -12.2503  -42.6383 H         1 UNK         0.0600 
    186 H186        1.6187  -10.3724  -41.3524 H         1 UNK         0.0600 
    187 H187        2.3696  -11.5574  -40.2986 H         1 UNK         0.0600 
    188 H188        3.1961  -10.0406  -40.6353 H         1 UNK         0.0600 
    189 H189        3.7026   -9.5295  -42.9290 H         1 UNK         0.3000 
    190 H190       -2.3753  -19.8082  -48.0082 H         1 UNK         0.3000 
    191 H191       -3.3138  -21.0624  -50.3310 H         1 UNK         0.0600 
    192 H192       -5.5802  -20.3791  -49.4800 H         1 UNK         0.0600 
    193 H193       -4.4032  -19.0762  -49.3500 H         1 UNK         0.0600 
    194 H194       -4.8722  -19.9985  -47.9233 H         1 UNK         0.0600 
    195 H195       -3.6836  -22.1195  -46.9037 H         1 UNK         0.3000 
    196 H196       -5.1970  -24.4500  -47.4064 H         1 UNK         0.0600 
    197 H197       -4.3935  -25.1388  -45.1299 H         1 UNK         0.0600 
    198 H198       -4.9725  -23.4808  -45.1561 H         1 UNK         0.0600 
    199 H199       -3.2412  -23.8079  -45.1376 H         1 UNK         0.0600 
    200 H200       -1.6312  -24.0146  -47.2019 H         1 UNK         0.3000 
    201 H201       -0.9175  -26.7260  -47.6783 H         1 UNK         0.0600 
    202 H202        0.6382  -25.0508  -46.7127 H         1 UNK         0.0600 
    203 H203        0.6447  -24.1451  -48.2237 H         1 UNK         0.0600 
    204 H204        1.3329  -25.7630  -48.1617 H         1 UNK         0.0600 
    205 H205       -1.5857  -24.0372  -49.8983 H         1 UNK         0.3000 
    206 H206       -0.9763  -25.5349  -52.3227 H         1 UNK         0.0600 
    207 H207       -0.5442  -23.0918  -52.1188 H         1 UNK         0.0600 
    208 H208       -1.6846  -23.4161  -53.4125 H         1 UNK         0.0600 
    209 H209       -2.2621  -22.7964  -51.8680 H         1 UNK         0.0600 
    210 H210       -3.4485  -25.9849  -50.2695 H         1 UNK         0.3000 
    211 H211       -5.4189  -26.9575  -50.2807 H         1 UNK         0.0600 
    212 H212       -5.0097  -27.5031  -53.2643 H         1 UNK         0.0600 
    213 H213       -6.2692  -28.2016  -52.2576 H         1 UNK         0.0600 
    214 H214       -4.5826  -28.5685  -51.9309 H         1 UNK         0.0600 
    215 H215       -6.3511  -25.0586  -49.6306 H         1 UNK         0.3000 
    216 H216       -7.0825  -22.8770  -51.1237 H         1 UNK         0.0600 
    217 H217       -8.5094  -22.2844  -49.1569 H         1 UNK         0.0600 
    218 H218       -6.9347  -22.8772  -48.6629 H         1 UNK         0.0600 
    219 H219       -8.3468  -23.9255  -48.5429 H         1 UNK         0.0600 
    220 H220       -8.9924  -25.8071  -50.6205 H         1 UNK         0.3000 
    221 H221      -11.4391  -24.7642  -51.7937 H         1 UNK         0.0600 
    222 H222      -10.5560  -27.6258  -51.1323 H         1 UNK         0.0600 
    223 H223      -11.4644  -26.5526  -50.0666 H         1 UNK         0.0600 
    224 H224      -12.1891  -27.1291  -51.5585 H         1 UNK         0.0600 
    225 H225       -8.4912  -26.1298  -53.0861 H         1 UNK         0.3000 
    226 H226       -9.7788  -27.0652  -55.5879 H         1 UNK         0.0600 
    227 H227       -8.1231  -28.5483  -54.4352 H         1 UNK         0.0600 
    228 H228       -7.5982  -28.0839  -56.0471 H         1 UNK         0.0600 
    229 H229       -6.8833  -27.3107  -54.6423 H         1 UNK         0.0600 
    230 H230       -7.2835  -24.7272  -54.4380 H         1 UNK         0.3000 
    231 H231       -7.7097  -23.0379  -56.8056 H         1 UNK         0.0600 
    232 H232       -6.1112  -24.6993  -57.7171 H         1 UNK         0.0600 
    233 H233       -5.0318  -24.4604  -56.3427 H         1 UNK         0.0600 
    234 H234       -5.2942  -23.1608  -57.4994 H         1 UNK         0.0600 
    235 H235       -5.9669  -23.5903  -53.7488 H         1 UNK         0.3000 
    236 H236       -5.0950  -22.2838  -52.2091 H         1 UNK         0.0600 
    237 H237       -7.2919  -20.9391  -52.3751 H         1 UNK         0.0600 
    238 H238       -5.9222  -20.0325  -51.7631 H         1 UNK         0.0600 
    239 H239       -6.4470  -19.8088  -53.4201 H         1 UNK         0.0600 
    240 H240       -3.9349  -19.7007  -52.2080 H         1 UNK         0.3000 
    241 H241       -1.5339  -20.3066  -53.7433 H         1 UNK         0.0600 
    242 H242       -4.2723  -18.5898  -54.7301 H         1 UNK         0.3800 
    243 H243       -3.4582  -17.5183  -55.8386 H         1 UNK         0.3800 
    244 H244       -1.2539  -19.7374  -51.4051 H         1 UNK         0.0800 
    245 H245       -0.4136  -18.6316  -52.4415 H         1 UNK         0.0800 
    246 H246       -0.7254  -16.2747  -52.6575 H         1 UNK         0.0800 
    247 H247       -1.8238  -15.2560  -51.7714 H         1 UNK         0.0800 
@<TRIPOS>BOND
     1    1    2 1    
     2    1  127 1    
     3    1  128 1    
     4    1  129 1    
     5    2    3 2    
     6    2    4 am   BACKBONE|DICT|INTERRES
     7    4    5 1    
     8    4  130 1    
     9    5    6 1    
    10    5   65 1    
    11    5  131 1    
    12    6    7 1    
    13    6  132 1    
    14    6  133 1    
    15    7    8 1    
    16    8    9 1    
    17    8  134 1    
    18    8  135 1    
    19    9   10 ar   
    20    9   14 ar   
    21   10   11 ar   
    22   10  136 1    
    23   11   12 ar   
    24   11  126 1    
    25   12   13 ar   
    26   12  137 1    
    27   13   14 ar   
    28   13   15 1    
    29   14  138 1    
    30   15   16 1    
    31   15  139 1    
    32   15  140 1    
    33   16   17 1    
    34   17   18 1    
    35   17  141 1    
    36   17  142 1    
    37   18   19 1    
    38   18   67 1    
    39   18  143 1    
    40   19   20 am   BACKBONE|DICT|INTERRES
    41   19  144 1    
    42   20   21 2    
    43   20   22 1    
    44   22   23 1    
    45   22   24 1    
    46   22  145 1    
    47   23  146 1    
    48   23  147 1    
    49   23  148 1    
    50   24   25 am   BACKBONE|DICT|INTERRES
    51   24  149 1    
    52   25   26 2    
    53   25   27 1    
    54   27   28 1    
    55   27   29 1    
    56   27  150 1    
    57   28  151 1    
    58   28  152 1    
    59   28  153 1    
    60   29   30 am   BACKBONE|DICT|INTERRES
    61   29  154 1    
    62   30   31 2    
    63   30   32 1    
    64   32   33 1    
    65   32   34 1    
    66   32  155 1    
    67   33  156 1    
    68   33  157 1    
    69   33  158 1    
    70   34   35 am   BACKBONE|DICT|INTERRES
    71   34  159 1    
    72   35   36 2    
    73   35   37 1    
    74   37   38 1    
    75   37   39 1    
    76   37  160 1    
    77   38  161 1    
    78   38  162 1    
    79   38  163 1    
    80   39   40 am   BACKBONE|DICT|INTERRES
    81   39  164 1    
    82   40   41 2    
    83   40   42 1    
    84   42   43 1    
    85   42   44 1    
    86   42  165 1    
    87   43  166 1    
    88   43  167 1    
    89   43  168 1    
    90   44   45 am   BACKBONE|DICT|INTERRES
    91   44  169 1    
    92   45   46 2    
    93   45   47 1    
    94   47   48 1    
    95   47   49 1    
    96   47  170 1    
    97   48  171 1    
    98   48  172 1    
    99   48  173 1    
   100   49   50 am   BACKBONE|DICT|INTERRES
   101   49  174 1    
   102   50   51 2    
   103   50   52 1    
   104   52   53 1    
   105   52   54 1    
   106   52  175 1    
   107   53  176 1    
   108   53  177 1    
   109   53  178 1    
   110   54   55 am   BACKBONE|DICT|INTERRES
   111   54  179 1    
   112   55   56 2    
   113   55   57 1    
   114   57   58 1    
   115   57   59 1    
   116   57  180 1    
   117   58  181 1    
   118   58  182 1    
   119   58  183 1    
   120   59   60 am   BACKBONE|DICT|INTERRES
   121   59  184 1    
   122   60   61 2    
   123   60   62 1    
   124   62   63 1    
   125   62   64 1    
   126   62  185 1    
   127   63  186 1    
   128   63  187 1    
   129   63  188 1    
   130   64   65 am   BACKBONE|DICT|INTERRES
   131   64  189 1    
   132   65   66 2    
   133   67   68 2    
   134   67   69 am   BACKBONE|DICT|INTERRES
   135   69   70 1    
   136   69  190 1    
   137   70   71 1    
   138   70   72 1    
   139   70  191 1    
   140   71  192 1    
   141   71  193 1    
   142   71  194 1    
   143   72   73 2    
   144   72   74 am   BACKBONE|DICT|INTERRES
   145   74   75 1    
   146   74  195 1    
   147   75   76 1    
   148   75   77 1    
   149   75  196 1    
   150   76  197 1    
   151   76  198 1    
   152   76  199 1    
   153   77   78 2    
   154   77   79 am   BACKBONE|DICT|INTERRES
   155   79   80 1    
   156   79  200 1    
   157   80   81 1    
   158   80   82 1    
   159   80  201 1    
   160   81  202 1    
   161   81  203 1    
   162   81  204 1    
   163   82   83 2    
   164   82   84 am   BACKBONE|DICT|INTERRES
   165   84   85 1    
   166   84  205 1    
   167   85   86 1    
   168   85   87 1    
   169   85  206 1    
   170   86  207 1    
   171   86  208 1    
   172   86  209 1    
   173   87   88 2    
   174   87   89 am   BACKBONE|DICT|INTERRES
   175   89   90 1    
   176   89  210 1    
   177   90   91 1    
   178   90   92 1    
   179   90  211 1    
   180   91  212 1    
   181   91  213 1    
   182   91  214 1    
   183   92   93 2    
   184   92   94 am   BACKBONE|DICT|INTERRES
   185   94   95 1    
   186   94  215 1    
   187   95   96 1    
   188   95   97 1    
   189   95  216 1    
   190   96  217 1    
   191   96  218 1    
   192   96  219 1    
   193   97   98 2    
   194   97   99 am   BACKBONE|DICT|INTERRES
   195   99  100 1    
   196   99  220 1    
   197  100  101 1    
   198  100  102 1    
   199  100  221 1    
   200  101  222 1    
   201  101  223 1    
   202  101  224 1    
   203  102  103 2    
   204  102  104 am   BACKBONE|DICT|INTERRES
   205  104  105 1    
   206  104  225 1    
   207  105  106 1    
   208  105  107 1    
   209  105  226 1    
   210  106  227 1    
   211  106  228 1    
   212  106  229 1    
   213  107  108 2    
   214  107  109 am   BACKBONE|DICT|INTERRES
   215  109  110 1    
   216  109  230 1    
   217  110  111 1    
   218  110  112 1    
   219  110  231 1    
   220  111  232 1    
   221  111  233 1    
   222  111  234 1    
   223  112  113 2    
   224  112  114 am   BACKBONE|DICT|INTERRES
   225  114  115 1    
   226  114  235 1    
   227  115  116 1    
   228  115  117 1    
   229  115  236 1    
   230  116  237 1    
   231  116  238 1    
   232  116  239 1    
   233  117  118 2    
   234  117  119 am   BACKBONE|DICT|INTERRES
   235  119  120 1    
   236  119  240 1    
   237  120  121 1    
   238  120  124 1    
   239  120  241 1    
   240  121  122 am   BACKBONE|DICT|INTERRES
   241  121  123 2    
   242  122  242 1    
   243  122  243 1    
   244  124  125 1    
   245  124  244 1    
   246  124  245 1    
   247  125  126 1    
   248  126  246 1    
   249  126  247 1    
@<TRIPOS>SUBSTRUCTURE
     1 UNK         1 GROUP             0       ****    0 ROOT    
