@<TRIPOS>MOLECULE
3R540
247   249    1
SMALL
USER_CHARGES


@<TRIPOS>ATOM
      1 CA          0.8531  -10.6378  -47.9831 C.3       0 UNK        -0.1800 
      2 C           0.5163  -11.1934  -46.6082 C.2       0 UNK         0.5000 
      3 O           1.3361  -11.1144  -45.6934 O.2       0 UNK        -0.5000 
      4 N          -0.6899  -11.7490  -46.4436 N.am      1 UNK        -0.5000 
      5 CA         -1.1633  -12.3672  -45.1961 C.3       1 UNK         0.1400 
      6 C6         -2.4941  -13.1290  -45.3855 C.3       23 UNK        -0.0398 
      7 S7         -2.3338  -14.4701  -46.6098 S.3       23 UNK        -0.2404 
      8 C8         -3.4899  -13.9241  -47.9015 C.3       23 UNK        -0.0205 
      9 C9         -3.5539  -14.9423  -49.0269 C.ar      23 UNK        -0.0193 
     10 C10        -2.9644  -14.6751  -50.2672 C.ar      23 UNK        -0.1150 
     11 C11        -3.0078  -15.6290  -51.2892 C.ar      23 UNK        -0.0193 
     12 C12        -3.6516  -16.8482  -51.0662 C.ar      23 UNK        -0.1150 
     13 C13        -4.2278  -17.1306  -49.8256 C.ar      23 UNK        -0.0193 
     14 C14        -4.1875  -16.1698  -48.8136 C.ar      23 UNK        -0.1150 
     15 C15        -4.8461  -18.4929  -49.5709 C.3       23 UNK        -0.0205 
     16 S16        -3.5358  -19.7363  -49.3777 S.3       23 UNK        -0.2404 
     17 C17        -3.8776  -20.4263  -47.7275 C.3       23 UNK        -0.0398 
     18 CA         -3.1366  -21.7691  -47.5338 C.3       11 UNK         0.1400 
     19 N          -1.6797  -21.6156  -47.4961 N.am      11 UNK        -0.5000 
     20 C          -0.8183  -22.6374  -47.5953 C.2       10 UNK         0.5000 
     21 O          -1.1630  -23.8117  -47.7197 O.2       10 UNK        -0.5000 
     22 CA          0.6775  -22.3043  -47.4848 C.3       10 UNK         0.1400 
     23 CB          1.1877  -21.6309  -48.7685 C.3       10 UNK        -0.1800 
     24 N           0.9774  -21.4656  -46.3258 N.am      10 UNK        -0.5000 
     25 C           0.7477  -21.8104  -45.0504 C.2       9 UNK         0.5000 
     26 O           0.2711  -22.8914  -44.7054 O.2       9 UNK        -0.5000 
     27 CA          1.0670  -20.7528  -43.9808 C.3       9 UNK         0.1400 
     28 CB          2.5700  -20.7259  -43.6637 C.3       9 UNK        -0.1800 
     29 N           0.6259  -19.4165  -44.3748 N.am      9 UNK        -0.5000 
     30 C          -0.6545  -19.0491  -44.5235 C.2       8 UNK         0.5000 
     31 O          -1.6146  -19.7941  -44.3261 O.2       8 UNK        -0.5000 
     32 CA         -0.8900  -17.6146  -45.0248 C.3       8 UNK         0.1400 
     33 CB         -0.6798  -16.6004  -43.8886 C.3       8 UNK        -0.1800 
     34 N          -0.0184  -17.2805  -46.1512 N.am      8 UNK        -0.5000 
     35 C          -0.0755  -17.8834  -47.3491 C.2       7 UNK         0.5000 
     36 O          -0.8591  -18.7921  -47.6198 O.2       7 UNK        -0.5000 
     37 CA          0.9598  -17.4427  -48.4014 C.3       7 UNK         0.1400 
     38 CB          0.4720  -16.1801  -49.1262 C.3       7 UNK        -0.1800 
     39 N           2.2870  -17.1915  -47.8361 N.am      7 UNK        -0.5000 
     40 C           3.0056  -18.0709  -47.1229 C.2       6 UNK         0.5000 
     41 O           2.6679  -19.2404  -46.9449 O.2       6 UNK        -0.5000 
     42 CA          4.2959  -17.5589  -46.4522 C.3       6 UNK         0.1400 
     43 CB          5.5260  -18.0146  -47.2513 C.3       6 UNK        -0.1800 
     44 N           4.3695  -16.1064  -46.2517 N.am      6 UNK        -0.5000 
     45 C           3.4948  -15.3542  -45.5689 C.2       5 UNK         0.5000 
     46 O           2.4396  -15.7859  -45.0953 O.2       5 UNK        -0.5000 
     47 CA          3.8504  -13.8582  -45.4554 C.3       5 UNK         0.1400 
     48 CB          3.5913  -13.1516  -46.7950 C.3       5 UNK        -0.1800 
     49 N           3.0981  -13.1773  -44.3997 N.am      5 UNK        -0.5000 
     50 C           3.2359  -13.4252  -43.0884 C.2       4 UNK         0.5000 
     51 O           4.0830  -14.1945  -42.6286 O.2       4 UNK        -0.5000 
     52 CA          2.2638  -12.6911  -42.1401 C.3       4 UNK         0.1400 
     53 CB          2.6840  -12.7636  -40.6569 C.3       4 UNK        -0.1800 
     54 N           2.0028  -11.3064  -42.5417 N.am      4 UNK        -0.5000 
     55 C           2.8842  -10.2979  -42.6415 C.2       3 UNK         0.5000 
     56 O           4.0761  -10.4000  -42.3481 O.2       3 UNK        -0.5000 
     57 CA          2.3533   -8.9464  -43.1661 C.3       3 UNK         0.1400 
     58 CB          3.1803   -8.4591  -44.3687 C.3       3 UNK        -0.1800 
     59 N           0.9498   -9.0322  -43.5735 N.am      3 UNK        -0.5000 
     60 C          -0.1017   -8.6545  -42.8336 C.2       2 UNK         0.5000 
     61 O          -0.0034   -8.1068  -41.7352 O.2       2 UNK        -0.5000 
     62 CA         -1.5036   -8.9603  -43.4037 C.3       2 UNK         0.1400 
     63 CB         -2.0838   -7.7178  -44.0961 C.3       2 UNK        -0.1800 
     64 N          -1.5170  -10.0805  -44.3495 N.am      2 UNK        -0.5000 
     65 C          -1.2689  -11.3597  -44.0309 C.2       1 UNK         0.5000 
     66 O          -1.0593  -11.7433  -42.8805 O.2       1 UNK        -0.5000 
     67 C          -3.6767  -22.5417  -46.3155 C.2       11 UNK         0.5000 
     68 O          -4.5746  -23.3663  -46.4870 O.2       11 UNK        -0.5000 
     69 N          -3.1058  -22.3086  -45.1241 N.am      12 UNK        -0.5000 
     70 CA         -3.4460  -23.0417  -43.9023 C.3       12 UNK         0.1400 
     71 CB         -2.7668  -22.3835  -42.6920 C.3       12 UNK        -0.1800 
     72 C          -3.0888  -24.5383  -43.9816 C.2       12 UNK         0.5000 
     73 O          -3.8785  -25.3724  -43.5374 O.2       12 UNK        -0.5000 
     74 N          -1.9191  -24.8501  -44.5557 N.am      13 UNK        -0.5000 
     75 CA         -1.4387  -26.2151  -44.7608 C.3       13 UNK         0.1400 
     76 CB          0.0646  -26.1849  -45.0784 C.3       13 UNK        -0.1800 
     77 C          -2.2125  -26.9587  -45.8640 C.2       13 UNK         0.5000 
     78 O          -2.5944  -28.1126  -45.6643 O.2       13 UNK        -0.5000 
     79 N          -2.4137  -26.2953  -47.0103 N.am      14 UNK        -0.5000 
     80 CA         -3.0480  -26.8725  -48.1958 C.3       14 UNK         0.1400 
     81 CB         -2.6647  -26.0332  -49.4191 C.3       14 UNK        -0.1800 
     82 C          -4.5779  -27.0009  -48.0815 C.2       14 UNK         0.5000 
     83 O          -5.1478  -27.8984  -48.7044 O.2       14 UNK        -0.5000 
     84 N          -5.2124  -26.1169  -47.2964 N.am      15 UNK        -0.5000 
     85 CA         -6.6446  -26.0697  -46.9901 C.3       15 UNK         0.1400 
     86 CB         -7.0281  -27.2393  -46.0570 C.3       15 UNK        -0.1800 
     87 C          -7.5087  -25.9756  -48.2652 C.2       15 UNK         0.5000 
     88 O          -7.5436  -24.9186  -48.8939 O.2       15 UNK        -0.5000 
     89 N          -8.1704  -27.0762  -48.6456 N.am      16 UNK        -0.5000 
     90 CA         -8.9929  -27.1846  -49.8529 C.3       16 UNK         0.1400 
     91 CB         -9.7893  -28.4970  -49.7927 C.3       16 UNK        -0.1800 
     92 C          -8.1889  -27.1031  -51.1677 C.2       16 UNK         0.5000 
     93 O          -8.7602  -26.7479  -52.1990 O.2       16 UNK        -0.5000 
     94 N          -6.8889  -27.4239  -51.1146 N.am      17 UNK        -0.5000 
     95 CA         -5.9710  -27.4066  -52.2561 C.3       17 UNK         0.1400 
     96 CB         -5.0281  -28.6168  -52.1363 C.3       17 UNK        -0.1800 
     97 C          -5.1728  -26.0897  -52.3638 C.2       17 UNK         0.5000 
     98 O          -4.2276  -26.0257  -53.1515 O.2       17 UNK        -0.5000 
     99 N          -5.5209  -25.0805  -51.5525 N.am      18 UNK        -0.5000 
    100 CA        -4.8222  -23.8000  -51.4493 C.3       18 UNK         0.1400 
    101 CB        -5.4736  -22.9713  -50.3339 C.3       18 UNK        -0.1800 
    102 C         -4.7964  -22.9961  -52.7702 C.2       18 UNK         0.5000 
    103 O         -5.8640  -22.7716  -53.3417 O.2       18 UNK        -0.5000 
    104 N         -3.6366  -22.5290  -53.2540 N.am      19 UNK        -0.5000 
    105 CA        -2.2726  -22.8177  -52.8127 C.3       19 UNK         0.1400 
    106 CB        -1.9039  -21.9959  -51.5633 C.3       19 UNK        -0.1800 
    107 C         -1.3158  -22.4689  -53.9581 C.2       19 UNK         0.5000 
    108 O         -1.5925  -21.5444  -54.7267 O.2       19 UNK        -0.5000 
    109 N         -0.1799  -23.1733  -54.0208 N.am      20 UNK        -0.5000 
    110 CA         0.8696  -22.9746  -55.0262 C.3       20 UNK         0.1400 
    111 CB         1.8427  -24.1627  -54.9646 C.3       20 UNK        -0.1800 
    112 C          1.6358  -21.6423  -54.8833 C.2       20 UNK         0.5000 
    113 O          2.3072  -21.2312  -55.8303 O.2       20 UNK        -0.5000 
    114 N          1.5331  -21.0012  -53.7095 N.am      21 UNK        -0.5000 
    115 CA         2.1707  -19.7261  -53.3827 C.3       21 UNK         0.1400 
    116 CB         1.9616  -19.4262  -51.8879 C.3       21 UNK        -0.1800 
    117 C          1.6706  -18.5506  -54.2439 C.2       21 UNK         0.5000 
    118 O          2.4836  -17.7298  -54.6718 O.2       21 UNK        -0.5000 
    119 N          0.3533  -18.4884  -54.4761 N.am      22 UNK        -0.5000 
    120 CA        -0.3221  -17.3728  -55.1621 C.3       22 UNK         0.1400 
    121 C         -1.7755  -17.6839  -55.6273 C.2       22 UNK         0.5000 
    122 N         -2.2771  -18.9108  -55.5526 N.am      22 UNK        -0.7600 
    123 O         -2.4726  -16.7902  -56.1002 O.2       22 UNK        -0.5000 
    124 C124       -0.2123  -16.0199  -54.3911 C.3       23 UNK        -0.0398 
    125 S125       -0.6718  -16.1296  -52.6275 S.3       23 UNK        -0.2404 
    126 C126       -2.3247  -15.3751  -52.6216 C.3       23 UNK        -0.0205 
    127 H127        1.0669   -9.5714  -47.9126 H         1 UNK         0.0600 
    128 H128        1.7351  -11.1372  -48.3832 H         1 UNK         0.0600 
    129 H129        0.0333  -10.7768  -48.6881 H         1 UNK         0.0600 
    130 H130       -1.3219  -11.8048  -47.2286 H         1 UNK         0.3000 
    131 H131       -0.4061  -13.0972  -44.8998 H         1 UNK         0.0600 
    132 H132       -3.2934  -12.4460  -45.6782 H         1 UNK         0.0800 
    133 H133       -2.8107  -13.5842  -44.4452 H         1 UNK         0.0800 
    134 H134       -4.4848  -13.7964  -47.4724 H         1 UNK         0.0800 
    135 H135       -3.1828  -12.9484  -48.2804 H         1 UNK         0.0800 
    136 H136       -2.4546  -13.7363  -50.4315 H         1 UNK         0.1150 
    137 H137       -3.6655  -17.5977  -51.8454 H         1 UNK         0.1150 
    138 H138       -4.6211  -16.3863  -47.8473 H         1 UNK         0.1150 
    139 H139       -5.4876  -18.4658  -48.6890 H         1 UNK         0.0800 
    140 H140       -5.4842  -18.7719  -50.4105 H         1 UNK         0.0800 
    141 H141       -3.5831  -19.7018  -46.9658 H         1 UNK         0.0800 
    142 H142       -4.9562  -20.5667  -47.6349 H         1 UNK         0.0800 
    143 H143       -3.3599  -22.3941  -48.4000 H         1 UNK         0.0600 
    144 H144       -1.3263  -20.6639  -47.4292 H         1 UNK         0.3000 
    145 H145        1.2185  -23.2441  -47.3576 H         1 UNK         0.0600 
    146 H146        2.2574  -21.4295  -48.7104 H         1 UNK         0.0600 
    147 H147        1.0252  -22.2722  -49.6352 H         1 UNK         0.0600 
    148 H148        0.6799  -20.6855  -48.9595 H         1 UNK         0.0600 
    149 H149        1.4158  -20.5681  -46.5176 H         1 UNK         0.3000 
    150 H150        0.5324  -21.0286  -43.0694 H         1 UNK         0.0600 
    151 H151        2.9160  -21.7081  -43.3392 H         1 UNK         0.0600 
    152 H152        2.7911  -20.0223  -42.8610 H         1 UNK         0.0600 
    153 H153        3.1634  -20.4407  -44.5328 H         1 UNK         0.0600 
    154 H154        1.3455  -18.7483  -44.6079 H         1 UNK         0.3000 
    155 H155       -1.9247  -17.5399  -45.3663 H         1 UNK         0.0600 
    156 H156       -1.3577  -16.8008  -43.0582 H         1 UNK         0.0600 
    157 H157       -0.8700  -15.5818  -44.2243 H         1 UNK         0.0600 
    158 H158        0.3378  -16.6346  -43.4976 H         1 UNK         0.0600 
    159 H159        0.7044  -16.5906  -45.9791 H         1 UNK         0.3000 
    160 H160        1.0550  -18.2462  -49.1337 H         1 UNK         0.0600 
    161 H161        0.4064  -15.3252  -48.4518 H         1 UNK         0.0600 
    162 H162       -0.5217  -16.3373  -49.5482 H         1 UNK         0.0600 
    163 H163        1.1356  -15.9131  -49.9487 H         1 UNK         0.0600 
    164 H164        2.6443  -16.2525  -47.9228 H         1 UNK         0.3000 
    165 H165        4.3415  -18.0219  -45.4645 H         1 UNK         0.0600 
    166 H166        5.5565  -17.5532  -48.2392 H         1 UNK         0.0600 
    167 H167        6.4510  -17.7621  -46.7324 H         1 UNK         0.0600 
    168 H168        5.5219  -19.0962  -47.3943 H         1 UNK         0.0600 
    169 H169        5.1927  -15.6576  -46.6271 H         1 UNK         0.3000 
    170 H170        4.9123  -13.7738  -45.2159 H         1 UNK         0.0600 
    171 H171        4.2342  -13.5478  -47.5817 H         1 UNK         0.0600 
    172 H172        2.5594  -13.2825  -47.1218 H         1 UNK         0.0600 
    173 H173        3.7913  -12.0821  -46.7248 H         1 UNK         0.0600 
    174 H174        2.4009  -12.5064  -44.7059 H         1 UNK         0.3000 
    175 H175        1.3111  -13.2144  -42.2321 H         1 UNK         0.0600 
    176 H176        1.9638  -12.2523  -40.0183 H         1 UNK         0.0600 
    177 H177        2.7393  -13.7984  -40.3171 H         1 UNK         0.0600 
    178 H178        3.6622  -12.3124  -40.4886 H         1 UNK         0.0600 
    179 H179        1.0431  -11.1133  -42.7968 H         1 UNK         0.3000 
    180 H180        2.4673   -8.2189  -42.3600 H         1 UNK         0.0600 
    181 H181        2.8087   -7.5045  -44.7413 H         1 UNK         0.0600 
    182 H182        4.2255   -8.3135  -44.0937 H         1 UNK         0.0600 
    183 H183        3.1550   -9.1734  -45.1923 H         1 UNK         0.0600 
    184 H184        0.7860   -9.5179  -44.4477 H         1 UNK         0.3000 
    185 H185       -2.1510   -9.2185  -42.5631 H         1 UNK         0.0600 
    186 H186       -3.1033   -7.8965  -44.4385 H         1 UNK         0.0600 
    187 H187       -2.1166   -6.8687  -43.4121 H         1 UNK         0.0600 
    188 H188       -1.4856   -7.4215  -44.9587 H         1 UNK         0.0600 
    189 H189       -1.6625   -9.8496  -45.3217 H         1 UNK         0.3000 
    190 H190       -2.3921  -21.5921  -45.0422 H         1 UNK         0.3000 
    191 H191       -4.5264  -22.9689  -43.7611 H         1 UNK         0.0600 
    192 H192       -3.0093  -22.9143  -41.7706 H         1 UNK         0.0600 
    193 H193       -3.0971  -21.3521  -42.5683 H         1 UNK         0.0600 
    194 H194       -1.6813  -22.3778  -42.7924 H         1 UNK         0.0600 
    195 H195       -1.2985  -24.1006  -44.8474 H         1 UNK         0.3000 
    196 H196       -1.5732  -26.7679  -43.8286 H         1 UNK         0.0600 
    197 H197        0.4528  -27.1921  -45.2341 H         1 UNK         0.0600 
    198 H198        0.6301  -25.7409  -44.2589 H         1 UNK         0.0600 
    199 H199        0.2751  -25.6068  -45.9791 H         1 UNK         0.0600 
    200 H200       -2.0321  -25.3574  -47.1133 H         1 UNK         0.3000 
    201 H201       -2.6483  -27.8781  -48.3435 H         1 UNK         0.0600 
    202 H202       -1.5839  -26.0098  -49.5590 H         1 UNK         0.0600 
    203 H203       -3.0080  -25.0056  -49.3059 H         1 UNK         0.0600 
    204 H204       -3.1004  -26.4413  -50.3304 H         1 UNK         0.0600 
    205 H205       -4.6716  -25.3592  -46.8927 H         1 UNK         0.3000 
    206 H206       -6.8116  -25.1424  -46.4401 H         1 UNK         0.0600 
    207 H207       -6.4674  -27.1855  -45.1234 H         1 UNK         0.0600 
    208 H208       -8.0870  -27.2050  -45.7972 H         1 UNK         0.0600 
    209 H209       -6.8242  -28.2129  -46.5037 H         1 UNK         0.0600 
    210 H210       -8.0618  -27.9149  -48.0941 H         1 UNK         0.3000 
    211 H211       -9.7023  -26.3544  -49.8527 H         1 UNK         0.0600 
    212 H212       -9.1305  -29.3661  -49.7704 H         1 UNK         0.0600 
    213 H213      -10.4398  -28.6003  -50.6623 H         1 UNK         0.0600 
    214 H214      -10.4249  -28.5333  -48.9077 H         1 UNK         0.0600 
    215 H215       -6.4812  -27.6781  -50.2193 H         1 UNK         0.3000 
    216 H216       -6.5335  -27.5148  -53.1855 H         1 UNK         0.0600 
    217 H217       -4.3796  -28.7000  -53.0093 H         1 UNK         0.0600 
    218 H218       -5.5898  -29.5482  -52.0635 H         1 UNK         0.0600 
    219 H219       -4.3868  -28.5432  -51.2575 H         1 UNK         0.0600 
    220 H220       -6.3185  -25.2048  -50.9436 H         1 UNK         0.3000 
    221 H221       -3.8106  -24.0355  -51.1371 H         1 UNK         0.0600 
    222 H222       -6.5424  -22.8377  -50.5048 H         1 UNK         0.0600 
    223 H223       -5.3445  -23.4459  -49.3612 H         1 UNK         0.0600 
    224 H224       -5.0319  -21.9787  -50.2753 H         1 UNK         0.0600 
    225 H225       -3.6540  -21.9831  -54.1059 H         1 UNK         0.3000 
    226 H226       -2.1732  -23.8857  -52.6094 H         1 UNK         0.0600 
    227 H227       -0.8708  -22.1763  -51.2654 H         1 UNK         0.0600 
    228 H228       -2.0066  -20.9255  -51.7471 H         1 UNK         0.0600 
    229 H229       -2.5226  -22.2443  -50.7041 H         1 UNK         0.0600 
    230 H230       -0.0171  -23.9084  -53.3476 H         1 UNK         0.3000 
    231 H231        0.3980  -22.9709  -56.0113 H         1 UNK         0.0600 
    232 H232        2.6212  -24.0718  -55.7234 H         1 UNK         0.0600 
    233 H233        1.3264  -25.1060  -55.1444 H         1 UNK         0.0600 
    234 H234        2.3366  -24.2282  -53.9943 H         1 UNK         0.0600 
    235 H235        0.9726  -21.4261  -52.9874 H         1 UNK         0.3000 
    236 H236        3.2426  -19.8344  -53.5613 H         1 UNK         0.0600 
    237 H237        0.9031  -19.3525  -51.6340 H         1 UNK         0.0600 
    238 H238        2.4038  -20.2021  -51.2630 H         1 UNK         0.0600 
    239 H239        2.4297  -18.4809  -51.6092 H         1 UNK         0.0600 
    240 H240       -0.2483  -19.2000  -54.0901 H         1 UNK         0.3000 
    241 H241        0.2125  -17.2369  -56.1038 H         1 UNK         0.0600 
    242 H242       -3.2197  -19.0495  -55.8790 H         1 UNK         0.3800 
    243 H243       -1.7585  -19.7241  -55.2383 H         1 UNK         0.3800 
    244 H244       -0.7894  -15.2319  -54.8776 H         1 UNK         0.0800 
    245 H245        0.8187  -15.6675  -54.4282 H         1 UNK         0.0800 
    246 H246       -2.2403  -14.3048  -52.8155 H         1 UNK         0.0800 
    247 H247       -2.9270  -15.7945  -53.4289 H         1 UNK         0.0800 
@<TRIPOS>BOND
     1    1    2 1    
     2    1  127 1    
     3    1  128 1    
     4    1  129 1    
     5    2    3 2    
     6    2    4 am   BACKBONE|DICT|INTERRES
     7    4    5 1    
     8    4  130 1    
     9    5    6 1    
    10    5   65 1    
    11    5  131 1    
    12    6    7 1    
    13    6  132 1    
    14    6  133 1    
    15    7    8 1    
    16    8    9 1    
    17    8  134 1    
    18    8  135 1    
    19    9   10 ar   
    20    9   14 ar   
    21   10   11 ar   
    22   10  136 1    
    23   11   12 ar   
    24   11  126 1    
    25   12   13 ar   
    26   12  137 1    
    27   13   14 ar   
    28   13   15 1    
    29   14  138 1    
    30   15   16 1    
    31   15  139 1    
    32   15  140 1    
    33   16   17 1    
    34   17   18 1    
    35   17  141 1    
    36   17  142 1    
    37   18   19 1    
    38   18   67 1    
    39   18  143 1    
    40   19   20 am   BACKBONE|DICT|INTERRES
    41   19  144 1    
    42   20   21 2    
    43   20   22 1    
    44   22   23 1    
    45   22   24 1    
    46   22  145 1    
    47   23  146 1    
    48   23  147 1    
    49   23  148 1    
    50   24   25 am   BACKBONE|DICT|INTERRES
    51   24  149 1    
    52   25   26 2    
    53   25   27 1    
    54   27   28 1    
    55   27   29 1    
    56   27  150 1    
    57   28  151 1    
    58   28  152 1    
    59   28  153 1    
    60   29   30 am   BACKBONE|DICT|INTERRES
    61   29  154 1    
    62   30   31 2    
    63   30   32 1    
    64   32   33 1    
    65   32   34 1    
    66   32  155 1    
    67   33  156 1    
    68   33  157 1    
    69   33  158 1    
    70   34   35 am   BACKBONE|DICT|INTERRES
    71   34  159 1    
    72   35   36 2    
    73   35   37 1    
    74   37   38 1    
    75   37   39 1    
    76   37  160 1    
    77   38  161 1    
    78   38  162 1    
    79   38  163 1    
    80   39   40 am   BACKBONE|DICT|INTERRES
    81   39  164 1    
    82   40   41 2    
    83   40   42 1    
    84   42   43 1    
    85   42   44 1    
    86   42  165 1    
    87   43  166 1    
    88   43  167 1    
    89   43  168 1    
    90   44   45 am   BACKBONE|DICT|INTERRES
    91   44  169 1    
    92   45   46 2    
    93   45   47 1    
    94   47   48 1    
    95   47   49 1    
    96   47  170 1    
    97   48  171 1    
    98   48  172 1    
    99   48  173 1    
   100   49   50 am   BACKBONE|DICT|INTERRES
   101   49  174 1    
   102   50   51 2    
   103   50   52 1    
   104   52   53 1    
   105   52   54 1    
   106   52  175 1    
   107   53  176 1    
   108   53  177 1    
   109   53  178 1    
   110   54   55 am   BACKBONE|DICT|INTERRES
   111   54  179 1    
   112   55   56 2    
   113   55   57 1    
   114   57   58 1    
   115   57   59 1    
   116   57  180 1    
   117   58  181 1    
   118   58  182 1    
   119   58  183 1    
   120   59   60 am   BACKBONE|DICT|INTERRES
   121   59  184 1    
   122   60   61 2    
   123   60   62 1    
   124   62   63 1    
   125   62   64 1    
   126   62  185 1    
   127   63  186 1    
   128   63  187 1    
   129   63  188 1    
   130   64   65 am   BACKBONE|DICT|INTERRES
   131   64  189 1    
   132   65   66 2    
   133   67   68 2    
   134   67   69 am   BACKBONE|DICT|INTERRES
   135   69   70 1    
   136   69  190 1    
   137   70   71 1    
   138   70   72 1    
   139   70  191 1    
   140   71  192 1    
   141   71  193 1    
   142   71  194 1    
   143   72   73 2    
   144   72   74 am   BACKBONE|DICT|INTERRES
   145   74   75 1    
   146   74  195 1    
   147   75   76 1    
   148   75   77 1    
   149   75  196 1    
   150   76  197 1    
   151   76  198 1    
   152   76  199 1    
   153   77   78 2    
   154   77   79 am   BACKBONE|DICT|INTERRES
   155   79   80 1    
   156   79  200 1    
   157   80   81 1    
   158   80   82 1    
   159   80  201 1    
   160   81  202 1    
   161   81  203 1    
   162   81  204 1    
   163   82   83 2    
   164   82   84 am   BACKBONE|DICT|INTERRES
   165   84   85 1    
   166   84  205 1    
   167   85   86 1    
   168   85   87 1    
   169   85  206 1    
   170   86  207 1    
   171   86  208 1    
   172   86  209 1    
   173   87   88 2    
   174   87   89 am   BACKBONE|DICT|INTERRES
   175   89   90 1    
   176   89  210 1    
   177   90   91 1    
   178   90   92 1    
   179   90  211 1    
   180   91  212 1    
   181   91  213 1    
   182   91  214 1    
   183   92   93 2    
   184   92   94 am   BACKBONE|DICT|INTERRES
   185   94   95 1    
   186   94  215 1    
   187   95   96 1    
   188   95   97 1    
   189   95  216 1    
   190   96  217 1    
   191   96  218 1    
   192   96  219 1    
   193   97   98 2    
   194   97   99 am   BACKBONE|DICT|INTERRES
   195   99  100 1    
   196   99  220 1    
   197  100  101 1    
   198  100  102 1    
   199  100  221 1    
   200  101  222 1    
   201  101  223 1    
   202  101  224 1    
   203  102  103 2    
   204  102  104 am   BACKBONE|DICT|INTERRES
   205  104  105 1    
   206  104  225 1    
   207  105  106 1    
   208  105  107 1    
   209  105  226 1    
   210  106  227 1    
   211  106  228 1    
   212  106  229 1    
   213  107  108 2    
   214  107  109 am   BACKBONE|DICT|INTERRES
   215  109  110 1    
   216  109  230 1    
   217  110  111 1    
   218  110  112 1    
   219  110  231 1    
   220  111  232 1    
   221  111  233 1    
   222  111  234 1    
   223  112  113 2    
   224  112  114 am   BACKBONE|DICT|INTERRES
   225  114  115 1    
   226  114  235 1    
   227  115  116 1    
   228  115  117 1    
   229  115  236 1    
   230  116  237 1    
   231  116  238 1    
   232  116  239 1    
   233  117  118 2    
   234  117  119 am   BACKBONE|DICT|INTERRES
   235  119  120 1    
   236  119  240 1    
   237  120  121 1    
   238  120  124 1    
   239  120  241 1    
   240  121  122 am   BACKBONE|DICT|INTERRES
   241  121  123 2    
   242  122  242 1    
   243  122  243 1    
   244  124  125 1    
   245  124  244 1    
   246  124  245 1    
   247  125  126 1    
   248  126  246 1    
   249  126  247 1    
@<TRIPOS>SUBSTRUCTURE
     1 UNK         1 GROUP             0       ****    0 ROOT    
