@<TRIPOS>MOLECULE
3R540
247   249    1
SMALL
USER_CHARGES


@<TRIPOS>ATOM
      1 CA          5.3052  -16.7300  -45.2528 C.3       0 UNK        -0.1800 
      2 C           4.3275  -16.2829  -46.3295 C.2       0 UNK         0.5000 
      3 O           3.1226  -16.2616  -46.0862 O.2       0 UNK        -0.5000 
      4 N           4.8458  -15.9180  -47.5105 N.am      1 UNK        -0.5000 
      5 CA          4.0765  -15.5497  -48.7089 C.3       1 UNK         0.1400 
      6 C6          4.9882  -15.3159  -49.9402 C.3       23 UNK        -0.0398 
      7 S7          6.0607  -16.7362  -50.3391 S.3       23 UNK        -0.2404 
      8 C8          5.1479  -17.4989  -51.7162 C.3       23 UNK        -0.0205 
      9 C9          3.8977  -18.2124  -51.2280 C.ar      23 UNK        -0.0193 
     10 C10         2.6363  -17.6266  -51.3720 C.ar      23 UNK        -0.1150 
     11 C11         1.4908  -18.2909  -50.9221 C.ar      23 UNK        -0.0193 
     12 C12         1.6141  -19.5533  -50.3343 C.ar      23 UNK        -0.1150 
     13 C13         2.8723  -20.1450  -50.1805 C.ar      23 UNK        -0.0193 
     14 C14         4.0083  -19.4696  -50.6304 C.ar      23 UNK        -0.1150 
     15 C15         3.0136  -21.5268  -49.5629 C.3       23 UNK        -0.0205 
     16 S16         3.4052  -21.4734  -47.7796 S.3       23 UNK        -0.2404 
     17 C17         1.8603  -20.8584  -47.0211 C.3       23 UNK        -0.0398 
     18 CA          0.8722  -21.9881  -46.6336 C.3       11 UNK         0.1400 
     19 N          -0.1137  -21.5507  -45.6428 N.am      11 UNK        -0.5000 
     20 C          -1.0148  -22.3532  -45.0559 C.2       10 UNK         0.5000 
     21 O          -1.0630  -23.5720  -45.2243 O.2       10 UNK        -0.5000 
     22 CA         -2.0766  -21.6751  -44.1742 C.3       10 UNK         0.1400 
     23 CB         -1.5151  -21.3729  -42.7771 C.3       10 UNK        -0.1800 
     24 N          -2.6050  -20.4499  -44.7748 N.am      10 UNK        -0.5000 
     25 C          -3.2861  -20.4020  -45.9296 C.2       9 UNK         0.5000 
     26 O          -3.5818  -21.3953  -46.5928 O.2       9 UNK        -0.5000 
     27 CA         -3.6701  -19.0079  -46.4512 C.3       9 UNK         0.1400 
     28 CB         -4.8830  -18.4665  -45.6798 C.3       9 UNK        -0.1800 
     29 N          -2.5689  -18.0471  -46.3772 N.am      9 UNK        -0.5000 
     30 C          -1.3851  -18.1803  -46.9968 C.2       8 UNK         0.5000 
     31 O          -1.0838  -19.1382  -47.7083 O.2       8 UNK        -0.5000 
     32 CA         -0.3304  -17.0955  -46.7119 C.3       8 UNK         0.1400 
     33 CB         -0.6376  -15.7960  -47.4702 C.3       8 UNK        -0.1800 
     34 N          -0.2183  -16.8081  -45.2841 N.am      8 UNK        -0.5000 
     35 C           0.1556  -17.6993  -44.3557 C.2       7 UNK         0.5000 
     36 O           0.4887  -18.8589  -44.6034 O.2       7 UNK        -0.5000 
     37 CA          0.0758  -17.2298  -42.8945 C.3       7 UNK         0.1400 
     38 CB          1.2837  -16.3519  -42.5296 C.3       7 UNK        -0.1800 
     39 N          -1.1707  -16.5092  -42.6251 N.am      7 UNK        -0.5000 
     40 C          -2.3856  -17.0782  -42.6261 C.2       6 UNK         0.5000 
     41 O          -2.5775  -18.2775  -42.8207 O.2       6 UNK        -0.5000 
     42 CA         -3.5924  -16.1492  -42.4012 C.3       6 UNK         0.1400 
     43 CB         -3.8283  -15.9253  -40.9002 C.3       6 UNK        -0.1800 
     44 N          -3.4412  -14.8550  -43.0649 N.am      6 UNK        -0.5000 
     45 C          -3.4256  -14.6734  -44.3936 C.2       5 UNK         0.5000 
     46 O          -3.5750  -15.5774  -45.2136 O.2       5 UNK        -0.5000 
     47 CA         -3.1280  -13.2438  -44.8827 C.3       5 UNK         0.1400 
     48 CB         -4.4135  -12.4049  -44.9293 C.3       5 UNK        -0.1800 
     49 N          -2.1252  -12.5676  -44.0526 N.am      5 UNK        -0.5000 
     50 C          -0.8614  -12.9906  -43.9301 C.2       4 UNK         0.5000 
     51 O          -0.4090  -13.9689  -44.5338 O.2       4 UNK        -0.5000 
     52 CA          0.0335  -12.2399  -42.9369 C.3       4 UNK         0.1400 
     53 CB         -0.2171  -12.7340  -41.4992 C.3       4 UNK        -0.1800 
     54 N           1.4053  -12.5022  -43.3421 N.am      4 UNK        -0.5000 
     55 C           2.5206  -11.9066  -42.9126 C.2       3 UNK         0.5000 
     56 O           2.5572  -11.0582  -42.0210 O.2       3 UNK        -0.5000 
     57 CA          3.8129  -12.3151  -43.6457 C.3       3 UNK         0.1400 
     58 CB          4.4310  -13.5639  -42.9986 C.3       3 UNK        -0.1800 
     59 N           3.5817  -12.5739  -45.0716 N.am      3 UNK        -0.5000 
     60 C           3.2741  -11.6252  -45.9703 C.2       2 UNK         0.5000 
     61 O           3.2206  -10.4257  -45.6950 O.2       2 UNK        -0.5000 
     62 CA          2.9806  -12.0921  -47.4078 C.3       2 UNK         0.1400 
     63 CB          3.3641  -11.0419  -48.4686 C.3       2 UNK        -0.1800 
     64 N           3.6550  -13.3555  -47.7005 N.am      2 UNK        -0.5000 
     65 C           3.1804  -14.3103  -48.5094 C.2       1 UNK         0.5000 
     66 O           2.1034  -14.2381  -49.1017 O.2       1 UNK        -0.5000 
     67 C           0.1823  -22.5842  -47.8750 C.2       11 UNK         0.5000 
     68 O           0.5159  -23.6983  -48.2758 O.2       11 UNK        -0.5000 
     69 N          -0.7787  -21.8456  -48.4469 N.am      12 UNK        -0.5000 
     70 CA         -1.5394  -22.2482  -49.6274 C.3       12 UNK         0.1400 
     71 CB         -2.4382  -21.0918  -50.0833 C.3       12 UNK        -0.1800 
     72 C          -2.3489  -23.5369  -49.4026 C.2       12 UNK         0.5000 
     73 O          -2.3260  -24.4162  -50.2621 O.2       12 UNK        -0.5000 
     74 N          -2.9905  -23.6575  -48.2322 N.am      13 UNK        -0.5000 
     75 CA         -3.6979  -24.8603  -47.7950 C.3       13 UNK         0.1400 
     76 CB         -4.4312  -24.5785  -46.4751 C.3       13 UNK        -0.1800 
     77 C          -2.7673  -26.0800  -47.6554 C.2       13 UNK         0.5000 
     78 O          -3.1069  -27.1556  -48.1491 O.2       13 UNK        -0.5000 
     79 N          -1.5964  -25.8874  -47.0290 N.am      14 UNK        -0.5000 
     80 CA         -0.5597  -26.9126  -46.8709 C.3       14 UNK         0.1400 
     81 CB          0.5252  -26.4041  -45.9097 C.3       14 UNK        -0.1800 
     82 C           0.0617  -27.3573  -48.2096 C.2       14 UNK         0.5000 
     83 O           0.3578  -28.5401  -48.3811 O.2       14 UNK        -0.5000 
     84 N           0.2121  -26.4101  -49.1442 N.am      15 UNK        -0.5000 
     85 CA          0.6765  -26.6315  -50.5151 C.3       15 UNK         0.1400 
     86 CB          1.1425  -25.2865  -51.0976 C.3       15 UNK        -0.1800 
     87 C          -0.3803  -27.2816  -51.4349 C.2       15 UNK         0.5000 
     88 O          -0.0454  -27.6355  -52.5662 O.2       15 UNK        -0.5000 
     89 N          -1.6252  -27.4136  -50.9508 N.am      16 UNK        -0.5000 
     90 CA         -2.8125  -27.9140  -51.6525 C.3       16 UNK         0.1400 
     91 CB         -2.6430  -29.3929  -52.0598 C.3       16 UNK        -0.1800 
     92 C          -3.2550  -27.0042  -52.8194 C.2       16 UNK         0.5000 
     93 O          -3.8120  -27.4863  -53.8080 O.2       16 UNK        -0.5000 
     94 N          -3.0160  -25.6974  -52.6675 N.am      17 UNK        -0.5000 
     95 CA         -3.5172  -24.6292  -53.5246 C.3       17 UNK         0.1400 
     96 CB         -2.4258  -23.5475  -53.6320 C.3       17 UNK        -0.1800 
     97 C          -4.8261  -24.0641  -52.9359 C.2       17 UNK         0.5000 
     98 O          -5.3542  -24.5976  -51.9556 O.2       17 UNK        -0.5000 
     99 N          -5.3398  -22.9891  -53.5465 N.am      18 UNK        -0.5000 
    100 CA        -6.5019  -22.2451  -53.0640 C.3       18 UNK         0.1400 
    101 CB        -6.9393  -21.2363  -54.1374 C.3       18 UNK        -0.1800 
    102 C         -6.1866  -21.5400  -51.7316 C.2       18 UNK         0.5000 
    103 O         -5.3536  -20.6346  -51.7038 O.2       18 UNK        -0.5000 
    104 N         -6.8559  -21.9694  -50.6546 N.am      19 UNK        -0.5000 
    105 CA        -6.6552  -21.4741  -49.2888 C.3       19 UNK         0.1400 
    106 CB        -7.3060  -22.4583  -48.3053 C.3       19 UNK        -0.1800 
    107 C         -7.1755  -20.0408  -49.0532 C.2       19 UNK         0.5000 
    108 O         -6.8902  -19.4620  -48.0056 O.2       19 UNK        -0.5000 
    109 N         -7.9222  -19.4831  -50.0164 N.am      20 UNK        -0.5000 
    110 CA        -8.3844  -18.0959  -50.0487 C.3       20 UNK         0.1400 
    111 CB        -9.4962  -17.9734  -51.1056 C.3       20 UNK        -0.1800 
    112 C         -7.2082  -17.1350  -50.3193 C.2       20 UNK         0.5000 
    113 O         -7.0362  -16.6689  -51.4496 O.2       20 UNK        -0.5000 
    114 N         -6.3864  -16.9201  -49.2819 N.am      21 UNK        -0.5000 
    115 CA        -5.1278  -16.1655  -49.2224 C.3       21 UNK         0.1400 
    116 CB        -5.3387  -14.6745  -49.5469 C.3       21 UNK        -0.1800 
    117 C         -4.0072  -16.7852  -50.0773 C.2       21 UNK         0.5000 
    118 O         -2.9535  -17.1182  -49.5455 O.2       21 UNK        -0.5000 
    119 N         -4.2618  -16.9456  -51.3753 N.am      22 UNK        -0.5000 
    120 CA        -3.4192  -17.6518  -52.3464 C.3       22 UNK         0.1400 
    121 C         -4.1948  -18.0471  -53.6401 C.2       22 UNK         0.5000 
    122 N         -5.5025  -17.8212  -53.7461 N.am      22 UNK        -0.7600 
    123 O         -3.6028  -18.5716  -54.5791 O.2       22 UNK        -0.5000 
    124 C124       -2.0859  -16.8982  -52.6410 C.3       23 UNK        -0.0398 
    125 S125       -0.6309  -18.0024  -52.6763 S.3       23 UNK        -0.2404 
    126 C126        0.1251  -17.6372  -51.0608 C.3       23 UNK        -0.0205 
    127 H127        5.1095  -16.2019  -44.3203 H         1 UNK         0.0600 
    128 H128        6.3397  -16.5408  -45.5402 H         1 UNK         0.0600 
    129 H129        5.1912  -17.7981  -45.0681 H         1 UNK         0.0600 
    130 H130        5.8454  -15.9741  -47.6456 H         1 UNK         0.3000 
    131 H131        3.4122  -16.3884  -48.9254 H         1 UNK         0.0600 
    132 H132        5.6383  -14.4553  -49.7712 H         1 UNK         0.0800 
    133 H133        4.3900  -15.0664  -50.8185 H         1 UNK         0.0800 
    134 H134        4.9014  -16.7454  -52.4658 H         1 UNK         0.0800 
    135 H135        5.8007  -18.2173  -52.2142 H         1 UNK         0.0800 
    136 H136        2.5435  -16.6521  -51.8305 H         1 UNK         0.1150 
    137 H137        0.7283  -20.0709  -49.9956 H         1 UNK         0.1150 
    138 H138        4.9829  -19.9232  -50.5152 H         1 UNK         0.1150 
    139 H139        2.1186  -22.1169  -49.7514 H         1 UNK         0.0800 
    140 H140        3.8187  -22.0620  -50.0686 H         1 UNK         0.0800 
    141 H141        1.3929  -20.1057  -47.6545 H         1 UNK         0.0800 
    142 H142        2.1630  -20.3234  -46.1203 H         1 UNK         0.0800 
    143 H143        1.4449  -22.7895  -46.1617 H         1 UNK         0.0600 
    144 H144       -0.1242  -20.5594  -45.4207 H         1 UNK         0.3000 
    145 H145       -2.9080  -22.3738  -44.0613 H         1 UNK         0.0600 
    146 H146       -2.2908  -20.9837  -42.1176 H         1 UNK         0.0600 
    147 H147       -1.1160  -22.2753  -42.3123 H         1 UNK         0.0600 
    148 H148       -0.7103  -20.6383  -42.8160 H         1 UNK         0.0600 
    149 H149       -2.4415  -19.5878  -44.2628 H         1 UNK         0.3000 
    150 H150       -3.9496  -19.1114  -47.5018 H         1 UNK         0.0600 
    151 H151       -5.6953  -19.1937  -45.6636 H         1 UNK         0.0600 
    152 H152       -5.2703  -17.5575  -46.1389 H         1 UNK         0.0600 
    153 H153       -4.6335  -18.2397  -44.6442 H         1 UNK         0.0600 
    154 H154       -2.7458  -17.2044  -45.8382 H         1 UNK         0.3000 
    155 H155        0.6382  -17.4672  -47.0533 H         1 UNK         0.0600 
    156 H156        0.1176  -15.0359  -47.2690 H         1 UNK         0.0600 
    157 H157       -0.6470  -15.9674  -48.5467 H         1 UNK         0.0600 
    158 H158       -1.6087  -15.3848  -47.1937 H         1 UNK         0.0600 
    159 H159       -0.4402  -15.8611  -44.9925 H         1 UNK         0.3000 
    160 H160        0.0985  -18.1166  -42.2573 H         1 UNK         0.0600 
    161 H161        1.3235  -15.4445  -43.1311 H         1 UNK         0.0600 
    162 H162        2.2177  -16.8902  -42.6959 H         1 UNK         0.0600 
    163 H163        1.2591  -16.0602  -41.4798 H         1 UNK         0.0600 
    164 H164       -1.1037  -15.5108  -42.5056 H         1 UNK         0.3000 
    165 H165       -4.4753  -16.6408  -42.8144 H         1 UNK         0.0600 
    166 H166       -4.7263  -15.3322  -40.7264 H         1 UNK         0.0600 
    167 H167       -3.9623  -16.8752  -40.3808 H         1 UNK         0.0600 
    168 H168       -2.9890  -15.4101  -40.4311 H         1 UNK         0.0600 
    169 H169       -3.3128  -14.0506  -42.4697 H         1 UNK         0.3000 
    170 H170       -2.7322  -13.3180  -45.8980 H         1 UNK         0.0600 
    171 H171       -5.1674  -12.8826  -45.5567 H         1 UNK         0.0600 
    172 H172       -4.8470  -12.2732  -43.9372 H         1 UNK         0.0600 
    173 H173       -4.2238  -11.4162  -45.3474 H         1 UNK         0.0600 
    174 H174       -2.4334  -11.7588  -43.5320 H         1 UNK         0.3000 
    175 H175       -0.1654  -11.1691  -43.0109 H         1 UNK         0.0600 
    176 H176       -1.2586  -12.5907  -41.2093 H         1 UNK         0.0600 
    177 H177        0.0125  -13.7942  -41.3911 H         1 UNK         0.0600 
    178 H178        0.3918  -12.1884  -40.7787 H         1 UNK         0.0600 
    179 H179        1.4673  -13.1810  -44.0913 H         1 UNK         0.3000 
    180 H180        4.5254  -11.4925  -43.5538 H         1 UNK         0.0600 
    181 H181        3.7729  -14.4297  -43.0819 H         1 UNK         0.0600 
    182 H182        4.6228  -13.3988  -41.9376 H         1 UNK         0.0600 
    183 H183        5.3834  -13.8175  -43.4641 H         1 UNK         0.0600 
    184 H184        3.5646  -13.5404  -45.3634 H         1 UNK         0.3000 
    185 H185        1.9001  -12.2444  -47.4520 H         1 UNK         0.0600 
    186 H186        2.8344  -10.1026  -48.3054 H         1 UNK         0.0600 
    187 H187        4.4330  -10.8270  -48.4492 H         1 UNK         0.0600 
    188 H188        3.1091  -11.3826  -49.4722 H         1 UNK         0.0600 
    189 H189        4.5589  -13.4911  -47.2691 H         1 UNK         0.3000 
    190 H190       -0.9857  -20.9229  -48.0668 H         1 UNK         0.3000 
    191 H191       -0.8203  -22.4456  -50.4248 H         1 UNK         0.0600 
    192 H192       -3.1835  -20.8339  -49.3307 H         1 UNK         0.0600 
    193 H193       -2.9663  -21.3551  -50.9989 H         1 UNK         0.0600 
    194 H194       -1.8556  -20.1948  -50.2935 H         1 UNK         0.0600 
    195 H195       -2.9964  -22.8672  -47.5912 H         1 UNK         0.3000 
    196 H196       -4.4454  -25.0962  -48.5556 H         1 UNK         0.0600 
    197 H197       -4.9909  -25.4540  -46.1440 H         1 UNK         0.0600 
    198 H198       -5.1419  -23.7599  -46.5852 H         1 UNK         0.0600 
    199 H199       -3.7372  -24.3098  -45.6782 H         1 UNK         0.0600 
    200 H200       -1.3955  -24.9760  -46.6279 H         1 UNK         0.3000 
    201 H201       -1.0269  -27.7898  -46.4185 H         1 UNK         0.0600 
    202 H202        0.1056  -26.1698  -44.9312 H         1 UNK         0.0600 
    203 H203        1.0102  -25.5042  -46.2887 H         1 UNK         0.0600 
    204 H204        1.2998  -27.1572  -45.7599 H         1 UNK         0.0600 
    205 H205        0.0180  -25.4457  -48.8862 H         1 UNK         0.3000 
    206 H206        1.5358  -27.3042  -50.4823 H         1 UNK         0.0600 
    207 H207        0.3209  -24.5729  -51.1640 H         1 UNK         0.0600 
    208 H208        1.5499  -25.4117  -52.1015 H         1 UNK         0.0600 
    209 H209        1.9251  -24.8398  -50.4839 H         1 UNK         0.0600 
    210 H210       -1.7972  -27.0705  -50.0141 H         1 UNK         0.3000 
    211 H211       -3.6229  -27.8707  -50.9236 H         1 UNK         0.0600 
    212 H212       -1.9045  -29.5154  -52.8523 H         1 UNK         0.0600 
    213 H213       -3.5835  -29.8064  -52.4256 H         1 UNK         0.0600 
    214 H214       -2.3307  -30.0017  -51.2114 H         1 UNK         0.0600 
    215 H215       -2.6365  -25.3828  -51.7761 H         1 UNK         0.3000 
    216 H216       -3.7297  -25.0152  -54.5234 H         1 UNK         0.0600 
    217 H217       -2.2432  -23.0616  -52.6734 H         1 UNK         0.0600 
    218 H218       -2.6994  -22.7713  -54.3471 H         1 UNK         0.0600 
    219 H219       -1.4820  -23.9754  -53.9708 H         1 UNK         0.0600 
    220 H220       -4.8463  -22.5865  -54.3294 H         1 UNK         0.3000 
    221 H221       -7.3226  -22.9491  -52.9100 H         1 UNK         0.0600 
    222 H222       -7.2540  -21.7435  -55.0496 H         1 UNK         0.0600 
    223 H223       -6.1315  -20.5519  -54.3977 H         1 UNK         0.0600 
    224 H224       -7.7814  -20.6354  -53.7916 H         1 UNK         0.0600 
    225 H225       -7.5080  -22.7334  -50.7598 H         1 UNK         0.3000 
    226 H226       -5.5817  -21.4605  -49.0883 H         1 UNK         0.0600 
    227 H227       -6.8949  -23.4613  -48.4222 H         1 UNK         0.0600 
    228 H228       -7.1271  -22.1546  -47.2729 H         1 UNK         0.0600 
    229 H229       -8.3855  -22.5168  -48.4493 H         1 UNK         0.0600 
    230 H230       -8.0907  -20.0286  -50.8477 H         1 UNK         0.3000 
    231 H231       -8.8134  -17.8420  -49.0771 H         1 UNK         0.0600 
    232 H232       -9.1450  -18.2569  -52.0987 H         1 UNK         0.0600 
    233 H233       -9.8641  -16.9484  -51.1671 H         1 UNK         0.0600 
    234 H234      -10.3466  -18.6087  -50.8576 H         1 UNK         0.0600 
    235 H235       -6.5822  -17.4718  -48.4530 H         1 UNK         0.3000 
    236 H236       -4.7947  -16.2250  -48.1847 H         1 UNK         0.0600 
    237 H237       -6.0746  -14.2283  -48.8781 H         1 UNK         0.0600 
    238 H238       -4.4089  -14.1176  -49.4246 H         1 UNK         0.0600 
    239 H239       -5.6789  -14.5188  -50.5708 H         1 UNK         0.0600 
    240 H240       -5.1800  -16.6634  -51.7003 H         1 UNK         0.3000 
    241 H241       -3.1825  -18.6072  -51.8743 H         1 UNK         0.0600 
    242 H242       -5.9625  -18.0815  -54.6031 H         1 UNK         0.3800 
    243 H243       -6.0565  -17.4375  -52.9907 H         1 UNK         0.3800 
    244 H244       -1.9036  -16.1196  -51.8998 H         1 UNK         0.0800 
    245 H245       -2.1360  -16.3633  -53.5909 H         1 UNK         0.0800 
    246 H246        0.2243  -16.5580  -50.9335 H         1 UNK         0.0800 
    247 H247       -0.5380  -17.9820  -50.2659 H         1 UNK         0.0800 
@<TRIPOS>BOND
     1    1    2 1    
     2    1  127 1    
     3    1  128 1    
     4    1  129 1    
     5    2    3 2    
     6    2    4 am   BACKBONE|DICT|INTERRES
     7    4    5 1    
     8    4  130 1    
     9    5    6 1    
    10    5   65 1    
    11    5  131 1    
    12    6    7 1    
    13    6  132 1    
    14    6  133 1    
    15    7    8 1    
    16    8    9 1    
    17    8  134 1    
    18    8  135 1    
    19    9   10 ar   
    20    9   14 ar   
    21   10   11 ar   
    22   10  136 1    
    23   11   12 ar   
    24   11  126 1    
    25   12   13 ar   
    26   12  137 1    
    27   13   14 ar   
    28   13   15 1    
    29   14  138 1    
    30   15   16 1    
    31   15  139 1    
    32   15  140 1    
    33   16   17 1    
    34   17   18 1    
    35   17  141 1    
    36   17  142 1    
    37   18   19 1    
    38   18   67 1    
    39   18  143 1    
    40   19   20 am   BACKBONE|DICT|INTERRES
    41   19  144 1    
    42   20   21 2    
    43   20   22 1    
    44   22   23 1    
    45   22   24 1    
    46   22  145 1    
    47   23  146 1    
    48   23  147 1    
    49   23  148 1    
    50   24   25 am   BACKBONE|DICT|INTERRES
    51   24  149 1    
    52   25   26 2    
    53   25   27 1    
    54   27   28 1    
    55   27   29 1    
    56   27  150 1    
    57   28  151 1    
    58   28  152 1    
    59   28  153 1    
    60   29   30 am   BACKBONE|DICT|INTERRES
    61   29  154 1    
    62   30   31 2    
    63   30   32 1    
    64   32   33 1    
    65   32   34 1    
    66   32  155 1    
    67   33  156 1    
    68   33  157 1    
    69   33  158 1    
    70   34   35 am   BACKBONE|DICT|INTERRES
    71   34  159 1    
    72   35   36 2    
    73   35   37 1    
    74   37   38 1    
    75   37   39 1    
    76   37  160 1    
    77   38  161 1    
    78   38  162 1    
    79   38  163 1    
    80   39   40 am   BACKBONE|DICT|INTERRES
    81   39  164 1    
    82   40   41 2    
    83   40   42 1    
    84   42   43 1    
    85   42   44 1    
    86   42  165 1    
    87   43  166 1    
    88   43  167 1    
    89   43  168 1    
    90   44   45 am   BACKBONE|DICT|INTERRES
    91   44  169 1    
    92   45   46 2    
    93   45   47 1    
    94   47   48 1    
    95   47   49 1    
    96   47  170 1    
    97   48  171 1    
    98   48  172 1    
    99   48  173 1    
   100   49   50 am   BACKBONE|DICT|INTERRES
   101   49  174 1    
   102   50   51 2    
   103   50   52 1    
   104   52   53 1    
   105   52   54 1    
   106   52  175 1    
   107   53  176 1    
   108   53  177 1    
   109   53  178 1    
   110   54   55 am   BACKBONE|DICT|INTERRES
   111   54  179 1    
   112   55   56 2    
   113   55   57 1    
   114   57   58 1    
   115   57   59 1    
   116   57  180 1    
   117   58  181 1    
   118   58  182 1    
   119   58  183 1    
   120   59   60 am   BACKBONE|DICT|INTERRES
   121   59  184 1    
   122   60   61 2    
   123   60   62 1    
   124   62   63 1    
   125   62   64 1    
   126   62  185 1    
   127   63  186 1    
   128   63  187 1    
   129   63  188 1    
   130   64   65 am   BACKBONE|DICT|INTERRES
   131   64  189 1    
   132   65   66 2    
   133   67   68 2    
   134   67   69 am   BACKBONE|DICT|INTERRES
   135   69   70 1    
   136   69  190 1    
   137   70   71 1    
   138   70   72 1    
   139   70  191 1    
   140   71  192 1    
   141   71  193 1    
   142   71  194 1    
   143   72   73 2    
   144   72   74 am   BACKBONE|DICT|INTERRES
   145   74   75 1    
   146   74  195 1    
   147   75   76 1    
   148   75   77 1    
   149   75  196 1    
   150   76  197 1    
   151   76  198 1    
   152   76  199 1    
   153   77   78 2    
   154   77   79 am   BACKBONE|DICT|INTERRES
   155   79   80 1    
   156   79  200 1    
   157   80   81 1    
   158   80   82 1    
   159   80  201 1    
   160   81  202 1    
   161   81  203 1    
   162   81  204 1    
   163   82   83 2    
   164   82   84 am   BACKBONE|DICT|INTERRES
   165   84   85 1    
   166   84  205 1    
   167   85   86 1    
   168   85   87 1    
   169   85  206 1    
   170   86  207 1    
   171   86  208 1    
   172   86  209 1    
   173   87   88 2    
   174   87   89 am   BACKBONE|DICT|INTERRES
   175   89   90 1    
   176   89  210 1    
   177   90   91 1    
   178   90   92 1    
   179   90  211 1    
   180   91  212 1    
   181   91  213 1    
   182   91  214 1    
   183   92   93 2    
   184   92   94 am   BACKBONE|DICT|INTERRES
   185   94   95 1    
   186   94  215 1    
   187   95   96 1    
   188   95   97 1    
   189   95  216 1    
   190   96  217 1    
   191   96  218 1    
   192   96  219 1    
   193   97   98 2    
   194   97   99 am   BACKBONE|DICT|INTERRES
   195   99  100 1    
   196   99  220 1    
   197  100  101 1    
   198  100  102 1    
   199  100  221 1    
   200  101  222 1    
   201  101  223 1    
   202  101  224 1    
   203  102  103 2    
   204  102  104 am   BACKBONE|DICT|INTERRES
   205  104  105 1    
   206  104  225 1    
   207  105  106 1    
   208  105  107 1    
   209  105  226 1    
   210  106  227 1    
   211  106  228 1    
   212  106  229 1    
   213  107  108 2    
   214  107  109 am   BACKBONE|DICT|INTERRES
   215  109  110 1    
   216  109  230 1    
   217  110  111 1    
   218  110  112 1    
   219  110  231 1    
   220  111  232 1    
   221  111  233 1    
   222  111  234 1    
   223  112  113 2    
   224  112  114 am   BACKBONE|DICT|INTERRES
   225  114  115 1    
   226  114  235 1    
   227  115  116 1    
   228  115  117 1    
   229  115  236 1    
   230  116  237 1    
   231  116  238 1    
   232  116  239 1    
   233  117  118 2    
   234  117  119 am   BACKBONE|DICT|INTERRES
   235  119  120 1    
   236  119  240 1    
   237  120  121 1    
   238  120  124 1    
   239  120  241 1    
   240  121  122 am   BACKBONE|DICT|INTERRES
   241  121  123 2    
   242  122  242 1    
   243  122  243 1    
   244  124  125 1    
   245  124  244 1    
   246  124  245 1    
   247  125  126 1    
   248  126  246 1    
   249  126  247 1    
@<TRIPOS>SUBSTRUCTURE
     1 UNK         1 GROUP             0       ****    0 ROOT    
