@<TRIPOS>MOLECULE
3R540
247   249    1
SMALL
USER_CHARGES


@<TRIPOS>ATOM
      1 CA         -1.6992  -13.0694  -51.5271 C.3       0 UNK        -0.1800 
      2 C          -0.7429  -12.1423  -50.7902 C.2       0 UNK         0.5000 
      3 O          -0.0129  -11.3820  -51.4267 O.2       0 UNK        -0.5000 
      4 N          -0.7500  -12.1947  -49.4560 N.am      1 UNK        -0.5000 
      5 CA          0.0685  -11.3779  -48.5663 C.3       1 UNK         0.1400 
      6 C6          1.5497  -11.8461  -48.4970 C.3       23 UNK        -0.0398 
      7 S7          1.8793  -13.3630  -47.5268 S.3       23 UNK        -0.2404 
      8 C8          1.9891  -14.6429  -48.8242 C.3       23 UNK        -0.0205 
      9 C9          0.6570  -15.2462  -49.2724 C.ar      23 UNK        -0.0193 
     10 C10         0.5983  -15.8932  -50.5097 C.ar      23 UNK        -0.1150 
     11 C11        -0.5721  -16.5288  -50.9347 C.ar      23 UNK        -0.0193 
     12 C12        -1.7053  -16.5051  -50.1169 C.ar      23 UNK        -0.1150 
     13 C13        -1.6675  -15.8557  -48.8799 C.ar      23 UNK        -0.0193 
     14 C14        -0.4870  -15.2340  -48.4634 C.ar      23 UNK        -0.1150 
     15 C15        -2.8930  -15.8234  -47.9822 C.3       23 UNK        -0.0205 
     16 S16        -2.9667  -17.2901  -46.9085 S.3       23 UNK        -0.2404 
     17 C17        -4.1879  -18.3330  -47.7730 C.3       23 UNK        -0.0398 
     18 CA         -3.9549  -19.8534  -47.6146 C.3       11 UNK         0.1400 
     19 N          -2.6757  -20.2909  -48.1803 N.am      11 UNK        -0.5000 
     20 C          -2.3388  -21.5700  -48.3951 C.2       10 UNK         0.5000 
     21 O          -3.1084  -22.5137  -48.2097 O.2       10 UNK        -0.5000 
     22 CA         -0.8961  -21.8572  -48.8498 C.3       10 UNK         0.1400 
     23 CB         -0.8551  -22.0534  -50.3705 C.3       10 UNK        -0.1800 
     24 N           0.0835  -20.8337  -48.4686 N.am      10 UNK        -0.5000 
     25 C           0.3578  -20.4437  -47.2159 C.2       9 UNK         0.5000 
     26 O          -0.2543  -20.8440  -46.2233 O.2       9 UNK        -0.5000 
     27 CA          1.4487  -19.3755  -47.0614 C.3       9 UNK         0.1400 
     28 CB          0.8293  -17.9876  -47.2219 C.3       9 UNK        -0.1800 
     29 N           2.1105  -19.4615  -45.7613 N.am      9 UNK        -0.5000 
     30 C           3.0252  -20.3923  -45.4592 C.2       8 UNK         0.5000 
     31 O           3.4127  -21.2461  -46.2589 O.2       8 UNK        -0.5000 
     32 CA          3.6399  -20.3672  -44.0486 C.3       8 UNK         0.1400 
     33 CB          5.0221  -19.6961  -44.0765 C.3       8 UNK        -0.1800 
     34 N           2.8078  -19.6978  -43.0490 N.am      8 UNK        -0.5000 
     35 C           1.7508  -20.2723  -42.4522 C.2       7 UNK         0.5000 
     36 O           1.3355  -21.3889  -42.7632 O.2       7 UNK        -0.5000 
     37 CA          1.0664  -19.5239  -41.2889 C.3       7 UNK         0.1400 
     38 CB          0.8789  -20.4496  -40.0676 C.3       7 UNK        -0.1800 
     39 N           1.8003  -18.3186  -40.9070 N.am      7 UNK        -0.5000 
     40 C           1.3414  -17.3108  -40.1604 C.2       6 UNK         0.5000 
     41 O           0.2542  -17.3188  -39.5822 O.2       6 UNK        -0.5000 
     42 CA          2.2434  -16.0643  -40.0751 C.3       6 UNK         0.1400 
     43 CB          3.5440  -16.3340  -39.2924 C.3       6 UNK        -0.1800 
     44 N           2.4957  -15.4754  -41.3961 N.am      6 UNK        -0.5000 
     45 C           3.2091  -15.9682  -42.4199 C.2       5 UNK         0.5000 
     46 O           3.8965  -16.9902  -42.3522 O.2       5 UNK        -0.5000 
     47 CA          3.0103  -15.2435  -43.7705 C.3       5 UNK         0.1400 
     48 CB          3.7499  -15.9223  -44.9420 C.3       5 UNK        -0.1800 
     49 N           1.5838  -15.0843  -44.0812 N.am      5 UNK        -0.5000 
     50 C           0.6685  -16.0672  -44.1377 C.2       4 UNK         0.5000 
     51 O           0.9510  -17.2660  -44.0666 O.2       4 UNK        -0.5000 
     52 CA         -0.8105  -15.6370  -44.2611 C.3       4 UNK         0.1400 
     53 CB         -1.7656  -16.6955  -43.6708 C.3       4 UNK        -0.1800 
     54 N          -1.1017  -14.3128  -43.6904 N.am      4 UNK        -0.5000 
     55 C          -0.9042  -13.9175  -42.4219 C.2       3 UNK         0.5000 
     56 O          -0.4302  -14.6450  -41.5505 O.2       3 UNK        -0.5000 
     57 CA         -1.2848  -12.4656  -42.0565 C.3       3 UNK         0.1400 
     58 CB         -0.3571  -11.8796  -40.9705 C.3       3 UNK        -0.1800 
     59 N          -1.3772  -11.5386  -43.1918 N.am      3 UNK        -0.5000 
     60 C          -0.4080  -11.2094  -44.0569 C.2       2 UNK         0.5000 
     61 O           0.7114  -11.7282  -44.0790 O.2       2 UNK        -0.5000 
     62 CA         -0.7561  -10.0789  -45.0428 C.3       2 UNK         0.1400 
     63 CB         -0.2190   -8.7354  -44.5261 C.3       2 UNK        -0.1800 
     64 N          -0.2250  -10.3192  -46.3824 N.am      2 UNK        -0.5000 
     65 C          -0.6268  -11.3043  -47.1941 C.2       1 UNK         0.5000 
     66 O          -1.5096  -12.1191  -46.9025 O.2       1 UNK        -0.5000 
     67 C          -4.1898  -20.3577  -46.1699 C.2       11 UNK         0.5000 
     68 O          -5.3440  -20.5361  -45.7794 O.2       11 UNK        -0.5000 
     69 N          -3.1040  -20.6264  -45.4314 N.am      12 UNK        -0.5000 
     70 CA         -3.1219  -21.2629  -44.1185 C.3       12 UNK         0.1400 
     71 CB         -2.2378  -20.4595  -43.1510 C.3       12 UNK        -0.1800 
     72 C          -2.6386  -22.7179  -44.2232 C.2       12 UNK         0.5000 
     73 O          -3.3461  -23.6254  -43.7858 O.2       12 UNK        -0.5000 
     74 N          -1.4513  -22.9170  -44.8125 N.am      13 UNK        -0.5000 
     75 CA         -0.7164  -24.1843  -44.8421 C.3       13 UNK         0.1400 
     76 CB          0.6958  -23.9320  -45.3935 C.3       13 UNK        -0.1800 
     77 C          -1.4022  -25.3093  -45.6375 C.2       13 UNK         0.5000 
     78 O          -1.2133  -26.4797  -45.3040 O.2       13 UNK        -0.5000 
     79 N          -2.1793  -24.9420  -46.6628 N.am      14 UNK        -0.5000 
     80 CA         -2.9351  -25.8601  -47.5156 C.3       14 UNK         0.1400 
     81 CB         -2.3626  -25.7975  -48.9427 C.3       14 UNK        -0.1800 
     82 C          -4.4382  -25.5296  -47.4922 C.2       14 UNK         0.5000 
     83 O          -5.1628  -25.9600  -48.3897 O.2       14 UNK        -0.5000 
     84 N          -4.8805  -24.7401  -46.4988 N.am      15 UNK        -0.5000 
     85 CA         -6.2576  -24.2756  -46.2804 C.3       15 UNK         0.1400 
     86 CB         -7.1304  -25.4412  -45.7722 C.3       15 UNK        -0.1800 
     87 C          -6.8809  -23.5574  -47.5008 C.2       15 UNK         0.5000 
     88 O          -8.0928  -23.6336  -47.7082 O.2       15 UNK        -0.5000 
     89 N          -6.0279  -22.8958  -48.2965 N.am      16 UNK        -0.5000 
     90 CA         -6.3246  -22.1936  -49.5467 C.3       16 UNK         0.1400 
     91 CB         -7.3562  -21.0644  -49.3393 C.3       16 UNK        -0.1800 
     92 C          -6.6745  -23.1062  -50.7383 C.2       16 UNK         0.5000 
     93 O          -7.0851  -22.5889  -51.7775 O.2       16 UNK        -0.5000 
     94 N          -6.4601  -24.4254  -50.6177 N.am      17 UNK        -0.5000 
     95 CA         -6.6603  -25.3785  -51.7129 C.3       17 UNK         0.1400 
     96 CB         -6.7023  -26.8101  -51.1579 C.3       17 UNK        -0.1800 
     97 C          -5.5752  -25.2470  -52.7974 C.2       17 UNK         0.5000 
     98 O          -5.8892  -25.3082  -53.9864 O.2       17 UNK        -0.5000 
     99 N          -4.3227  -25.0437  -52.3647 N.am      18 UNK        -0.5000 
    100 CA        -3.1606  -24.8813  -53.2419 C.3       18 UNK         0.1400 
    101 CB        -1.9305  -25.5074  -52.5672 C.3       18 UNK        -0.1800 
    102 C         -2.8790  -23.4110  -53.6015 C.2       18 UNK         0.5000 
    103 O         -2.0629  -23.1613  -54.4886 O.2       18 UNK        -0.5000 
    104 N         -3.5431  -22.4586  -52.9274 N.am      19 UNK        -0.5000 
    105 CA        -3.3262  -21.0100  -53.0589 C.3       19 UNK         0.1400 
    106 CB        -4.0656  -20.2728  -51.9326 C.3       19 UNK        -0.1800 
    107 C         -3.6826  -20.4145  -54.4356 C.2       19 UNK         0.5000 
    108 O         -3.2917  -19.2818  -54.7168 O.2       19 UNK        -0.5000 
    109 N         -4.3746  -21.1891  -55.2830 N.am      20 UNK        -0.5000 
    110 CA        -4.5884  -20.8887  -56.7002 C.3       20 UNK         0.1400 
    111 CB        -5.5714  -21.9131  -57.2868 C.3       20 UNK        -0.1800 
    112 C         -3.2739  -20.8713  -57.5100 C.2       20 UNK         0.5000 
    113 O         -3.1663  -20.1063  -58.4692 O.2       20 UNK        -0.5000 
    114 N         -2.2994  -21.6921  -57.0935 N.am      21 UNK        -0.5000 
    115 CA        -0.9279  -21.6911  -57.5996 C.3       21 UNK         0.1400 
    116 CB        -0.4767  -23.1402  -57.8435 C.3       21 UNK        -0.1800 
    117 C          0.0057  -20.9917  -56.5972 C.2       21 UNK         0.5000 
    118 O          0.8163  -20.1569  -56.9994 O.2       21 UNK        -0.5000 
    119 N         -0.1443  -21.3337  -55.3096 N.am      22 UNK        -0.5000 
    120 CA         0.6113  -20.8042  -54.1632 C.3       22 UNK         0.1400 
    121 C          2.1211  -21.2018  -54.1329 C.2       22 UNK         0.5000 
    122 N          2.5397  -22.2404  -54.8464 N.am      22 UNK        -0.7600 
    123 O          2.9253  -20.5853  -53.4399 O.2       22 UNK        -0.5000 
    124 C124        0.3559  -19.2856  -53.9390 C.3       23 UNK        -0.0398 
    125 S125        0.2556  -18.8456  -52.1716 S.3       23 UNK        -0.2404 
    126 C126       -0.5970  -17.2436  -52.2755 C.3       23 UNK        -0.0205 
    127 H127       -2.3317  -13.6286  -50.8374 H         1 UNK         0.0600 
    128 H128       -1.1383  -13.7837  -52.1296 H         1 UNK         0.0600 
    129 H129       -2.3458  -12.4947  -52.1900 H         1 UNK         0.0600 
    130 H130       -1.3790  -12.8172  -48.9643 H         1 UNK         0.3000 
    131 H131        0.0580  -10.3616  -48.9665 H         1 UNK         0.0600 
    132 H132        1.9538  -11.9620  -49.5029 H         1 UNK         0.0800 
    133 H133        2.1488  -11.0537  -48.0468 H         1 UNK         0.0800 
    134 H134        2.6078  -15.4543  -48.4401 H         1 UNK         0.0800 
    135 H135        2.5245  -14.2369  -49.6835 H         1 UNK         0.0800 
    136 H136        1.4768  -15.9264  -51.1389 H         1 UNK         0.1150 
    137 H137       -2.6127  -16.9948  -50.4403 H         1 UNK         0.1150 
    138 H138       -0.4625  -14.7549  -47.4963 H         1 UNK         0.1150 
    139 H139       -2.8634  -14.9336  -47.3509 H         1 UNK         0.0800 
    140 H140       -3.8016  -15.7345  -48.5792 H         1 UNK         0.0800 
    141 H141       -4.1782  -18.0858  -48.8351 H         1 UNK         0.0800 
    142 H142       -5.1837  -18.0625  -47.4173 H         1 UNK         0.0800 
    143 H143       -4.7274  -20.3302  -48.2122 H         1 UNK         0.0600 
    144 H144       -1.9841  -19.5716  -48.3344 H         1 UNK         0.3000 
    145 H145       -0.5936  -22.7938  -48.3782 H         1 UNK         0.0600 
    146 H146        0.1300  -22.3795  -50.7045 H         1 UNK         0.0600 
    147 H147       -1.5735  -22.8086  -50.6884 H         1 UNK         0.0600 
    148 H148       -1.1001  -21.1302  -50.8931 H         1 UNK         0.0600 
    149 H149        0.6093  -20.4237  -49.2275 H         1 UNK         0.3000 
    150 H150        2.1963  -19.5128  -47.8456 H         1 UNK         0.0600 
    151 H151        0.4253  -17.8728  -48.2270 H         1 UNK         0.0600 
    152 H152        1.5657  -17.1996  -47.0671 H         1 UNK         0.0600 
    153 H153        0.0096  -17.8276  -46.5217 H         1 UNK         0.0600 
    154 H154        1.7934  -18.8159  -45.0441 H         1 UNK         0.3000 
    155 H155        3.7828  -21.4053  -43.7403 H         1 UNK         0.0600 
    156 H156        4.9581  -18.6528  -44.3855 H         1 UNK         0.0600 
    157 H157        5.6897  -20.2038  -44.7737 H         1 UNK         0.0600 
    158 H158        5.4948  -19.7250  -43.0947 H         1 UNK         0.0600 
    159 H159        3.0739  -18.7461  -42.8267 H         1 UNK         0.3000 
    160 H160        0.0842  -19.2166  -41.6527 H         1 UNK         0.0600 
    161 H161        1.8389  -20.7656  -39.6582 H         1 UNK         0.0600 
    162 H162        0.3226  -21.3490  -40.3346 H         1 UNK         0.0600 
    163 H163        0.3197  -19.9613  -39.2703 H         1 UNK         0.0600 
    164 H164        2.7066  -18.1818  -41.3388 H         1 UNK         0.3000 
    165 H165        1.6833  -15.3089  -39.5214 H         1 UNK         0.0600 
    166 H166        4.1576  -17.1064  -39.7557 H         1 UNK         0.0600 
    167 H167        4.1482  -15.4304  -39.2123 H         1 UNK         0.0600 
    168 H168        3.3199  -16.6663  -38.2782 H         1 UNK         0.0600 
    169 H169        1.8756  -14.7055  -41.6115 H         1 UNK         0.3000 
    170 H170        3.4223  -14.2405  -43.6522 H         1 UNK         0.0600 
    171 H171        4.8201  -15.9869  -44.7432 H         1 UNK         0.0600 
    172 H172        3.3885  -16.9342  -45.1218 H         1 UNK         0.0600 
    173 H173        3.6247  -15.3571  -45.8651 H         1 UNK         0.0600 
    174 H174        1.2545  -14.1297  -44.1557 H         1 UNK         0.3000 
    175 H175       -1.0142  -15.5620  -45.3289 H         1 UNK         0.0600 
    176 H176       -1.5690  -16.8760  -42.6134 H         1 UNK         0.0600 
    177 H177       -2.8071  -16.3921  -43.7750 H         1 UNK         0.0600 
    178 H178       -1.6547  -17.6487  -44.1887 H         1 UNK         0.0600 
    179 H179       -1.4667  -13.6284  -44.3387 H         1 UNK         0.3000 
    180 H180       -2.2884  -12.5233  -41.6329 H         1 UNK         0.0600 
    181 H181        0.6822  -11.8516  -41.2994 H         1 UNK         0.0600 
    182 H182       -0.3948  -12.4727  -40.0560 H         1 UNK         0.0600 
    183 H183       -0.6520  -10.8642  -40.7058 H         1 UNK         0.0600 
    184 H184       -2.2668  -11.0666  -43.2800 H         1 UNK         0.3000 
    185 H185       -1.8428  -10.0048  -45.1248 H         1 UNK         0.0600 
    186 H186       -0.6170   -8.5099  -43.5358 H         1 UNK         0.0600 
    187 H187        0.8691   -8.7405  -44.4482 H         1 UNK         0.0600 
    188 H188       -0.5056   -7.9149  -45.1843 H         1 UNK         0.0600 
    189 H189        0.5243   -9.7111  -46.6779 H         1 UNK         0.3000 
    190 H190       -2.1874  -20.4822  -45.8421 H         1 UNK         0.3000 
    191 H191       -4.1341  -21.2798  -43.7090 H         1 UNK         0.0600 
    192 H192       -2.1331  -20.9708  -42.1931 H         1 UNK         0.0600 
    193 H193       -2.6727  -19.4811  -42.9491 H         1 UNK         0.0600 
    194 H194       -1.2361  -20.3035  -43.5533 H         1 UNK         0.0600 
    195 H195       -0.9499  -22.1114  -45.1837 H         1 UNK         0.3000 
    196 H196       -0.6196  -24.5277  -43.8102 H         1 UNK         0.0600 
    197 H197        0.6697  -23.5789  -46.4244 H         1 UNK         0.0600 
    198 H198        1.2249  -23.1856  -44.8011 H         1 UNK         0.0600 
    199 H199        1.2934  -24.8441  -45.3739 H         1 UNK         0.0600 
    200 H200       -2.2986  -23.9573  -46.8675 H         1 UNK         0.3000 
    201 H201       -2.8427  -26.8869  -47.1572 H         1 UNK         0.0600 
    202 H202       -2.5079  -24.8145  -49.3890 H         1 UNK         0.0600 
    203 H203       -2.8434  -26.5295  -49.5928 H         1 UNK         0.0600 
    204 H204       -1.2943  -26.0137  -48.9491 H         1 UNK         0.0600 
    205 H205       -4.2097  -24.4484  -45.7997 H         1 UNK         0.3000 
    206 H206       -6.2044  -23.5283  -45.4872 H         1 UNK         0.0600 
    207 H207       -6.6830  -25.9165  -44.8993 H         1 UNK         0.0600 
    208 H208       -8.1206  -25.0926  -45.4769 H         1 UNK         0.0600 
    209 H209       -7.2660  -26.2058  -46.5380 H         1 UNK         0.0600 
    210 H210       -5.0421  -22.9242  -48.0523 H         1 UNK         0.3000 
    211 H211       -5.3849  -21.7265  -49.8314 H         1 UNK         0.0600 
    212 H212       -7.3918  -20.4047  -50.2070 H         1 UNK         0.0600 
    213 H213       -7.1090  -20.4487  -48.4747 H         1 UNK         0.0600 
    214 H214       -8.3622  -21.4575  -49.1914 H         1 UNK         0.0600 
    215 H215       -6.1160  -24.8032  -49.7399 H         1 UNK         0.3000 
    216 H216       -7.6272  -25.1707  -52.1766 H         1 UNK         0.0600 
    217 H217       -5.7451  -27.1072  -50.7283 H         1 UNK         0.0600 
    218 H218       -6.9415  -27.5251  -51.9460 H         1 UNK         0.0600 
    219 H219       -7.4629  -26.9116  -50.3835 H         1 UNK         0.0600 
    220 H220       -4.1547  -25.0226  -51.3696 H         1 UNK         0.3000 
    221 H221       -3.3318  -25.4153  -54.1790 H         1 UNK         0.0600 
    222 H222       -2.1071  -26.5534  -52.3160 H         1 UNK         0.0600 
    223 H223       -1.6567  -24.9837  -51.6524 H         1 UNK         0.0600 
    224 H224       -1.0646  -25.4765  -53.2299 H         1 UNK         0.0600 
    225 H225       -4.2383  -22.7530  -52.2596 H         1 UNK         0.3000 
    226 H226       -2.2589  -20.8293  -52.9251 H         1 UNK         0.0600 
    227 H227       -5.1413  -20.4444  -51.9782 H         1 UNK         0.0600 
    228 H228       -3.7052  -20.5895  -50.9554 H         1 UNK         0.0600 
    229 H229       -3.9027  -19.1959  -51.9952 H         1 UNK         0.0600 
    230 H230       -4.6772  -22.0961  -54.9598 H         1 UNK         0.3000 
    231 H231       -5.0388  -19.8966  -56.7733 H         1 UNK         0.0600 
    232 H232       -5.1814  -22.9297  -57.2202 H         1 UNK         0.0600 
    233 H233       -5.7697  -21.7053  -58.3391 H         1 UNK         0.0600 
    234 H234       -6.5282  -21.8855  -56.7650 H         1 UNK         0.0600 
    235 H235       -2.4702  -22.2660  -56.2760 H         1 UNK         0.3000 
    236 H236       -0.8680  -21.1539  -58.5485 H         1 UNK         0.0600 
    237 H237       -1.1022  -23.6229  -58.5944 H         1 UNK         0.0600 
    238 H238        0.5513  -23.1733  -58.2068 H         1 UNK         0.0600 
    239 H239       -0.5255  -23.7407  -56.9341 H         1 UNK         0.0600 
    240 H240       -0.8232  -22.0553  -55.0746 H         1 UNK         0.3000 
    241 H241        0.1837  -21.3385  -53.3144 H         1 UNK         0.0600 
    242 H242        3.5134  -22.4995  -54.8197 H         1 UNK         0.3800 
    243 H243        1.8955  -22.7671  -55.4136 H         1 UNK         0.3800 
    244 H244       -0.5907  -18.9942  -54.3958 H         1 UNK         0.0800 
    245 H245        1.1186  -18.6768  -54.4273 H         1 UNK         0.0800 
    246 H246       -1.6230  -17.4002  -52.6131 H         1 UNK         0.0800 
    247 H247       -0.1128  -16.6186  -53.0275 H         1 UNK         0.0800 
@<TRIPOS>BOND
     1    1    2 1    
     2    1  127 1    
     3    1  128 1    
     4    1  129 1    
     5    2    3 2    
     6    2    4 am   BACKBONE|DICT|INTERRES
     7    4    5 1    
     8    4  130 1    
     9    5    6 1    
    10    5   65 1    
    11    5  131 1    
    12    6    7 1    
    13    6  132 1    
    14    6  133 1    
    15    7    8 1    
    16    8    9 1    
    17    8  134 1    
    18    8  135 1    
    19    9   10 ar   
    20    9   14 ar   
    21   10   11 ar   
    22   10  136 1    
    23   11   12 ar   
    24   11  126 1    
    25   12   13 ar   
    26   12  137 1    
    27   13   14 ar   
    28   13   15 1    
    29   14  138 1    
    30   15   16 1    
    31   15  139 1    
    32   15  140 1    
    33   16   17 1    
    34   17   18 1    
    35   17  141 1    
    36   17  142 1    
    37   18   19 1    
    38   18   67 1    
    39   18  143 1    
    40   19   20 am   BACKBONE|DICT|INTERRES
    41   19  144 1    
    42   20   21 2    
    43   20   22 1    
    44   22   23 1    
    45   22   24 1    
    46   22  145 1    
    47   23  146 1    
    48   23  147 1    
    49   23  148 1    
    50   24   25 am   BACKBONE|DICT|INTERRES
    51   24  149 1    
    52   25   26 2    
    53   25   27 1    
    54   27   28 1    
    55   27   29 1    
    56   27  150 1    
    57   28  151 1    
    58   28  152 1    
    59   28  153 1    
    60   29   30 am   BACKBONE|DICT|INTERRES
    61   29  154 1    
    62   30   31 2    
    63   30   32 1    
    64   32   33 1    
    65   32   34 1    
    66   32  155 1    
    67   33  156 1    
    68   33  157 1    
    69   33  158 1    
    70   34   35 am   BACKBONE|DICT|INTERRES
    71   34  159 1    
    72   35   36 2    
    73   35   37 1    
    74   37   38 1    
    75   37   39 1    
    76   37  160 1    
    77   38  161 1    
    78   38  162 1    
    79   38  163 1    
    80   39   40 am   BACKBONE|DICT|INTERRES
    81   39  164 1    
    82   40   41 2    
    83   40   42 1    
    84   42   43 1    
    85   42   44 1    
    86   42  165 1    
    87   43  166 1    
    88   43  167 1    
    89   43  168 1    
    90   44   45 am   BACKBONE|DICT|INTERRES
    91   44  169 1    
    92   45   46 2    
    93   45   47 1    
    94   47   48 1    
    95   47   49 1    
    96   47  170 1    
    97   48  171 1    
    98   48  172 1    
    99   48  173 1    
   100   49   50 am   BACKBONE|DICT|INTERRES
   101   49  174 1    
   102   50   51 2    
   103   50   52 1    
   104   52   53 1    
   105   52   54 1    
   106   52  175 1    
   107   53  176 1    
   108   53  177 1    
   109   53  178 1    
   110   54   55 am   BACKBONE|DICT|INTERRES
   111   54  179 1    
   112   55   56 2    
   113   55   57 1    
   114   57   58 1    
   115   57   59 1    
   116   57  180 1    
   117   58  181 1    
   118   58  182 1    
   119   58  183 1    
   120   59   60 am   BACKBONE|DICT|INTERRES
   121   59  184 1    
   122   60   61 2    
   123   60   62 1    
   124   62   63 1    
   125   62   64 1    
   126   62  185 1    
   127   63  186 1    
   128   63  187 1    
   129   63  188 1    
   130   64   65 am   BACKBONE|DICT|INTERRES
   131   64  189 1    
   132   65   66 2    
   133   67   68 2    
   134   67   69 am   BACKBONE|DICT|INTERRES
   135   69   70 1    
   136   69  190 1    
   137   70   71 1    
   138   70   72 1    
   139   70  191 1    
   140   71  192 1    
   141   71  193 1    
   142   71  194 1    
   143   72   73 2    
   144   72   74 am   BACKBONE|DICT|INTERRES
   145   74   75 1    
   146   74  195 1    
   147   75   76 1    
   148   75   77 1    
   149   75  196 1    
   150   76  197 1    
   151   76  198 1    
   152   76  199 1    
   153   77   78 2    
   154   77   79 am   BACKBONE|DICT|INTERRES
   155   79   80 1    
   156   79  200 1    
   157   80   81 1    
   158   80   82 1    
   159   80  201 1    
   160   81  202 1    
   161   81  203 1    
   162   81  204 1    
   163   82   83 2    
   164   82   84 am   BACKBONE|DICT|INTERRES
   165   84   85 1    
   166   84  205 1    
   167   85   86 1    
   168   85   87 1    
   169   85  206 1    
   170   86  207 1    
   171   86  208 1    
   172   86  209 1    
   173   87   88 2    
   174   87   89 am   BACKBONE|DICT|INTERRES
   175   89   90 1    
   176   89  210 1    
   177   90   91 1    
   178   90   92 1    
   179   90  211 1    
   180   91  212 1    
   181   91  213 1    
   182   91  214 1    
   183   92   93 2    
   184   92   94 am   BACKBONE|DICT|INTERRES
   185   94   95 1    
   186   94  215 1    
   187   95   96 1    
   188   95   97 1    
   189   95  216 1    
   190   96  217 1    
   191   96  218 1    
   192   96  219 1    
   193   97   98 2    
   194   97   99 am   BACKBONE|DICT|INTERRES
   195   99  100 1    
   196   99  220 1    
   197  100  101 1    
   198  100  102 1    
   199  100  221 1    
   200  101  222 1    
   201  101  223 1    
   202  101  224 1    
   203  102  103 2    
   204  102  104 am   BACKBONE|DICT|INTERRES
   205  104  105 1    
   206  104  225 1    
   207  105  106 1    
   208  105  107 1    
   209  105  226 1    
   210  106  227 1    
   211  106  228 1    
   212  106  229 1    
   213  107  108 2    
   214  107  109 am   BACKBONE|DICT|INTERRES
   215  109  110 1    
   216  109  230 1    
   217  110  111 1    
   218  110  112 1    
   219  110  231 1    
   220  111  232 1    
   221  111  233 1    
   222  111  234 1    
   223  112  113 2    
   224  112  114 am   BACKBONE|DICT|INTERRES
   225  114  115 1    
   226  114  235 1    
   227  115  116 1    
   228  115  117 1    
   229  115  236 1    
   230  116  237 1    
   231  116  238 1    
   232  116  239 1    
   233  117  118 2    
   234  117  119 am   BACKBONE|DICT|INTERRES
   235  119  120 1    
   236  119  240 1    
   237  120  121 1    
   238  120  124 1    
   239  120  241 1    
   240  121  122 am   BACKBONE|DICT|INTERRES
   241  121  123 2    
   242  122  242 1    
   243  122  243 1    
   244  124  125 1    
   245  124  244 1    
   246  124  245 1    
   247  125  126 1    
   248  126  246 1    
   249  126  247 1    
@<TRIPOS>SUBSTRUCTURE
     1 UNK         1 GROUP             0       ****    0 ROOT    
