@<TRIPOS>MOLECULE
3R540
247   249    1
SMALL
USER_CHARGES


@<TRIPOS>ATOM
      1 CA          0.4945  -10.5690  -42.7728 C.3       0 UNK        -0.1800 
      2 C           1.1357  -11.7064  -43.5545 C.2       0 UNK         0.5000 
      3 O           1.3654  -12.7753  -42.9916 O.2       0 UNK        -0.5000 
      4 N           1.4216  -11.4735  -44.8438 N.am      1 UNK        -0.5000 
      5 CA          2.0036  -12.4300  -45.8021 C.3       1 UNK         0.1400 
      6 C6          1.0592  -13.6127  -46.1590 C.3       23 UNK        -0.0398 
      7 S7         -0.5805  -13.0359  -46.7227 S.3       23 UNK        -0.2404 
      8 C8         -0.3388  -12.9117  -48.5223 C.3       23 UNK        -0.0205 
      9 C9         -0.8099  -14.1658  -49.2405 C.ar      23 UNK        -0.0193 
     10 C10        -2.1410  -14.2729  -49.6557 C.ar      23 UNK        -0.1150 
     11 C11        -2.5901  -15.4166  -50.3223 C.ar      23 UNK        -0.0193 
     12 C12        -1.6927  -16.4584  -50.5695 C.ar      23 UNK        -0.1150 
     13 C13        -0.3630  -16.3707  -50.1482 C.ar      23 UNK        -0.0193 
     14 C14         0.0776  -15.2145  -49.4968 C.ar      23 UNK        -0.1150 
     15 C15         0.5793  -17.5473  -50.3661 C.3       23 UNK        -0.0205 
     16 S16         1.2034  -18.2417  -48.7997 S.3       23 UNK        -0.2404 
     17 C17        -0.3247  -18.4504  -47.8253 C.3       23 UNK        -0.0398 
     18 CA         -0.4740  -19.8755  -47.2402 C.3       11 UNK         0.1400 
     19 N          -1.0509  -19.8389  -45.8955 N.am      11 UNK        -0.5000 
     20 C          -1.1543  -20.8873  -45.0695 C.2       10 UNK         0.5000 
     21 O          -0.7300  -22.0107  -45.3302 O.2       10 UNK        -0.5000 
     22 CA         -1.8904  -20.6470  -43.7422 C.3       10 UNK         0.1400 
     23 CB         -0.9140  -20.1414  -42.6735 C.3       10 UNK        -0.1800 
     24 N          -2.9974  -19.7023  -43.8974 N.am      10 UNK        -0.5000 
     25 C          -4.1268  -19.9844  -44.5640 C.2       9 UNK         0.5000 
     26 O          -4.3651  -21.0827  -45.0664 O.2       9 UNK        -0.5000 
     27 CA         -5.1357  -18.8353  -44.7412 C.3       9 UNK         0.1400 
     28 CB         -6.0093  -18.6796  -43.4878 C.3       9 UNK        -0.1800 
     29 N          -4.4974  -17.5548  -45.0508 N.am      9 UNK        -0.5000 
     30 C          -3.7826  -17.3138  -46.1588 C.2       8 UNK         0.5000 
     31 O          -3.5544  -18.1595  -47.0228 O.2       8 UNK        -0.5000 
     32 CA         -3.1817  -15.9038  -46.2959 C.3       8 UNK         0.1400 
     33 CB         -4.2342  -14.9106  -46.8122 C.3       8 UNK        -0.1800 
     34 N          -2.6275  -15.3660  -45.0532 N.am      8 UNK        -0.5000 
     35 C          -1.6745  -15.9219  -44.2952 C.2       7 UNK         0.5000 
     36 O          -1.1925  -17.0384  -44.5063 O.2       7 UNK        -0.5000 
     37 CA         -1.1768  -15.0342  -43.1363 C.3       7 UNK         0.1400 
     38 CB         -2.3079  -14.6585  -42.1542 C.3       7 UNK        -0.1800 
     39 N          -0.0096  -15.5868  -42.4434 N.am      7 UNK        -0.5000 
     40 C           0.0396  -16.6201  -41.5936 C.2       6 UNK         0.5000 
     41 O          -0.9507  -17.2272  -41.1825 O.2       6 UNK        -0.5000 
     42 CA          1.4531  -17.0615  -41.1556 C.3       6 UNK         0.1400 
     43 CB          1.4262  -18.0103  -39.9435 C.3       6 UNK        -0.1800 
     44 N           2.1548  -17.7283  -42.2537 N.am      6 UNK        -0.5000 
     45 C           2.7157  -17.1076  -43.2985 C.2       5 UNK         0.5000 
     46 O           2.7892  -15.8820  -43.3972 O.2       5 UNK        -0.5000 
     47 CA          3.2499  -18.0086  -44.4231 C.3       5 UNK         0.1400 
     48 CB          2.0951  -18.8160  -45.0475 C.3       5 UNK        -0.1800 
     49 N           3.9167  -17.1931  -45.4394 N.am      5 UNK        -0.5000 
     50 C           4.6496  -17.6655  -46.4581 C.2       4 UNK         0.5000 
     51 O           4.8704  -18.8624  -46.6471 O.2       4 UNK        -0.5000 
     52 CA          5.2862  -16.6309  -47.3993 C.3       4 UNK         0.1400 
     53 CB          4.2303  -15.9043  -48.2501 C.3       4 UNK        -0.1800 
     54 N           6.0716  -15.6704  -46.6245 N.am      4 UNK        -0.5000 
     55 C           7.3803  -15.8137  -46.3643 C.2       3 UNK         0.5000 
     56 O           8.0622  -16.7247  -46.8373 O.2       3 UNK        -0.5000 
     57 CA          8.0612  -14.8249  -45.3922 C.3       3 UNK         0.1400 
     58 CB          9.2408  -14.0840  -46.0561 C.3       3 UNK        -0.1800 
     59 N           7.1498  -13.8981  -44.7109 N.am      3 UNK        -0.5000 
     60 C           6.4976  -12.8459  -45.2202 C.2       2 UNK         0.5000 
     61 O           6.6048  -12.4449  -46.3810 O.2       2 UNK        -0.5000 
     62 CA          5.5284  -12.1416  -44.2535 C.3       2 UNK         0.1400 
     63 CB          6.0915  -10.7816  -43.8135 C.3       2 UNK        -0.1800 
     64 N           4.1926  -11.9478  -44.8174 N.am      2 UNK        -0.5000 
     65 C           3.4178  -12.8906  -45.3773 C.2       1 UNK         0.5000 
     66 O           3.7729  -14.0589  -45.5479 O.2       1 UNK        -0.5000 
     67 C          -1.2797  -20.8001  -48.1756 C.2       11 UNK         0.5000 
     68 O          -0.7024  -21.6702  -48.8282 O.2       11 UNK        -0.5000 
     69 N          -2.6095  -20.6320  -48.1721 N.am      12 UNK        -0.5000 
     70 CA         -3.5567  -21.4750  -48.8985 C.3       12 UNK         0.1400 
     71 CB         -4.9588  -20.8636  -48.8010 C.3       12 UNK        -0.1800 
     72 C          -3.5632  -22.9319  -48.4031 C.2       12 UNK         0.5000 
     73 O          -3.6325  -23.8441  -49.2268 O.2       12 UNK        -0.5000 
     74 N          -3.4599  -23.1282  -47.0799 N.am      13 UNK        -0.5000 
     75 CA         -3.3546  -24.4432  -46.4453 C.3       13 UNK         0.1400 
     76 CB         -3.5142  -24.3091  -44.9242 C.3       13 UNK        -0.1800 
     77 C          -2.0436  -25.1687  -46.7973 C.2       13 UNK         0.5000 
     78 O          -2.0808  -26.3601  -47.1026 O.2       13 UNK        -0.5000 
     79 N          -0.9186  -24.4388  -46.8020 N.am      14 UNK        -0.5000 
     80 CA          0.3969  -24.9314  -47.2230 C.3       14 UNK         0.1400 
     81 CB          1.4695  -23.8799  -46.9006 C.3       14 UNK        -0.1800 
     82 C           0.4390  -25.3156  -48.7144 C.2       14 UNK         0.5000 
     83 O           1.0868  -26.2991  -49.0734 O.2       14 UNK        -0.5000 
     84 N          -0.2954  -24.5636  -49.5445 N.am      15 UNK        -0.5000 
     85 CA         -0.5338  -24.8540  -50.9589 C.3       15 UNK         0.1400 
     86 CB         -0.9536  -23.5531  -51.6621 C.3       15 UNK        -0.1800 
     87 C          -1.5885  -25.9577  -51.1933 C.2       15 UNK         0.5000 
     88 O          -1.8343  -26.3083  -52.3475 O.2       15 UNK        -0.5000 
     89 N          -2.2278  -26.4551  -50.1215 N.am      16 UNK        -0.5000 
     90 CA         -3.2998  -27.4598  -50.0949 C.3       16 UNK         0.1400 
     91 CB         -2.7422  -28.8419  -50.4923 C.3       16 UNK        -0.1800 
     92 C          -4.5414  -27.0607  -50.9233 C.2       16 UNK         0.5000 
     93 O          -5.2506  -27.9322  -51.4286 O.2       16 UNK        -0.5000 
     94 N          -4.7503  -25.7445  -51.0812 N.am      17 UNK        -0.5000 
     95 CA         -5.7211  -25.0809  -51.9568 C.3       17 UNK         0.1400 
     96 CB         -7.1595  -25.3177  -51.4550 C.3       17 UNK        -0.1800 
     97 C          -5.5560  -25.4029  -53.4621 C.2       17 UNK         0.5000 
     98 O          -6.4599  -25.1032  -54.2434 O.2       17 UNK        -0.5000 
     99 N          -4.4094  -25.9755  -53.8628 N.am      18 UNK        -0.5000 
    100 CA        -4.0654  -26.2511  -55.2611 C.3       18 UNK         0.1400 
    101 CB        -3.0010  -27.3574  -55.3163 C.3       18 UNK        -0.1800 
    102 C         -3.5757  -24.9862  -55.9908 C.2       18 UNK         0.5000 
    103 O         -3.6506  -24.9207  -57.2185 O.2       18 UNK        -0.5000 
    104 N         -3.1109  -24.0011  -55.2169 N.am      19 UNK        -0.5000 
    105 CA        -2.8049  -22.6437  -55.6370 C.3       19 UNK         0.1400 
    106 CB        -1.2836  -22.4768  -55.7779 C.3       19 UNK        -0.1800 
    107 C         -3.3748  -21.6957  -54.5732 C.2       19 UNK         0.5000 
    108 O         -3.5294  -22.0963  -53.4141 O.2       19 UNK        -0.5000 
    109 N         -3.6738  -20.4606  -54.9934 N.am      20 UNK        -0.5000 
    110 CA        -4.2665  -19.3584  -54.2285 C.3       20 UNK         0.1400 
    111 CB        -3.3597  -18.9221  -53.0602 C.3       20 UNK        -0.1800 
    112 C         -5.7090  -19.6374  -53.7637 C.2       20 UNK         0.5000 
    113 O         -6.6314  -18.9753  -54.2396 O.2       20 UNK        -0.5000 
    114 N         -5.8685  -20.6003  -52.8429 N.am      21 UNK        -0.5000 
    115 CA        -7.1194  -21.0440  -52.2085 C.3       21 UNK         0.1400 
    116 CB        -8.0151  -21.7635  -53.2370 C.3       21 UNK        -0.1800 
    117 C         -7.8698  -19.9268  -51.4435 C.2       21 UNK         0.5000 
    118 O         -9.0884  -20.0026  -51.2750 O.2       21 UNK        -0.5000 
    119 N         -7.1268  -18.9031  -51.0103 N.am      22 UNK        -0.5000 
    120 CA        -7.6107  -17.7279  -50.2777 C.3       22 UNK         0.1400 
    121 C         -7.9693  -18.0080  -48.7879 C.2       22 UNK         0.5000 
    122 N         -8.6582  -17.0839  -48.1306 N.am      22 UNK        -0.7600 
    123 O         -7.6358  -19.0421  -48.2148 O.2       22 UNK        -0.5000 
    124 C124       -6.6333  -16.5343  -50.4499 C.3       23 UNK        -0.0398 
    125 S125       -4.9072  -16.9086  -49.9868 S.3       23 UNK        -0.2404 
    126 C126       -4.0377  -15.5218  -50.7831 C.3       23 UNK        -0.0205 
    127 H127       -0.4718  -10.8845  -42.3794 H         1 UNK         0.0600 
    128 H128        0.3373   -9.6867  -43.3938 H         1 UNK         0.0600 
    129 H129        1.1299  -10.2863  -41.9335 H         1 UNK         0.0600 
    130 H130        1.1949  -10.5688  -45.2323 H         1 UNK         0.3000 
    131 H131        2.1594  -11.8630  -46.7210 H         1 UNK         0.0600 
    132 H132        0.9222  -14.2642  -45.2953 H         1 UNK         0.0800 
    133 H133        1.4972  -14.2395  -46.9359 H         1 UNK         0.0800 
    134 H134       -0.8995  -12.0503  -48.8882 H         1 UNK         0.0800 
    135 H135        0.7075  -12.7071  -48.7537 H         1 UNK         0.0800 
    136 H136       -2.8278  -13.4623  -49.4564 H         1 UNK         0.1150 
    137 H137       -2.0395  -17.3509  -51.0687 H         1 UNK         0.1150 
    138 H138        1.1058  -15.1447  -49.1712 H         1 UNK         0.1150 
    139 H139        0.0848  -18.3424  -50.9265 H         1 UNK         0.0800 
    140 H140        1.4253  -17.2218  -50.9727 H         1 UNK         0.0800 
    141 H141       -1.2046  -18.1722  -48.4058 H         1 UNK         0.0800 
    142 H142       -0.2754  -17.7071  -47.0291 H         1 UNK         0.0800 
    143 H143        0.5180  -20.3183  -47.1305 H         1 UNK         0.0600 
    144 H144       -1.4098  -18.9458  -45.5796 H         1 UNK         0.3000 
    145 H145       -2.2988  -21.6004  -43.4021 H         1 UNK         0.0600 
    146 H146       -0.1159  -20.8643  -42.5003 H         1 UNK         0.0600 
    147 H147       -0.4472  -19.2046  -42.9754 H         1 UNK         0.0600 
    148 H148       -1.4177  -19.9764  -41.7210 H         1 UNK         0.0600 
    149 H149       -2.8466  -18.7630  -43.5567 H         1 UNK         0.3000 
    150 H150       -5.7853  -19.0937  -45.5808 H         1 UNK         0.0600 
    151 H151       -6.7851  -17.9288  -43.6389 H         1 UNK         0.0600 
    152 H152       -5.4200  -18.3848  -42.6186 H         1 UNK         0.0600 
    153 H153       -6.5098  -19.6174  -43.2430 H         1 UNK         0.0600 
    154 H154       -4.6164  -16.8086  -44.3821 H         1 UNK         0.3000 
    155 H155       -2.3708  -15.9591  -47.0256 H         1 UNK         0.0600 
    156 H156       -4.6951  -15.2616  -47.7326 H         1 UNK         0.0600 
    157 H157       -3.7863  -13.9404  -47.0277 H         1 UNK         0.0600 
    158 H158       -5.0351  -14.7579  -46.0880 H         1 UNK         0.0600 
    159 H159       -2.9469  -14.4410  -44.8067 H         1 UNK         0.3000 
    160 H160       -0.8290  -14.1090  -43.5944 H         1 UNK         0.0600 
    161 H161       -3.0560  -14.0286  -42.6358 H         1 UNK         0.0600 
    162 H162       -1.9205  -14.0983  -41.3031 H         1 UNK         0.0600 
    163 H163       -2.8268  -15.5374  -41.7707 H         1 UNK         0.0600 
    164 H164        0.8804  -15.2006  -42.7446 H         1 UNK         0.3000 
    165 H165        2.0076  -16.1663  -40.8656 H         1 UNK         0.0600 
    166 H166        2.4356  -18.2572  -39.6141 H         1 UNK         0.0600 
    167 H167        0.9134  -17.5488  -39.0987 H         1 UNK         0.0600 
    168 H168        0.9102  -18.9441  -40.1713 H         1 UNK         0.0600 
    169 H169        2.1162  -18.7366  -42.2516 H         1 UNK         0.3000 
    170 H170        3.9840  -18.6916  -43.9916 H         1 UNK         0.0600 
    171 H171        2.4254  -19.4318  -45.8828 H         1 UNK         0.0600 
    172 H172        1.6433  -19.4922  -44.3223 H         1 UNK         0.0600 
    173 H173        1.3114  -18.1517  -45.4089 H         1 UNK         0.0600 
    174 H174        3.8000  -16.1898  -45.3159 H         1 UNK         0.3000 
    175 H175        5.9388  -17.1637  -48.0942 H         1 UNK         0.0600 
    176 H176        3.4293  -15.4806  -47.6472 H         1 UNK         0.0600 
    177 H177        4.6765  -15.0976  -48.8316 H         1 UNK         0.0600 
    178 H178        3.7681  -16.5948  -48.9559 H         1 UNK         0.0600 
    179 H179        5.5530  -14.9167  -46.1872 H         1 UNK         0.3000 
    180 H180        8.4818  -15.4432  -44.5977 H         1 UNK         0.0600 
    181 H181        9.7222  -13.3994  -45.3578 H         1 UNK         0.0600 
    182 H182        8.9257  -13.5109  -46.9283 H         1 UNK         0.0600 
    183 H183       10.0013  -14.7891  -46.3936 H         1 UNK         0.0600 
    184 H184        6.9593  -14.1391  -43.7478 H         1 UNK         0.3000 
    185 H185        5.4061  -12.7629  -43.3638 H         1 UNK         0.0600 
    186 H186        6.1875  -10.0954  -44.6562 H         1 UNK         0.0600 
    187 H187        5.4516  -10.3106  -43.0671 H         1 UNK         0.0600 
    188 H188        7.0807  -10.8940  -43.3676 H         1 UNK         0.0600 
    189 H189        3.8072  -11.0194  -44.7315 H         1 UNK         0.3000 
    190 H190       -3.0028  -19.8615  -47.6354 H         1 UNK         0.3000 
    191 H191       -3.2609  -21.4821  -49.9497 H         1 UNK         0.0600 
    192 H192       -5.2898  -20.7778  -47.7653 H         1 UNK         0.0600 
    193 H193       -5.6927  -21.4712  -49.3302 H         1 UNK         0.0600 
    194 H194       -4.9819  -19.8657  -49.2372 H         1 UNK         0.0600 
    195 H195       -3.4726  -22.3237  -46.4624 H         1 UNK         0.3000 
    196 H196       -4.1799  -25.0552  -46.8155 H         1 UNK         0.0600 
    197 H197       -3.4831  -25.2868  -44.4419 H         1 UNK         0.0600 
    198 H198       -4.4685  -23.8499  -44.6662 H         1 UNK         0.0600 
    199 H199       -2.7208  -23.7039  -44.4872 H         1 UNK         0.0600 
    200 H200       -0.9556  -23.4760  -46.4753 H         1 UNK         0.3000 
    201 H201        0.6172  -25.8303  -46.6438 H         1 UNK         0.0600 
    202 H202        1.5042  -23.6680  -45.8318 H         1 UNK         0.0600 
    203 H203        1.2825  -22.9402  -47.4209 H         1 UNK         0.0600 
    204 H204        2.4602  -24.2280  -47.1953 H         1 UNK         0.0600 
    205 H205       -0.7403  -23.7300  -49.1745 H         1 UNK         0.3000 
    206 H206        0.3997  -25.1976  -51.4086 H         1 UNK         0.0600 
    207 H207       -1.0959  -23.7138  -52.7306 H         1 UNK         0.0600 
    208 H208       -1.8909  -23.1638  -51.2643 H         1 UNK         0.0600 
    209 H209       -0.1955  -22.7781  -51.5482 H         1 UNK         0.0600 
    210 H210       -1.9754  -26.0872  -49.2126 H         1 UNK         0.3000 
    211 H211       -3.6365  -27.5220  -49.0596 H         1 UNK         0.0600 
    212 H212       -2.4439  -28.8707  -51.5409 H         1 UNK         0.0600 
    213 H213       -3.4866  -29.6245  -50.3417 H         1 UNK         0.0600 
    214 H214       -1.8730  -29.1032  -49.8887 H         1 UNK         0.0600 
    215 H215       -4.1434  -25.1148  -50.5602 H         1 UNK         0.3000 
    216 H216       -5.5144  -24.0138  -51.8638 H         1 UNK         0.0600 
    217 H217       -7.8748  -24.7092  -52.0093 H         1 UNK         0.0600 
    218 H218       -7.2575  -25.0511  -50.4027 H         1 UNK         0.0600 
    219 H219       -7.4608  -26.3594  -51.5678 H         1 UNK         0.0600 
    220 H220       -3.6911  -26.1832  -53.1760 H         1 UNK         0.3000 
    221 H221       -4.9563  -26.6131  -55.7785 H         1 UNK         0.0600 
    222 H222       -2.0552  -27.0308  -54.8834 H         1 UNK         0.0600 
    223 H223       -3.3272  -28.2480  -54.7788 H         1 UNK         0.0600 
    224 H224       -2.8019  -27.6527  -56.3472 H         1 UNK         0.0600 
    225 H225       -3.1446  -24.1233  -54.2131 H         1 UNK         0.3000 
    226 H226       -3.2878  -22.4271  -56.5923 H         1 UNK         0.0600 
    227 H227       -0.8784  -23.1743  -56.5113 H         1 UNK         0.0600 
    228 H228       -1.0302  -21.4700  -56.1118 H         1 UNK         0.0600 
    229 H229       -0.7676  -22.6482  -54.8331 H         1 UNK         0.0600 
    230 H230       -3.5203  -20.2524  -55.9704 H         1 UNK         0.3000 
    231 H231       -4.3204  -18.5159  -54.9201 H         1 UNK         0.0600 
    232 H232       -3.2373  -19.7008  -52.3071 H         1 UNK         0.0600 
    233 H233       -2.3674  -18.6447  -53.4158 H         1 UNK         0.0600 
    234 H234       -3.7797  -18.0501  -52.5605 H         1 UNK         0.0600 
    235 H235       -5.0347  -21.1281  -52.6022 H         1 UNK         0.3000 
    236 H236       -6.8323  -21.7804  -51.4575 H         1 UNK         0.0600 
    237 H237       -8.4049  -21.0734  -53.9857 H         1 UNK         0.0600 
    238 H238       -7.4652  -22.5469  -53.7582 H         1 UNK         0.0600 
    239 H239       -8.8690  -22.2373  -52.7514 H         1 UNK         0.0600 
    240 H240       -6.1303  -18.9354  -51.1621 H         1 UNK         0.3000 
    241 H241       -8.5504  -17.4362  -50.7509 H         1 UNK         0.0600 
    242 H242       -8.8982  -17.2534  -47.1665 H         1 UNK         0.3800 
    243 H243       -8.9623  -16.2299  -48.5714 H         1 UNK         0.3800 
    244 H244       -6.6412  -16.2229  -51.4955 H         1 UNK         0.0800 
    245 H245       -6.9686  -15.6648  -49.8825 H         1 UNK         0.0800 
    246 H246       -4.0636  -15.6492  -51.8660 H         1 UNK         0.0800 
    247 H247       -4.5731  -14.5962  -50.5659 H         1 UNK         0.0800 
@<TRIPOS>BOND
     1    1    2 1    
     2    1  127 1    
     3    1  128 1    
     4    1  129 1    
     5    2    3 2    
     6    2    4 am   BACKBONE|DICT|INTERRES
     7    4    5 1    
     8    4  130 1    
     9    5    6 1    
    10    5   65 1    
    11    5  131 1    
    12    6    7 1    
    13    6  132 1    
    14    6  133 1    
    15    7    8 1    
    16    8    9 1    
    17    8  134 1    
    18    8  135 1    
    19    9   10 ar   
    20    9   14 ar   
    21   10   11 ar   
    22   10  136 1    
    23   11   12 ar   
    24   11  126 1    
    25   12   13 ar   
    26   12  137 1    
    27   13   14 ar   
    28   13   15 1    
    29   14  138 1    
    30   15   16 1    
    31   15  139 1    
    32   15  140 1    
    33   16   17 1    
    34   17   18 1    
    35   17  141 1    
    36   17  142 1    
    37   18   19 1    
    38   18   67 1    
    39   18  143 1    
    40   19   20 am   BACKBONE|DICT|INTERRES
    41   19  144 1    
    42   20   21 2    
    43   20   22 1    
    44   22   23 1    
    45   22   24 1    
    46   22  145 1    
    47   23  146 1    
    48   23  147 1    
    49   23  148 1    
    50   24   25 am   BACKBONE|DICT|INTERRES
    51   24  149 1    
    52   25   26 2    
    53   25   27 1    
    54   27   28 1    
    55   27   29 1    
    56   27  150 1    
    57   28  151 1    
    58   28  152 1    
    59   28  153 1    
    60   29   30 am   BACKBONE|DICT|INTERRES
    61   29  154 1    
    62   30   31 2    
    63   30   32 1    
    64   32   33 1    
    65   32   34 1    
    66   32  155 1    
    67   33  156 1    
    68   33  157 1    
    69   33  158 1    
    70   34   35 am   BACKBONE|DICT|INTERRES
    71   34  159 1    
    72   35   36 2    
    73   35   37 1    
    74   37   38 1    
    75   37   39 1    
    76   37  160 1    
    77   38  161 1    
    78   38  162 1    
    79   38  163 1    
    80   39   40 am   BACKBONE|DICT|INTERRES
    81   39  164 1    
    82   40   41 2    
    83   40   42 1    
    84   42   43 1    
    85   42   44 1    
    86   42  165 1    
    87   43  166 1    
    88   43  167 1    
    89   43  168 1    
    90   44   45 am   BACKBONE|DICT|INTERRES
    91   44  169 1    
    92   45   46 2    
    93   45   47 1    
    94   47   48 1    
    95   47   49 1    
    96   47  170 1    
    97   48  171 1    
    98   48  172 1    
    99   48  173 1    
   100   49   50 am   BACKBONE|DICT|INTERRES
   101   49  174 1    
   102   50   51 2    
   103   50   52 1    
   104   52   53 1    
   105   52   54 1    
   106   52  175 1    
   107   53  176 1    
   108   53  177 1    
   109   53  178 1    
   110   54   55 am   BACKBONE|DICT|INTERRES
   111   54  179 1    
   112   55   56 2    
   113   55   57 1    
   114   57   58 1    
   115   57   59 1    
   116   57  180 1    
   117   58  181 1    
   118   58  182 1    
   119   58  183 1    
   120   59   60 am   BACKBONE|DICT|INTERRES
   121   59  184 1    
   122   60   61 2    
   123   60   62 1    
   124   62   63 1    
   125   62   64 1    
   126   62  185 1    
   127   63  186 1    
   128   63  187 1    
   129   63  188 1    
   130   64   65 am   BACKBONE|DICT|INTERRES
   131   64  189 1    
   132   65   66 2    
   133   67   68 2    
   134   67   69 am   BACKBONE|DICT|INTERRES
   135   69   70 1    
   136   69  190 1    
   137   70   71 1    
   138   70   72 1    
   139   70  191 1    
   140   71  192 1    
   141   71  193 1    
   142   71  194 1    
   143   72   73 2    
   144   72   74 am   BACKBONE|DICT|INTERRES
   145   74   75 1    
   146   74  195 1    
   147   75   76 1    
   148   75   77 1    
   149   75  196 1    
   150   76  197 1    
   151   76  198 1    
   152   76  199 1    
   153   77   78 2    
   154   77   79 am   BACKBONE|DICT|INTERRES
   155   79   80 1    
   156   79  200 1    
   157   80   81 1    
   158   80   82 1    
   159   80  201 1    
   160   81  202 1    
   161   81  203 1    
   162   81  204 1    
   163   82   83 2    
   164   82   84 am   BACKBONE|DICT|INTERRES
   165   84   85 1    
   166   84  205 1    
   167   85   86 1    
   168   85   87 1    
   169   85  206 1    
   170   86  207 1    
   171   86  208 1    
   172   86  209 1    
   173   87   88 2    
   174   87   89 am   BACKBONE|DICT|INTERRES
   175   89   90 1    
   176   89  210 1    
   177   90   91 1    
   178   90   92 1    
   179   90  211 1    
   180   91  212 1    
   181   91  213 1    
   182   91  214 1    
   183   92   93 2    
   184   92   94 am   BACKBONE|DICT|INTERRES
   185   94   95 1    
   186   94  215 1    
   187   95   96 1    
   188   95   97 1    
   189   95  216 1    
   190   96  217 1    
   191   96  218 1    
   192   96  219 1    
   193   97   98 2    
   194   97   99 am   BACKBONE|DICT|INTERRES
   195   99  100 1    
   196   99  220 1    
   197  100  101 1    
   198  100  102 1    
   199  100  221 1    
   200  101  222 1    
   201  101  223 1    
   202  101  224 1    
   203  102  103 2    
   204  102  104 am   BACKBONE|DICT|INTERRES
   205  104  105 1    
   206  104  225 1    
   207  105  106 1    
   208  105  107 1    
   209  105  226 1    
   210  106  227 1    
   211  106  228 1    
   212  106  229 1    
   213  107  108 2    
   214  107  109 am   BACKBONE|DICT|INTERRES
   215  109  110 1    
   216  109  230 1    
   217  110  111 1    
   218  110  112 1    
   219  110  231 1    
   220  111  232 1    
   221  111  233 1    
   222  111  234 1    
   223  112  113 2    
   224  112  114 am   BACKBONE|DICT|INTERRES
   225  114  115 1    
   226  114  235 1    
   227  115  116 1    
   228  115  117 1    
   229  115  236 1    
   230  116  237 1    
   231  116  238 1    
   232  116  239 1    
   233  117  118 2    
   234  117  119 am   BACKBONE|DICT|INTERRES
   235  119  120 1    
   236  119  240 1    
   237  120  121 1    
   238  120  124 1    
   239  120  241 1    
   240  121  122 am   BACKBONE|DICT|INTERRES
   241  121  123 2    
   242  122  242 1    
   243  122  243 1    
   244  124  125 1    
   245  124  244 1    
   246  124  245 1    
   247  125  126 1    
   248  126  246 1    
   249  126  247 1    
@<TRIPOS>SUBSTRUCTURE
     1 UNK         1 GROUP             0       ****    0 ROOT    
