@<TRIPOS>MOLECULE
3R540
247   249    1
SMALL
USER_CHARGES


@<TRIPOS>ATOM
      1 CA          7.0098  -15.9903  -44.2958 C.3       0 UNK        -0.1800 
      2 C           5.8379  -15.0612  -44.5757 C.2       0 UNK         0.5000 
      3 O           4.9149  -14.9828  -43.7674 O.2       0 UNK        -0.5000 
      4 N           5.8695  -14.3600  -45.7154 N.am      1 UNK        -0.5000 
      5 CA          4.8241  -13.4441  -46.1825 C.3       1 UNK         0.1400 
      6 C6          4.8935  -13.2204  -47.7171 C.3       23 UNK        -0.0398 
      7 S7          4.6899  -14.7494  -48.6921 S.3       23 UNK        -0.2404 
      8 C8          2.8726  -14.8435  -48.8045 C.3       23 UNK        -0.0205 
      9 C9          2.3745  -15.9277  -49.7517 C.ar      23 UNK        -0.0193 
     10 C10         1.3504  -15.6424  -50.6618 C.ar      23 UNK        -0.1150 
     11 C11         0.8568  -16.6369  -51.5116 C.ar      23 UNK        -0.0193 
     12 C12         1.3918  -17.9251  -51.4468 C.ar      23 UNK        -0.1150 
     13 C13         2.4107  -18.2250  -50.5406 C.ar      23 UNK        -0.0193 
     14 C14         2.8971  -17.2238  -49.6967 C.ar      23 UNK        -0.1150 
     15 C15         2.9740  -19.6354  -50.4648 C.3       23 UNK        -0.0205 
     16 S16         2.5696  -20.4457  -48.8874 S.3       23 UNK        -0.2404 
     17 C17         0.7515  -20.2872  -48.8503 C.3       23 UNK        -0.0398 
     18 CA          0.1029  -21.3014  -47.8841 C.3       11 UNK         0.1400 
     19 N           0.6046  -21.1393  -46.5182 N.am      11 UNK        -0.5000 
     20 C           0.6080  -22.0682  -45.5572 C.2       10 UNK         0.5000 
     21 O           0.1680  -23.2074  -45.7186 O.2       10 UNK        -0.5000 
     22 CA          1.1421  -21.6299  -44.1752 C.3       10 UNK         0.1400 
     23 CB          1.9280  -22.7474  -43.4599 C.3       10 UNK        -0.1800 
     24 N           1.8983  -20.3686  -44.2017 N.am      10 UNK        -0.5000 
     25 C           3.0941  -20.1234  -44.7618 C.2       9 UNK         0.5000 
     26 O           3.7853  -20.9842  -45.3060 O.2       9 UNK        -0.5000 
     27 CA          3.6018  -18.6646  -44.7330 C.3       9 UNK         0.1400 
     28 CB          3.5535  -18.0522  -46.1417 C.3       9 UNK        -0.1800 
     29 N           2.8477  -17.8020  -43.8216 N.am      9 UNK        -0.5000 
     30 C           2.9695  -17.8090  -42.4871 C.2       8 UNK         0.5000 
     31 O           3.7797  -18.5093  -41.8786 O.2       8 UNK        -0.5000 
     32 CA          1.9792  -16.9330  -41.6957 C.3       8 UNK         0.1400 
     33 CB          2.4630  -15.4794  -41.6138 C.3       8 UNK        -0.1800 
     34 N           0.6281  -16.9556  -42.2558 N.am      8 UNK        -0.5000 
     35 C          -0.1675  -18.0313  -42.3156 C.2       7 UNK         0.5000 
     36 O           0.1396  -19.1386  -41.8757 O.2       7 UNK        -0.5000 
     37 CA         -1.5121  -17.8514  -43.0379 C.3       7 UNK         0.1400 
     38 CB         -2.5627  -17.2180  -42.1135 C.3       7 UNK        -0.1800 
     39 N          -1.3662  -17.0467  -44.2506 N.am      7 UNK        -0.5000 
     40 C          -0.8189  -17.5004  -45.3858 C.2       6 UNK         0.5000 
     41 O          -0.4267  -18.6569  -45.5330 O.2       6 UNK        -0.5000 
     42 CA         -0.6682  -16.5015  -46.5469 C.3       6 UNK         0.1400 
     43 CB         -1.9188  -16.5153  -47.4377 C.3       6 UNK        -0.1800 
     44 N          -0.3906  -15.1352  -46.0960 N.am      6 UNK        -0.5000 
     45 C           0.7610  -14.7782  -45.5131 C.2       5 UNK         0.5000 
     46 O           1.6782  -15.5641  -45.2827 O.2       5 UNK        -0.5000 
     47 CA          0.9163  -13.3061  -45.1002 C.3       5 UNK         0.1400 
     48 CB          1.1368  -12.4053  -46.3249 C.3       5 UNK        -0.1800 
     49 N          -0.1674  -12.7463  -44.2922 N.am      5 UNK        -0.5000 
     50 C          -0.7365  -13.2938  -43.2110 C.2       4 UNK         0.5000 
     51 O          -0.5935  -14.4677  -42.8705 O.2       4 UNK        -0.5000 
     52 CA         -1.5363  -12.3231  -42.3194 C.3       4 UNK         0.1400 
     53 CB         -2.4335  -13.0567  -41.3067 C.3       4 UNK        -0.1800 
     54 N          -0.6043  -11.4606  -41.5907 N.am      4 UNK        -0.5000 
     55 C           0.0622  -10.4264  -42.1212 C.2       3 UNK         0.5000 
     56 O          -0.1754   -9.9734  -43.2436 O.2       3 UNK        -0.5000 
     57 CA          1.2232   -9.8209  -41.3029 C.3       3 UNK         0.1400 
     58 CB          1.3420  -10.3658  -39.8608 C.3       3 UNK        -0.1800 
     59 N           2.4976   -9.9638  -42.0205 N.am      3 UNK        -0.5000 
     60 C           3.0696  -11.1101  -42.4200 C.2       2 UNK         0.5000 
     61 O           2.6291  -12.2307  -42.1581 O.2       2 UNK        -0.5000 
     62 CA          4.3599  -10.9822  -43.2423 C.3       2 UNK         0.1400 
     63 CB          5.5915  -10.9208  -42.3249 C.3       2 UNK        -0.1800 
     64 N           4.4799  -12.1373  -44.1285 N.am      2 UNK        -0.5000 
     65 C           4.8613  -12.1042  -45.4087 C.2       1 UNK         0.5000 
     66 O           5.2379  -11.0760  -45.9744 O.2       1 UNK        -0.5000 
     67 C          -1.4358  -21.2068  -47.9435 C.2       11 UNK         0.5000 
     68 O          -2.0284  -21.6314  -48.9363 O.2       11 UNK        -0.5000 
     69 N          -2.0649  -20.6946  -46.8746 N.am      12 UNK        -0.5000 
     70 CA         -3.5150  -20.6446  -46.6730 C.3       12 UNK         0.1400 
     71 CB         -3.8180  -19.9336  -45.3464 C.3       12 UNK        -0.1800 
     72 C          -4.1968  -22.0287  -46.7073 C.2       12 UNK         0.5000 
     73 O          -5.3619  -22.1194  -47.0929 O.2       12 UNK        -0.5000 
     74 N          -3.4539  -23.0819  -46.3349 N.am      13 UNK        -0.5000 
     75 CA         -3.8889  -24.4757  -46.4244 C.3       13 UNK         0.1400 
     76 CB         -2.8969  -25.3662  -45.6612 C.3       13 UNK        -0.1800 
     77 C          -4.0392  -24.9499  -47.8822 C.2       13 UNK         0.5000 
     78 O          -5.0092  -25.6371  -48.1987 O.2       13 UNK        -0.5000 
     79 N          -3.0959  -24.5467  -48.7463 N.am      14 UNK        -0.5000 
     80 CA         -3.1235  -24.8049  -50.1873 C.3       14 UNK         0.1400 
     81 CB         -1.7299  -24.5490  -50.7833 C.3       14 UNK        -0.1800 
     82 C          -4.1788  -23.9486  -50.9061 C.2       14 UNK         0.5000 
     83 O          -4.8279  -24.4439  -51.8304 O.2       14 UNK        -0.5000 
     84 N          -4.3226  -22.6964  -50.4418 N.am      15 UNK        -0.5000 
     85 CA         -5.2111  -21.6522  -50.9594 C.3       15 UNK         0.1400 
     86 CB         -4.9735  -20.3559  -50.1695 C.3       15 UNK        -0.1800 
     87 C          -6.7104  -21.9891  -50.9046 C.2       15 UNK         0.5000 
     88 O          -7.4886  -21.4072  -51.6597 O.2       15 UNK        -0.5000 
     89 N          -7.1009  -22.9166  -50.0219 N.am      16 UNK        -0.5000 
     90 CA         -8.4746  -23.3806  -49.8079 C.3       16 UNK         0.1400 
     91 CB         -8.5451  -24.0316  -48.4147 C.3       16 UNK        -0.1800 
     92 C          -8.9906  -24.3239  -50.9220 C.2       16 UNK         0.5000 
     93 O          -9.7763  -25.2293  -50.6382 O.2       16 UNK        -0.5000 
     94 N          -8.5124  -24.1234  -52.1600 N.am      17 UNK        -0.5000 
     95 CA         -8.7242  -24.9328  -53.3653 C.3       17 UNK         0.1400 
     96 CB        -10.2077  -24.9186  -53.7878 C.3       17 UNK        -0.1800 
     97 C          -8.1509  -26.3625  -53.2567 C.2       17 UNK         0.5000 
     98 O          -8.5111  -27.2281  -54.0564 O.2       17 UNK        -0.5000 
     99 N          -7.2643  -26.5882  -52.2777 N.am      18 UNK        -0.5000 
    100 CA        -6.6210  -27.8724  -52.0153 C.3       18 UNK         0.1400 
    101 CB        -6.1279  -27.9009  -50.5623 C.3       18 UNK        -0.1800 
    102 C         -5.4620  -28.1386  -52.9873 C.2       18 UNK         0.5000 
    103 O         -5.2367  -29.2923  -53.3559 O.2       18 UNK        -0.5000 
    104 N         -4.7611  -27.0717  -53.3922 N.am      19 UNK        -0.5000 
    105 CA        -3.6589  -27.1326  -54.3497 C.3       19 UNK         0.1400 
    106 CB        -2.3441  -27.4407  -53.6121 C.3       19 UNK        -0.1800 
    107 C         -3.5336  -25.8649  -55.2105 C.2       19 UNK         0.5000 
    108 O         -2.9404  -25.9466  -56.2873 O.2       19 UNK        -0.5000 
    109 N         -4.0721  -24.7238  -54.7583 N.am      20 UNK        -0.5000 
    110 CA        -3.9672  -23.4412  -55.4503 C.3       20 UNK         0.1400 
    111 CB        -2.5871  -22.8207  -55.1492 C.3       20 UNK        -0.1800 
    112 C         -5.1002  -22.5023  -55.0099 C.2       20 UNK         0.5000 
    113 O         -5.8675  -22.8383  -54.1069 O.2       20 UNK        -0.5000 
    114 N         -5.1604  -21.3205  -55.6367 N.am      21 UNK        -0.5000 
    115 CA        -5.9607  -20.1821  -55.1719 C.3       21 UNK         0.1400 
    116 CB        -6.2908  -19.2802  -56.3711 C.3       21 UNK        -0.1800 
    117 C         -5.2301  -19.3765  -54.0753 C.2       21 UNK         0.5000 
    118 O         -5.8760  -18.6594  -53.3124 O.2       21 UNK        -0.5000 
    119 N         -3.9011  -19.5185  -54.0119 N.am      22 UNK        -0.5000 
    120 CA        -3.0035  -18.9562  -53.0036 C.3       22 UNK         0.1400 
    121 C         -1.7098  -19.8080  -53.0089 C.2       22 UNK         0.5000 
    122 N         -1.4481  -20.5896  -51.9694 N.am      22 UNK        -0.7600 
    123 O         -0.9452  -19.7771  -53.9692 O.2       22 UNK        -0.5000 
    124 C124       -2.7489  -17.4409  -53.2150 C.3       23 UNK        -0.0398 
    125 S125       -1.8899  -16.6732  -51.7961 S.3       23 UNK        -0.2404 
    126 C126       -0.2488  -16.3300  -52.5072 C.3       23 UNK        -0.0205 
    127 H127        7.7359  -15.9845  -45.1090 H         1 UNK         0.0600 
    128 H128        6.6526  -17.0119  -44.1655 H         1 UNK         0.0600 
    129 H129        7.5182  -15.6866  -43.3809 H         1 UNK         0.0600 
    130 H130        6.6624  -14.4599  -46.3327 H         1 UNK         0.3000 
    131 H131        3.8597  -13.9068  -45.9662 H         1 UNK         0.0600 
    132 H132        5.8550  -12.7821  -47.9904 H         1 UNK         0.0800 
    133 H133        4.1394  -12.5004  -48.0395 H         1 UNK         0.0800 
    134 H134        2.4846  -13.8714  -49.1119 H         1 UNK         0.0800 
    135 H135        2.4724  -15.0498  -47.8138 H         1 UNK         0.0800 
    136 H136        0.9291  -14.6478  -50.7065 H         1 UNK         0.1150 
    137 H137        1.0075  -18.6960  -52.1001 H         1 UNK         0.1150 
    138 H138        3.6785  -17.4595  -48.9887 H         1 UNK         0.1150 
    139 H139        2.6016  -20.2489  -51.2866 H         1 UNK         0.0800 
    140 H140        4.0583  -19.5962  -50.5766 H         1 UNK         0.0800 
    141 H141        0.3750  -20.4329  -49.8633 H         1 UNK         0.0800 
    142 H142        0.4966  -19.2638  -48.5672 H         1 UNK         0.0800 
    143 H143        0.3661  -22.3048  -48.2257 H         1 UNK         0.0600 
    144 H144        0.9033  -20.2065  -46.2648 H         1 UNK         0.3000 
    145 H145        0.2560  -21.4233  -43.5737 H         1 UNK         0.0600 
    146 H146        2.2911  -22.4133  -42.4879 H         1 UNK         0.0600 
    147 H147        1.2959  -23.6191  -43.2868 H         1 UNK         0.0600 
    148 H148        2.7856  -23.0808  -44.0443 H         1 UNK         0.0600 
    149 H149        1.4244  -19.5844  -43.7732 H         1 UNK         0.3000 
    150 H150        4.6437  -18.6853  -44.4077 H         1 UNK         0.0600 
    151 H151        4.1547  -18.6340  -46.8411 H         1 UNK         0.0600 
    152 H152        3.9456  -17.0349  -46.1469 H         1 UNK         0.0600 
    153 H153        2.5351  -18.0190  -46.5313 H         1 UNK         0.0600 
    154 H154        2.2224  -17.1257  -44.2517 H         1 UNK         0.3000 
    155 H155        1.9260  -17.3301  -40.6801 H         1 UNK         0.0600 
    156 H156        3.4775  -15.4217  -41.2180 H         1 UNK         0.0600 
    157 H157        1.8223  -14.8840  -40.9632 H         1 UNK         0.0600 
    158 H158        2.4665  -15.0052  -42.5956 H         1 UNK         0.0600 
    159 H159        0.2712  -16.0722  -42.6147 H         1 UNK         0.3000 
    160 H160       -1.8705  -18.8433  -43.3191 H         1 UNK         0.0600 
    161 H161       -2.2641  -16.2254  -41.7766 H         1 UNK         0.0600 
    162 H162       -2.7174  -17.8312  -41.2249 H         1 UNK         0.0600 
    163 H163       -3.5252  -17.1263  -42.6168 H         1 UNK         0.0600 
    164 H164       -1.5803  -16.0619  -44.1703 H         1 UNK         0.3000 
    165 H165        0.1768  -16.8348  -47.1542 H         1 UNK         0.0600 
    166 H166       -1.7820  -15.8863  -48.3178 H         1 UNK         0.0600 
    167 H167       -2.1330  -17.5244  -47.7936 H         1 UNK         0.0600 
    168 H168       -2.8003  -16.1613  -46.9021 H         1 UNK         0.0600 
    169 H169       -1.1089  -14.4404  -46.2385 H         1 UNK         0.3000 
    170 H170        1.8148  -13.2548  -44.4847 H         1 UNK         0.0600 
    171 H171        1.9347  -12.7846  -46.9599 H         1 UNK         0.0600 
    172 H172        0.2380  -12.3327  -46.9383 H         1 UNK         0.0600 
    173 H173        1.4190  -11.3961  -46.0236 H         1 UNK         0.0600 
    174 H174       -0.3288  -11.7542  -44.4197 H         1 UNK         0.3000 
    175 H175       -2.1763  -11.7136  -42.9608 H         1 UNK         0.0600 
    176 H176       -3.1387  -13.7143  -41.8165 H         1 UNK         0.0600 
    177 H177       -1.8513  -13.6702  -40.6177 H         1 UNK         0.0600 
    178 H178       -3.0168  -12.3513  -40.7149 H         1 UNK         0.0600 
    179 H179       -0.3080  -11.7966  -40.6859 H         1 UNK         0.3000 
    180 H180        1.0211   -8.7510  -41.2347 H         1 UNK         0.0600 
    181 H181        1.5541  -11.4352  -39.8347 H         1 UNK         0.0600 
    182 H182        0.4235  -10.1936  -39.2984 H         1 UNK         0.0600 
    183 H183        2.1440   -9.8610  -39.3221 H         1 UNK         0.0600 
    184 H184        2.9289   -9.0938  -42.3000 H         1 UNK         0.3000 
    185 H185        4.2998  -10.0623  -43.8278 H         1 UNK         0.0600 
    186 H186        5.5323  -10.0708  -41.6440 H         1 UNK         0.0600 
    187 H187        5.6847  -11.8233  -41.7192 H         1 UNK         0.0600 
    188 H188        6.5083  -10.8107  -42.9044 H         1 UNK         0.0600 
    189 H189        4.2131  -13.0288  -43.7190 H         1 UNK         0.3000 
    190 H190       -1.4896  -20.2878  -46.1453 H         1 UNK         0.3000 
    191 H191       -3.9351  -20.0431  -47.4785 H         1 UNK         0.0600 
    192 H192       -3.3516  -20.4423  -44.5021 H         1 UNK         0.0600 
    193 H193       -4.8917  -19.8987  -45.1567 H         1 UNK         0.0600 
    194 H194       -3.4636  -18.9037  -45.3617 H         1 UNK         0.0600 
    195 H195       -2.5050  -22.9203  -46.0284 H         1 UNK         0.3000 
    196 H196       -4.8654  -24.5606  -45.9428 H         1 UNK         0.0600 
    197 H197       -3.2024  -26.4126  -45.6994 H         1 UNK         0.0600 
    198 H198       -2.8408  -25.0825  -44.6102 H         1 UNK         0.0600 
    199 H199       -1.8913  -25.3014  -46.0790 H         1 UNK         0.0600 
    200 H200       -2.3580  -23.9444  -48.4112 H         1 UNK         0.3000 
    201 H201       -3.3739  -25.8544  -50.3520 H         1 UNK         0.0600 
    202 H202       -0.9989  -25.2555  -50.3902 H         1 UNK         0.0600 
    203 H203       -1.3711  -23.5430  -50.5682 H         1 UNK         0.0600 
    204 H204       -1.7387  -24.6561  -51.8682 H         1 UNK         0.0600 
    205 H205       -3.6929  -22.4083  -49.7005 H         1 UNK         0.3000 
    206 H206       -4.9365  -21.4848  -52.0006 H         1 UNK         0.0600 
    207 H207       -3.9153  -20.1268  -50.0578 H         1 UNK         0.0600 
    208 H208       -5.4441  -19.5081  -50.6687 H         1 UNK         0.0600 
    209 H209       -5.4102  -20.4147  -49.1734 H         1 UNK         0.0600 
    210 H210       -6.3907  -23.3369  -49.4389 H         1 UNK         0.3000 
    211 H211       -9.1329  -22.5097  -49.8034 H         1 UNK         0.0600 
    212 H212       -7.9328  -24.9332  -48.3638 H         1 UNK         0.0600 
    213 H213       -9.5678  -24.3107  -48.1584 H         1 UNK         0.0600 
    214 H214       -8.1953  -23.3470  -47.6414 H         1 UNK         0.0600 
    215 H215       -7.8946  -23.3283  -52.2856 H         1 UNK         0.3000 
    216 H216       -8.1537  -24.4431  -54.1555 H         1 UNK         0.0600 
    217 H217      -10.3399  -25.3795  -54.7673 H         1 UNK         0.0600 
    218 H218      -10.5880  -23.8995  -53.8573 H         1 UNK         0.0600 
    219 H219      -10.8361  -25.4651  -53.0842 H         1 UNK         0.0600 
    220 H220       -6.9964  -25.8120  -51.6892 H         1 UNK         0.3000 
    221 H221       -7.3581  -28.6687  -52.1401 H         1 UNK         0.0600 
    222 H222       -5.3780  -27.1321  -50.3809 H         1 UNK         0.0600 
    223 H223       -6.9477  -27.7396  -49.8620 H         1 UNK         0.0600 
    224 H224       -5.6762  -28.8638  -50.3209 H         1 UNK         0.0600 
    225 H225       -4.9983  -26.1635  -53.0121 H         1 UNK         0.3000 
    226 H226       -3.8494  -27.9451  -55.0546 H         1 UNK         0.0600 
    227 H227       -2.3794  -28.4212  -53.1370 H         1 UNK         0.0600 
    228 H228       -1.4971  -27.4452  -54.2994 H         1 UNK         0.0600 
    229 H229       -2.1378  -26.7040  -52.8379 H         1 UNK         0.0600 
    230 H230       -4.5659  -24.6751  -53.8731 H         1 UNK         0.3000 
    231 H231       -4.0729  -23.5976  -56.5259 H         1 UNK         0.0600 
    232 H232       -1.7772  -23.4769  -55.4676 H         1 UNK         0.0600 
    233 H233       -2.4600  -22.6347  -54.0819 H         1 UNK         0.0600 
    234 H234       -2.4460  -21.8741  -55.6709 H         1 UNK         0.0600 
    235 H235       -4.5360  -21.1425  -56.4104 H         1 UNK         0.3000 
    236 H236       -6.8994  -20.5455  -54.7475 H         1 UNK         0.0600 
    237 H237       -6.9075  -18.4342  -56.0646 H         1 UNK         0.0600 
    238 H238       -5.3892  -18.8782  -56.8349 H         1 UNK         0.0600 
    239 H239       -6.8464  -19.8266  -57.1334 H         1 UNK         0.0600 
    240 H240       -3.4457  -20.1232  -54.6795 H         1 UNK         0.3000 
    241 H241       -3.4839  -19.0736  -52.0350 H         1 UNK         0.0600 
    242 H242       -0.6170  -21.1564  -52.0035 H         1 UNK         0.3800 
    243 H243       -2.0491  -20.6453  -51.1620 H         1 UNK         0.3800 
    244 H244       -2.2103  -17.2603  -54.1463 H         1 UNK         0.0800 
    245 H245       -3.7008  -16.9200  -53.3228 H         1 UNK         0.0800 
    246 H246       -0.0870  -16.9241  -53.4078 H         1 UNK         0.0800 
    247 H247       -0.2034  -15.2855  -52.8189 H         1 UNK         0.0800 
@<TRIPOS>BOND
     1    1    2 1    
     2    1  127 1    
     3    1  128 1    
     4    1  129 1    
     5    2    3 2    
     6    2    4 am   BACKBONE|DICT|INTERRES
     7    4    5 1    
     8    4  130 1    
     9    5    6 1    
    10    5   65 1    
    11    5  131 1    
    12    6    7 1    
    13    6  132 1    
    14    6  133 1    
    15    7    8 1    
    16    8    9 1    
    17    8  134 1    
    18    8  135 1    
    19    9   10 ar   
    20    9   14 ar   
    21   10   11 ar   
    22   10  136 1    
    23   11   12 ar   
    24   11  126 1    
    25   12   13 ar   
    26   12  137 1    
    27   13   14 ar   
    28   13   15 1    
    29   14  138 1    
    30   15   16 1    
    31   15  139 1    
    32   15  140 1    
    33   16   17 1    
    34   17   18 1    
    35   17  141 1    
    36   17  142 1    
    37   18   19 1    
    38   18   67 1    
    39   18  143 1    
    40   19   20 am   BACKBONE|DICT|INTERRES
    41   19  144 1    
    42   20   21 2    
    43   20   22 1    
    44   22   23 1    
    45   22   24 1    
    46   22  145 1    
    47   23  146 1    
    48   23  147 1    
    49   23  148 1    
    50   24   25 am   BACKBONE|DICT|INTERRES
    51   24  149 1    
    52   25   26 2    
    53   25   27 1    
    54   27   28 1    
    55   27   29 1    
    56   27  150 1    
    57   28  151 1    
    58   28  152 1    
    59   28  153 1    
    60   29   30 am   BACKBONE|DICT|INTERRES
    61   29  154 1    
    62   30   31 2    
    63   30   32 1    
    64   32   33 1    
    65   32   34 1    
    66   32  155 1    
    67   33  156 1    
    68   33  157 1    
    69   33  158 1    
    70   34   35 am   BACKBONE|DICT|INTERRES
    71   34  159 1    
    72   35   36 2    
    73   35   37 1    
    74   37   38 1    
    75   37   39 1    
    76   37  160 1    
    77   38  161 1    
    78   38  162 1    
    79   38  163 1    
    80   39   40 am   BACKBONE|DICT|INTERRES
    81   39  164 1    
    82   40   41 2    
    83   40   42 1    
    84   42   43 1    
    85   42   44 1    
    86   42  165 1    
    87   43  166 1    
    88   43  167 1    
    89   43  168 1    
    90   44   45 am   BACKBONE|DICT|INTERRES
    91   44  169 1    
    92   45   46 2    
    93   45   47 1    
    94   47   48 1    
    95   47   49 1    
    96   47  170 1    
    97   48  171 1    
    98   48  172 1    
    99   48  173 1    
   100   49   50 am   BACKBONE|DICT|INTERRES
   101   49  174 1    
   102   50   51 2    
   103   50   52 1    
   104   52   53 1    
   105   52   54 1    
   106   52  175 1    
   107   53  176 1    
   108   53  177 1    
   109   53  178 1    
   110   54   55 am   BACKBONE|DICT|INTERRES
   111   54  179 1    
   112   55   56 2    
   113   55   57 1    
   114   57   58 1    
   115   57   59 1    
   116   57  180 1    
   117   58  181 1    
   118   58  182 1    
   119   58  183 1    
   120   59   60 am   BACKBONE|DICT|INTERRES
   121   59  184 1    
   122   60   61 2    
   123   60   62 1    
   124   62   63 1    
   125   62   64 1    
   126   62  185 1    
   127   63  186 1    
   128   63  187 1    
   129   63  188 1    
   130   64   65 am   BACKBONE|DICT|INTERRES
   131   64  189 1    
   132   65   66 2    
   133   67   68 2    
   134   67   69 am   BACKBONE|DICT|INTERRES
   135   69   70 1    
   136   69  190 1    
   137   70   71 1    
   138   70   72 1    
   139   70  191 1    
   140   71  192 1    
   141   71  193 1    
   142   71  194 1    
   143   72   73 2    
   144   72   74 am   BACKBONE|DICT|INTERRES
   145   74   75 1    
   146   74  195 1    
   147   75   76 1    
   148   75   77 1    
   149   75  196 1    
   150   76  197 1    
   151   76  198 1    
   152   76  199 1    
   153   77   78 2    
   154   77   79 am   BACKBONE|DICT|INTERRES
   155   79   80 1    
   156   79  200 1    
   157   80   81 1    
   158   80   82 1    
   159   80  201 1    
   160   81  202 1    
   161   81  203 1    
   162   81  204 1    
   163   82   83 2    
   164   82   84 am   BACKBONE|DICT|INTERRES
   165   84   85 1    
   166   84  205 1    
   167   85   86 1    
   168   85   87 1    
   169   85  206 1    
   170   86  207 1    
   171   86  208 1    
   172   86  209 1    
   173   87   88 2    
   174   87   89 am   BACKBONE|DICT|INTERRES
   175   89   90 1    
   176   89  210 1    
   177   90   91 1    
   178   90   92 1    
   179   90  211 1    
   180   91  212 1    
   181   91  213 1    
   182   91  214 1    
   183   92   93 2    
   184   92   94 am   BACKBONE|DICT|INTERRES
   185   94   95 1    
   186   94  215 1    
   187   95   96 1    
   188   95   97 1    
   189   95  216 1    
   190   96  217 1    
   191   96  218 1    
   192   96  219 1    
   193   97   98 2    
   194   97   99 am   BACKBONE|DICT|INTERRES
   195   99  100 1    
   196   99  220 1    
   197  100  101 1    
   198  100  102 1    
   199  100  221 1    
   200  101  222 1    
   201  101  223 1    
   202  101  224 1    
   203  102  103 2    
   204  102  104 am   BACKBONE|DICT|INTERRES
   205  104  105 1    
   206  104  225 1    
   207  105  106 1    
   208  105  107 1    
   209  105  226 1    
   210  106  227 1    
   211  106  228 1    
   212  106  229 1    
   213  107  108 2    
   214  107  109 am   BACKBONE|DICT|INTERRES
   215  109  110 1    
   216  109  230 1    
   217  110  111 1    
   218  110  112 1    
   219  110  231 1    
   220  111  232 1    
   221  111  233 1    
   222  111  234 1    
   223  112  113 2    
   224  112  114 am   BACKBONE|DICT|INTERRES
   225  114  115 1    
   226  114  235 1    
   227  115  116 1    
   228  115  117 1    
   229  115  236 1    
   230  116  237 1    
   231  116  238 1    
   232  116  239 1    
   233  117  118 2    
   234  117  119 am   BACKBONE|DICT|INTERRES
   235  119  120 1    
   236  119  240 1    
   237  120  121 1    
   238  120  124 1    
   239  120  241 1    
   240  121  122 am   BACKBONE|DICT|INTERRES
   241  121  123 2    
   242  122  242 1    
   243  122  243 1    
   244  124  125 1    
   245  124  244 1    
   246  124  245 1    
   247  125  126 1    
   248  126  246 1    
   249  126  247 1    
@<TRIPOS>SUBSTRUCTURE
     1 UNK         1 GROUP             0       ****    0 ROOT    
