@<TRIPOS>MOLECULE
3R540
247   249    1
SMALL
USER_CHARGES


@<TRIPOS>ATOM
      1 CA          1.2539   -8.5267  -46.2433 C.3       0 UNK        -0.1800 
      2 C           1.8534   -9.6988  -47.0080 C.2       0 UNK         0.5000 
      3 O           3.0412   -9.6756  -47.3311 O.2       0 UNK        -0.5000 
      4 N           1.0350  -10.7149  -47.3061 N.am      1 UNK        -0.5000 
      5 CA          1.4533  -11.9655  -47.9451 C.3       1 UNK         0.1400 
      6 C6          0.2404  -12.6946  -48.5736 C.3       23 UNK        -0.0398 
      7 S7          0.7276  -13.9130  -49.8424 S.3       23 UNK        -0.2404 
      8 C8          0.1187  -15.4528  -49.0866 C.3       23 UNK        -0.0205 
      9 C9          0.4525  -16.6781  -49.9242 C.ar      23 UNK        -0.0193 
     10 C10        -0.0229  -16.7856  -51.2339 C.ar      23 UNK        -0.1150 
     11 C11         0.2650  -17.9119  -52.0111 C.ar      23 UNK        -0.0193 
     12 C12         1.0395  -18.9393  -51.4630 C.ar      23 UNK        -0.1150 
     13 C13         1.5232  -18.8443  -50.1536 C.ar      23 UNK        -0.0193 
     14 C14         1.2233  -17.7138  -49.3887 C.ar      23 UNK        -0.1150 
     15 C15         2.3980  -19.9478  -49.5777 C.3       23 UNK        -0.0205 
     16 S16         1.4222  -21.3712  -49.0066 S.3       23 UNK        -0.2404 
     17 C17         0.7002  -20.7333  -47.4551 C.3       23 UNK        -0.0398 
     18 CA         -0.0912  -21.8293  -46.7006 C.3       11 UNK         0.1400 
     19 N          -0.2871  -21.5181  -45.2819 N.am      11 UNK        -0.5000 
     20 C          -0.8047  -22.3715  -44.3848 C.2       10 UNK         0.5000 
     21 O          -1.1212  -23.5304  -44.6494 O.2       10 UNK        -0.5000 
     22 CA         -1.0767  -21.8279  -42.9719 C.3       10 UNK         0.1400 
     23 CB          0.2102  -21.8030  -42.1348 C.3       10 UNK        -0.1800 
     24 N          -1.6918  -20.5005  -42.9965 N.am      10 UNK        -0.5000 
     25 C          -2.8979  -20.2390  -43.5221 C.2       9 UNK         0.5000 
     26 O          -3.6445  -21.1042  -43.9794 O.2       9 UNK        -0.5000 
     27 CA         -3.3266  -18.7622  -43.5897 C.3       9 UNK         0.1400 
     28 CB         -3.9056  -18.3006  -42.2443 C.3       9 UNK        -0.1800 
     29 N          -2.2363  -17.8716  -43.9892 N.am      9 UNK        -0.5000 
     30 C          -1.6090  -17.9130  -45.1740 C.2       8 UNK         0.5000 
     31 O          -1.9076  -18.6881  -46.0826 O.2       8 UNK        -0.5000 
     32 CA         -0.4040  -16.9706  -45.3478 C.3       8 UNK         0.1400 
     33 CB         -0.8624  -15.5266  -45.5985 C.3       8 UNK        -0.1800 
     34 N           0.4936  -17.0101  -44.1932 N.am      8 UNK        -0.5000 
     35 C           1.1663  -18.0988  -43.7937 C.2       7 UNK         0.5000 
     36 O           1.1637  -19.1660  -44.4067 O.2       7 UNK        -0.5000 
     37 CA          1.9227  -17.9948  -42.4585 C.3       7 UNK         0.1400 
     38 CB          3.3289  -17.4092  -42.6589 C.3       7 UNK        -0.1800 
     39 N           1.1839  -17.1986  -41.4772 N.am      7 UNK        -0.5000 
     40 C           0.0699  -17.6147  -40.8573 C.2       6 UNK         0.5000 
     41 O          -0.4260  -18.7280  -41.0244 O.2       6 UNK        -0.5000 
     42 CA         -0.6293  -16.6076  -39.9247 C.3       6 UNK         0.1400 
     43 CB          0.0166  -16.6233  -38.5313 C.3       6 UNK        -0.1800 
     44 N          -0.6100  -15.2428  -40.4513 N.am      6 UNK        -0.5000 
     45 C          -1.2548  -14.8461  -41.5578 C.2       5 UNK         0.5000 
     46 O          -1.9903  -15.5798  -42.2167 O.2       5 UNK        -0.5000 
     47 CA         -0.9870  -13.4055  -42.0401 C.3       5 UNK         0.1400 
     48 CB         -2.0056  -12.4341  -41.4262 C.3       5 UNK        -0.1800 
     49 N           0.3717  -12.9326  -41.7507 N.am      5 UNK        -0.5000 
     50 C           1.4898  -13.5203  -42.1959 C.2       4 UNK         0.5000 
     51 O           1.4922  -14.5334  -42.9024 O.2       4 UNK        -0.5000 
     52 CA          2.8199  -12.9301  -41.7074 C.3       4 UNK         0.1400 
     53 CB          3.0338  -13.2636  -40.2164 C.3       4 UNK        -0.1800 
     54 N           3.8816  -13.5132  -42.5165 N.am      4 UNK        -0.5000 
     55 C           5.1761  -13.1785  -42.5352 C.2       3 UNK         0.5000 
     56 O           5.6649  -12.2782  -41.8517 O.2       3 UNK        -0.5000 
     57 CA          6.0813  -13.9942  -43.4807 C.3       3 UNK         0.1400 
     58 CB          6.7578  -15.1418  -42.7147 C.3       3 UNK        -0.1800 
     59 N           5.3478  -14.5519  -44.6203 N.am      3 UNK        -0.5000 
     60 C           4.9207  -13.8314  -45.6656 C.2       2 UNK         0.5000 
     61 O           5.2138  -12.6447  -45.8303 O.2       2 UNK        -0.5000 
     62 CA          4.0462  -14.5628  -46.7102 C.3       2 UNK         0.1400 
     63 CB          3.2295  -15.7341  -46.1181 C.3       2 UNK        -0.1800 
     64 N           3.1668  -13.6471  -47.4461 N.am      2 UNK        -0.5000 
     65 C           2.2056  -12.8619  -46.9365 C.2       1 UNK         0.5000 
     66 O           1.8864  -12.8383  -45.7452 O.2       1 UNK        -0.5000 
     67 C          -1.4265  -22.1540  -47.3996 C.2       11 UNK         0.5000 
     68 O          -1.5164  -23.1837  -48.0643 O.2       11 UNK        -0.5000 
     69 N          -2.4495  -21.3133  -47.1861 N.am      12 UNK        -0.5000 
     70 CA         -3.8023  -21.4907  -47.7215 C.3       12 UNK         0.1400 
     71 CB         -4.6488  -20.2540  -47.3880 C.3       12 UNK        -0.1800 
     72 C          -4.5045  -22.7801  -47.2537 C.2       12 UNK         0.5000 
     73 O          -5.3414  -23.3062  -47.9855 O.2       12 UNK        -0.5000 
     74 N          -4.1565  -23.2711  -46.0583 N.am      13 UNK        -0.5000 
     75 CA         -4.6119  -24.5581  -45.5419 C.3       13 UNK         0.1400 
     76 CB         -4.5246  -24.5496  -44.0075 C.3       13 UNK        -0.1800 
     77 C          -3.8094  -25.7335  -46.1318 C.2       13 UNK         0.5000 
     78 O          -4.4048  -26.7426  -46.5118 O.2       13 UNK        -0.5000 
     79 N          -2.4769  -25.5998  -46.1636 N.am      14 UNK        -0.5000 
     80 CA         -1.5470  -26.6687  -46.5234 C.3       14 UNK         0.1400 
     81 CB         -0.1621  -26.3526  -45.9360 C.3       14 UNK        -0.1800 
     82 C          -1.4368  -26.9286  -48.0354 C.2       14 UNK         0.5000 
     83 O          -1.4647  -28.0894  -48.4481 O.2       14 UNK        -0.5000 
     84 N          -1.2647  -25.8657  -48.8298 N.am      15 UNK        -0.5000 
     85 CA         -0.9912  -25.9485  -50.2614 C.3       15 UNK         0.1400 
     86 CB         -0.0149  -24.8298  -50.6602 C.3       15 UNK        -0.1800 
     87 C          -2.2939  -25.8433  -51.0626 C.2       15 UNK         0.5000 
     88 O          -3.0527  -24.8900  -50.8779 O.2       15 UNK        -0.5000 
     89 N          -2.5053  -26.7981  -51.9779 N.am      16 UNK        -0.5000 
     90 CA         -3.6771  -26.8716  -52.8550 C.3       16 UNK         0.1400 
     91 CB         -3.6435  -28.1931  -53.6369 C.3       16 UNK        -0.1800 
     92 C          -3.7987  -25.6769  -53.8196 C.2       16 UNK         0.5000 
     93 O          -4.9139  -25.2579  -54.1260 O.2       16 UNK        -0.5000 
     94 N          -2.6542  -25.1300  -54.2541 N.am      17 UNK        -0.5000 
     95 CA         -2.5808  -23.9307  -55.0882 C.3       17 UNK         0.1400 
     96 CB         -1.1432  -23.7402  -55.5949 C.3       17 UNK        -0.1800 
     97 C          -3.0662  -22.6781  -54.3403 C.2       17 UNK         0.5000 
     98 O          -3.8648  -21.9168  -54.8830 O.2       17 UNK        -0.5000 
     99 N          -2.6105  -22.5075  -53.0922 N.am      18 UNK        -0.5000 
    100 CA        -3.0084  -21.4011  -52.2218 C.3       18 UNK         0.1400 
    101 CB        -2.0324  -21.2981  -51.0446 C.3       18 UNK        -0.1800 
    102 C         -4.4675  -21.5282  -51.7458 C.2       18 UNK         0.5000 
    103 O         -5.1583  -20.5144  -51.6447 O.2       18 UNK        -0.5000 
    104 N         -4.9360  -22.7675  -51.5314 N.am      19 UNK        -0.5000 
    105 CA        -6.3399  -23.0966  -51.2616 C.3       19 UNK         0.1400 
    106 CB        -6.4661  -24.5906  -50.9268 C.3       19 UNK        -0.1800 
    107 C         -7.2739  -22.7317  -52.4340 C.2       19 UNK         0.5000 
    108 O         -8.4130  -22.3266  -52.2032 O.2       19 UNK        -0.5000 
    109 N         -6.7550  -22.8287  -53.6658 N.am      20 UNK        -0.5000 
    110 CA        -7.3944  -22.3974  -54.9106 C.3       20 UNK         0.1400 
    111 CB        -6.9036  -23.3004  -56.0559 C.3       20 UNK        -0.1800 
    112 C         -7.1635  -20.8990  -55.2187 C.2       20 UNK         0.5000 
    113 O         -7.3072  -20.4870  -56.3713 O.2       20 UNK        -0.5000 
    114 N         -6.8060  -20.1086  -54.1949 N.am      21 UNK        -0.5000 
    115 CA        -6.5841  -18.6591  -54.2119 C.3       21 UNK         0.1400 
    116 CB        -7.8872  -17.9058  -54.5538 C.3       21 UNK        -0.1800 
    117 C         -5.3867  -18.2199  -55.0796 C.2       21 UNK         0.5000 
    118 O         -5.3785  -17.0969  -55.5871 O.2       21 UNK        -0.5000 
    119 N         -4.3900  -19.1045  -55.2157 N.am      22 UNK        -0.5000 
    120 CA        -3.1230  -18.8967  -55.9388 C.3       22 UNK         0.1400 
    121 C         -3.2686  -18.8634  -57.4906 C.2       22 UNK         0.5000 
    122 N         -4.3936  -19.2812  -58.0601 N.am      22 UNK        -0.7600 
    123 O         -2.3382  -18.4831  -58.1964 O.2       22 UNK        -0.5000 
    124 C124       -2.2785  -17.7128  -55.3841 C.3       23 UNK        -0.0398 
    125 S125       -2.0302  -17.7949  -53.5738 S.3       23 UNK        -0.2404 
    126 C126       -0.2247  -17.9934  -53.4518 C.3       23 UNK        -0.0205 
    127 H127        0.1939   -8.6766  -46.0362 H         1 UNK         0.0600 
    128 H128        1.3609   -7.6078  -46.8197 H         1 UNK         0.0600 
    129 H129        1.7705   -8.3964  -45.2923 H         1 UNK         0.0600 
    130 H130        0.0799  -10.6878  -46.9797 H         1 UNK         0.3000 
    131 H131        2.1445  -11.7015  -48.7491 H         1 UNK         0.0600 
    132 H132       -0.4030  -11.9709  -49.0762 H         1 UNK         0.0800 
    133 H133       -0.3824  -13.1594  -47.8068 H         1 UNK         0.0800 
    134 H134       -0.9632  -15.3934  -48.9608 H         1 UNK         0.0800 
    135 H135        0.5510  -15.5451  -48.0905 H         1 UNK         0.0800 
    136 H136       -0.6158  -15.9845  -51.6528 H         1 UNK         0.1150 
    137 H137        1.2769  -19.8113  -52.0561 H         1 UNK         0.1150 
    138 H138        1.5950  -17.6433  -48.3772 H         1 UNK         0.1150 
    139 H139        3.0957  -20.2886  -50.3440 H         1 UNK         0.0800 
    140 H140        3.0114  -19.5702  -48.7580 H         1 UNK         0.0800 
    141 H141        0.0755  -19.8636  -47.6665 H         1 UNK         0.0800 
    142 H142        1.5222  -20.3759  -46.8336 H         1 UNK         0.0800 
    143 H143        0.5095  -22.7416  -46.7212 H         1 UNK         0.0600 
    144 H144       -0.0087  -20.5904  -44.9744 H         1 UNK         0.3000 
    145 H145       -1.7795  -22.5081  -42.4861 H         1 UNK         0.0600 
    146 H146        0.0102  -21.4795  -41.1133 H         1 UNK         0.0600 
    147 H147        0.9564  -21.1327  -42.5595 H         1 UNK         0.0600 
    148 H148        0.6568  -22.7965  -42.0792 H         1 UNK         0.0600 
    149 H149       -1.1638  -19.7444  -42.5730 H         1 UNK         0.3000 
    150 H150       -4.1130  -18.6799  -44.3425 H         1 UNK         0.0600 
    151 H151       -4.7330  -18.9403  -41.9348 H         1 UNK         0.0600 
    152 H152       -4.2885  -17.2820  -42.3094 H         1 UNK         0.0600 
    153 H153       -3.1561  -18.3257  -41.4530 H         1 UNK         0.0600 
    154 H154       -1.9594  -17.1652  -43.3130 H         1 UNK         0.3000 
    155 H155        0.1602  -17.3066  -46.2200 H         1 UNK         0.0600 
    156 H156       -1.4822  -15.4643  -46.4931 H         1 UNK         0.0600 
    157 H157       -0.0110  -14.8610  -45.7383 H         1 UNK         0.0600 
    158 H158       -1.4537  -15.1389  -44.7706 H         1 UNK         0.0600 
    159 H159        0.5962  -16.1545  -43.6567 H         1 UNK         0.3000 
    160 H160        2.0374  -19.0051  -42.0609 H         1 UNK         0.0600 
    161 H161        3.2965  -16.4001  -43.0652 H         1 UNK         0.0600 
    162 H162        3.9087  -18.0214  -43.3508 H         1 UNK         0.0600 
    163 H163        3.8782  -17.3735  -41.7180 H         1 UNK         0.0600 
    164 H164        1.4845  -16.2429  -41.3521 H         1 UNK         0.3000 
    165 H165       -1.6715  -16.9170  -39.8219 H         1 UNK         0.0600 
    166 H166       -0.5196  -15.9718  -37.8410 H         1 UNK         0.0600 
    167 H167        0.0019  -17.6278  -38.1062 H         1 UNK         0.0600 
    168 H168        1.0565  -16.2955  -38.5640 H         1 UNK         0.0600 
    169 H169       -0.0311  -14.5733  -39.9670 H         1 UNK         0.3000 
    170 H170       -1.1145  -13.3930  -43.1241 H         1 UNK         0.0600 
    171 H171       -1.9051  -12.3767  -40.3417 H         1 UNK         0.0600 
    172 H172       -1.8847  -11.4286  -41.8295 H         1 UNK         0.0600 
    173 H173       -3.0267  -12.7497  -41.6453 H         1 UNK         0.0600 
    174 H174        0.4471  -12.1129  -41.1658 H         1 UNK         0.3000 
    175 H175        2.8059  -11.8492  -41.8585 H         1 UNK         0.0600 
    176 H176        3.0748  -14.3408  -40.0488 H         1 UNK         0.0600 
    177 H177        3.9603  -12.8333  -39.8371 H         1 UNK         0.0600 
    178 H178        2.2269  -12.8653  -39.6006 H         1 UNK         0.0600 
    179 H179        3.5437  -14.2242  -43.1527 H         1 UNK         0.3000 
    180 H180        6.8608  -13.3273  -43.8553 H         1 UNK         0.0600 
    181 H181        7.4436  -15.6949  -43.3567 H         1 UNK         0.0600 
    182 H182        6.0276  -15.8467  -42.3154 H         1 UNK         0.0600 
    183 H183        7.3381  -14.7600  -41.8737 H         1 UNK         0.0600 
    184 H184        5.1065  -15.5302  -44.5696 H         1 UNK         0.3000 
    185 H185        4.7355  -14.9776  -47.4468 H         1 UNK         0.0600 
    186 H186        2.5965  -15.4075  -45.2931 H         1 UNK         0.0600 
    187 H187        2.5819  -16.1785  -46.8713 H         1 UNK         0.0600 
    188 H188        3.8749  -16.5316  -45.7497 H         1 UNK         0.0600 
    189 H189        3.3557  -13.5790  -48.4362 H         1 UNK         0.3000 
    190 H190       -2.2857  -20.4705  -46.6408 H         1 UNK         0.3000 
    191 H191       -3.7215  -21.5558  -48.8057 H         1 UNK         0.0600 
    192 H192       -4.1966  -19.3468  -47.7893 H         1 UNK         0.0600 
    193 H193       -4.7635  -20.1249  -46.3118 H         1 UNK         0.0600 
    194 H194       -5.6474  -20.3375  -47.8186 H         1 UNK         0.0600 
    195 H195       -3.5098  -22.7438  -45.4848 H         1 UNK         0.3000 
    196 H196       -5.6606  -24.6981  -45.8129 H         1 UNK         0.0600 
    197 H197       -5.1373  -23.7535  -43.5839 H         1 UNK         0.0600 
    198 H198       -3.5020  -24.4022  -43.6591 H         1 UNK         0.0600 
    199 H199       -4.8809  -25.4926  -43.5913 H         1 UNK         0.0600 
    200 H200       -2.0607  -24.7439  -45.8074 H         1 UNK         0.3000 
    201 H201       -1.8966  -27.5925  -46.0572 H         1 UNK         0.0600 
    202 H202       -0.2054  -26.2672  -44.8500 H         1 UNK         0.0600 
    203 H203        0.2367  -25.4162  -46.3284 H         1 UNK         0.0600 
    204 H204        0.5540  -27.1407  -46.1721 H         1 UNK         0.0600 
    205 H205       -1.3492  -24.9251  -48.4450 H         1 UNK         0.3000 
    206 H206       -0.5067  -26.9004  -50.4894 H         1 UNK         0.0600 
    207 H207       -0.4219  -23.8408  -50.4531 H         1 UNK         0.0600 
    208 H208        0.9259  -24.9180  -50.1168 H         1 UNK         0.0600 
    209 H209        0.2184  -24.8729  -51.7247 H         1 UNK         0.0600 
    210 H210       -1.8317  -27.5451  -52.0689 H         1 UNK         0.3000 
    211 H211       -4.5653  -26.8754  -52.2206 H         1 UNK         0.0600 
    212 H212       -2.7586  -28.2648  -54.2704 H         1 UNK         0.0600 
    213 H213       -4.5180  -28.2866  -54.2825 H         1 UNK         0.0600 
    214 H214       -3.6460  -29.0505  -52.9635 H         1 UNK         0.0600 
    215 H215       -1.7812  -25.5432  -53.9622 H         1 UNK         0.3000 
    216 H216       -3.2312  -24.0759  -55.9535 H         1 UNK         0.0600 
    217 H217       -1.0672  -22.8535  -56.2258 H         1 UNK         0.0600 
    218 H218       -0.8211  -24.5922  -56.1939 H         1 UNK         0.0600 
    219 H219       -0.4354  -23.6207  -54.7737 H         1 UNK         0.0600 
    220 H220       -2.0007  -23.2047  -52.6926 H         1 UNK         0.3000 
    221 H221       -2.9329  -20.4776  -52.7978 H         1 UNK         0.0600 
    222 H222       -2.2650  -20.4386  -50.4148 H         1 UNK         0.0600 
    223 H223       -2.0742  -22.1903  -50.4224 H         1 UNK         0.0600 
    224 H224       -1.0054  -21.1766  -51.3888 H         1 UNK         0.0600 
    225 H225       -4.2819  -23.5453  -51.5433 H         1 UNK         0.3000 
    226 H226       -6.6524  -22.5205  -50.3883 H         1 UNK         0.0600 
    227 H227       -5.7871  -24.8796  -50.1246 H         1 UNK         0.0600 
    228 H228       -7.4782  -24.8291  -50.5981 H         1 UNK         0.0600 
    229 H229       -6.2483  -25.2168  -51.7908 H         1 UNK         0.0600 
    230 H230       -5.8191  -23.2034  -53.7610 H         1 UNK         0.3000 
    231 H231       -8.4732  -22.5366  -54.8189 H         1 UNK         0.0600 
    232 H232       -7.4223  -23.0747  -56.9882 H         1 UNK         0.0600 
    233 H233       -7.0852  -24.3520  -55.8330 H         1 UNK         0.0600 
    234 H234       -5.8354  -23.1779  -56.2355 H         1 UNK         0.0600 
    235 H235       -6.6505  -20.5469  -53.2959 H         1 UNK         0.3000 
    236 H236       -6.3156  -18.3916  -53.1891 H         1 UNK         0.0600 
    237 H237       -8.1849  -18.0597  -55.5912 H         1 UNK         0.0600 
    238 H238       -8.7094  -18.2305  -53.9161 H         1 UNK         0.0600 
    239 H239       -7.7690  -16.8319  -54.4050 H         1 UNK         0.0600 
    240 H240       -4.5022  -20.0349  -54.8270 H         1 UNK         0.3000 
    241 H241       -2.5408  -19.7984  -55.7504 H         1 UNK         0.0600 
    242 H242       -4.4789  -19.2673  -59.0641 H         1 UNK         0.3800 
    243 H243       -5.1657  -19.6018  -57.4934 H         1 UNK         0.3800 
    244 H244       -2.7542  -16.7600  -55.6189 H         1 UNK         0.0800 
    245 H245       -1.3043  -17.6846  -55.8743 H         1 UNK         0.0800 
    246 H246        0.2668  -17.2095  -54.0297 H         1 UNK         0.0800 
    247 H247        0.0574  -18.9448  -53.9055 H         1 UNK         0.0800 
@<TRIPOS>BOND
     1    1    2 1    
     2    1  127 1    
     3    1  128 1    
     4    1  129 1    
     5    2    3 2    
     6    2    4 am   BACKBONE|DICT|INTERRES
     7    4    5 1    
     8    4  130 1    
     9    5    6 1    
    10    5   65 1    
    11    5  131 1    
    12    6    7 1    
    13    6  132 1    
    14    6  133 1    
    15    7    8 1    
    16    8    9 1    
    17    8  134 1    
    18    8  135 1    
    19    9   10 ar   
    20    9   14 ar   
    21   10   11 ar   
    22   10  136 1    
    23   11   12 ar   
    24   11  126 1    
    25   12   13 ar   
    26   12  137 1    
    27   13   14 ar   
    28   13   15 1    
    29   14  138 1    
    30   15   16 1    
    31   15  139 1    
    32   15  140 1    
    33   16   17 1    
    34   17   18 1    
    35   17  141 1    
    36   17  142 1    
    37   18   19 1    
    38   18   67 1    
    39   18  143 1    
    40   19   20 am   BACKBONE|DICT|INTERRES
    41   19  144 1    
    42   20   21 2    
    43   20   22 1    
    44   22   23 1    
    45   22   24 1    
    46   22  145 1    
    47   23  146 1    
    48   23  147 1    
    49   23  148 1    
    50   24   25 am   BACKBONE|DICT|INTERRES
    51   24  149 1    
    52   25   26 2    
    53   25   27 1    
    54   27   28 1    
    55   27   29 1    
    56   27  150 1    
    57   28  151 1    
    58   28  152 1    
    59   28  153 1    
    60   29   30 am   BACKBONE|DICT|INTERRES
    61   29  154 1    
    62   30   31 2    
    63   30   32 1    
    64   32   33 1    
    65   32   34 1    
    66   32  155 1    
    67   33  156 1    
    68   33  157 1    
    69   33  158 1    
    70   34   35 am   BACKBONE|DICT|INTERRES
    71   34  159 1    
    72   35   36 2    
    73   35   37 1    
    74   37   38 1    
    75   37   39 1    
    76   37  160 1    
    77   38  161 1    
    78   38  162 1    
    79   38  163 1    
    80   39   40 am   BACKBONE|DICT|INTERRES
    81   39  164 1    
    82   40   41 2    
    83   40   42 1    
    84   42   43 1    
    85   42   44 1    
    86   42  165 1    
    87   43  166 1    
    88   43  167 1    
    89   43  168 1    
    90   44   45 am   BACKBONE|DICT|INTERRES
    91   44  169 1    
    92   45   46 2    
    93   45   47 1    
    94   47   48 1    
    95   47   49 1    
    96   47  170 1    
    97   48  171 1    
    98   48  172 1    
    99   48  173 1    
   100   49   50 am   BACKBONE|DICT|INTERRES
   101   49  174 1    
   102   50   51 2    
   103   50   52 1    
   104   52   53 1    
   105   52   54 1    
   106   52  175 1    
   107   53  176 1    
   108   53  177 1    
   109   53  178 1    
   110   54   55 am   BACKBONE|DICT|INTERRES
   111   54  179 1    
   112   55   56 2    
   113   55   57 1    
   114   57   58 1    
   115   57   59 1    
   116   57  180 1    
   117   58  181 1    
   118   58  182 1    
   119   58  183 1    
   120   59   60 am   BACKBONE|DICT|INTERRES
   121   59  184 1    
   122   60   61 2    
   123   60   62 1    
   124   62   63 1    
   125   62   64 1    
   126   62  185 1    
   127   63  186 1    
   128   63  187 1    
   129   63  188 1    
   130   64   65 am   BACKBONE|DICT|INTERRES
   131   64  189 1    
   132   65   66 2    
   133   67   68 2    
   134   67   69 am   BACKBONE|DICT|INTERRES
   135   69   70 1    
   136   69  190 1    
   137   70   71 1    
   138   70   72 1    
   139   70  191 1    
   140   71  192 1    
   141   71  193 1    
   142   71  194 1    
   143   72   73 2    
   144   72   74 am   BACKBONE|DICT|INTERRES
   145   74   75 1    
   146   74  195 1    
   147   75   76 1    
   148   75   77 1    
   149   75  196 1    
   150   76  197 1    
   151   76  198 1    
   152   76  199 1    
   153   77   78 2    
   154   77   79 am   BACKBONE|DICT|INTERRES
   155   79   80 1    
   156   79  200 1    
   157   80   81 1    
   158   80   82 1    
   159   80  201 1    
   160   81  202 1    
   161   81  203 1    
   162   81  204 1    
   163   82   83 2    
   164   82   84 am   BACKBONE|DICT|INTERRES
   165   84   85 1    
   166   84  205 1    
   167   85   86 1    
   168   85   87 1    
   169   85  206 1    
   170   86  207 1    
   171   86  208 1    
   172   86  209 1    
   173   87   88 2    
   174   87   89 am   BACKBONE|DICT|INTERRES
   175   89   90 1    
   176   89  210 1    
   177   90   91 1    
   178   90   92 1    
   179   90  211 1    
   180   91  212 1    
   181   91  213 1    
   182   91  214 1    
   183   92   93 2    
   184   92   94 am   BACKBONE|DICT|INTERRES
   185   94   95 1    
   186   94  215 1    
   187   95   96 1    
   188   95   97 1    
   189   95  216 1    
   190   96  217 1    
   191   96  218 1    
   192   96  219 1    
   193   97   98 2    
   194   97   99 am   BACKBONE|DICT|INTERRES
   195   99  100 1    
   196   99  220 1    
   197  100  101 1    
   198  100  102 1    
   199  100  221 1    
   200  101  222 1    
   201  101  223 1    
   202  101  224 1    
   203  102  103 2    
   204  102  104 am   BACKBONE|DICT|INTERRES
   205  104  105 1    
   206  104  225 1    
   207  105  106 1    
   208  105  107 1    
   209  105  226 1    
   210  106  227 1    
   211  106  228 1    
   212  106  229 1    
   213  107  108 2    
   214  107  109 am   BACKBONE|DICT|INTERRES
   215  109  110 1    
   216  109  230 1    
   217  110  111 1    
   218  110  112 1    
   219  110  231 1    
   220  111  232 1    
   221  111  233 1    
   222  111  234 1    
   223  112  113 2    
   224  112  114 am   BACKBONE|DICT|INTERRES
   225  114  115 1    
   226  114  235 1    
   227  115  116 1    
   228  115  117 1    
   229  115  236 1    
   230  116  237 1    
   231  116  238 1    
   232  116  239 1    
   233  117  118 2    
   234  117  119 am   BACKBONE|DICT|INTERRES
   235  119  120 1    
   236  119  240 1    
   237  120  121 1    
   238  120  124 1    
   239  120  241 1    
   240  121  122 am   BACKBONE|DICT|INTERRES
   241  121  123 2    
   242  122  242 1    
   243  122  243 1    
   244  124  125 1    
   245  124  244 1    
   246  124  245 1    
   247  125  126 1    
   248  126  246 1    
   249  126  247 1    
@<TRIPOS>SUBSTRUCTURE
     1 UNK         1 GROUP             0       ****    0 ROOT    
