@<TRIPOS>MOLECULE
3R540
247   249    1
SMALL
USER_CHARGES


@<TRIPOS>ATOM
      1 CA          3.6005  -12.9493  -48.4141 C.3       0 UNK        -0.1800 
      2 C           2.8377  -13.9182  -47.5134 C.2       0 UNK         0.5000 
      3 O           1.7332  -13.5938  -47.0886 O.2       0 UNK        -0.5000 
      4 N           3.3672  -15.1125  -47.2081 N.am      1 UNK        -0.5000 
      5 CA          4.6491  -15.6480  -47.6923 C.3       1 UNK         0.1400 
      6 C6          4.7008  -17.2013  -47.6780 C.3       23 UNK        -0.0398 
      7 S7          3.2055  -18.0359  -48.3133 S.3       23 UNK        -0.2404 
      8 C8          3.1726  -17.5369  -50.0681 C.3       23 UNK        -0.0205 
      9 C9          1.7647  -17.2226  -50.5632 C.ar      23 UNK        -0.0193 
     10 C10         1.3608  -17.6422  -51.8346 C.ar      23 UNK        -0.1150 
     11 C11         0.0864  -17.3278  -52.3175 C.ar      23 UNK        -0.0193 
     12 C12        -0.7991  -16.6107  -51.5080 C.ar      23 UNK        -0.1150 
     13 C13        -0.4100  -16.1881  -50.2341 C.ar      23 UNK        -0.0193 
     14 C14         0.8768  -16.4783  -49.7783 C.ar      23 UNK        -0.1150 
     15 C15        -1.3745  -15.4124  -49.3519 C.3       23 UNK        -0.0205 
     16 S16        -2.5260  -16.5220  -48.4833 S.3       23 UNK        -0.2404 
     17 C17        -1.4527  -17.2877  -47.2162 C.3       23 UNK        -0.0398 
     18 CA         -0.9315  -18.6994  -47.5771 C.3       11 UNK         0.1400 
     19 N           0.0208  -19.1842  -46.5761 N.am      11 UNK        -0.5000 
     20 C           0.7314  -20.3166  -46.6670 C.2       10 UNK         0.5000 
     21 O           0.7339  -21.0490  -47.6541 O.2       10 UNK        -0.5000 
     22 CA          1.5078  -20.7475  -45.4113 C.3       10 UNK         0.1400 
     23 CB          2.9256  -20.1578  -45.3820 C.3       10 UNK        -0.1800 
     24 N           0.7841  -20.4081  -44.1836 N.am      10 UNK        -0.5000 
     25 C          -0.3163  -21.0548  -43.7784 C.2       9 UNK         0.5000 
     26 O          -0.8286  -21.9832  -44.4045 O.2       9 UNK        -0.5000 
     27 CA         -0.9524  -20.5923  -42.4587 C.3       9 UNK         0.1400 
     28 CB         -0.1147  -21.0626  -41.2596 C.3       9 UNK        -0.1800 
     29 N          -1.1649  -19.1478  -42.3626 N.am      9 UNK        -0.5000 
     30 C          -2.0585  -18.4573  -43.0839 C.2       8 UNK         0.5000 
     31 O          -2.6361  -18.9127  -44.0705 O.2       8 UNK        -0.5000 
     32 CA         -2.3736  -17.0260  -42.6139 C.3       8 UNK         0.1400 
     33 CB         -2.6823  -16.9602  -41.1073 C.3       8 UNK        -0.1800 
     34 N          -1.2488  -16.1541  -42.9144 N.am      8 UNK        -0.5000 
     35 C          -1.1510  -15.3750  -43.9982 C.2       7 UNK         0.5000 
     36 O          -2.0862  -15.1523  -44.7667 O.2       7 UNK        -0.5000 
     37 CA          0.2310  -14.7594  -44.3005 C.3       7 UNK         0.1400 
     38 CB          0.2395  -13.2548  -43.9953 C.3       7 UNK        -0.1800 
     39 N           1.3403  -15.4033  -43.5913 N.am      7 UNK        -0.5000 
     40 C           1.7106  -16.6803  -43.7485 C.2       6 UNK         0.5000 
     41 O           1.1832  -17.4449  -44.5541 O.2       6 UNK        -0.5000 
     42 CA          2.7933  -17.2104  -42.7943 C.3       6 UNK         0.1400 
     43 CB          4.1980  -16.9230  -43.3423 C.3       6 UNK        -0.1800 
     44 N           2.6602  -16.6418  -41.4521 N.am      6 UNK        -0.5000 
     45 C           1.6906  -16.9625  -40.5835 C.2       5 UNK         0.5000 
     46 O           0.8182  -17.7993  -40.8150 O.2       5 UNK        -0.5000 
     47 CA          1.6660  -16.1869  -39.2536 C.3       5 UNK         0.1400 
     48 CB          2.6816  -16.7763  -38.2638 C.3       5 UNK        -0.1800 
     49 N           1.9349  -14.7598  -39.4359 N.am      5 UNK        -0.5000 
     50 C           1.1039  -13.9065  -40.0516 C.2       4 UNK         0.5000 
     51 O          -0.0123  -14.2210  -40.4638 O.2       4 UNK        -0.5000 
     52 CA          1.6173  -12.4682  -40.2766 C.3       4 UNK         0.1400 
     53 CB          1.1951  -11.5627  -39.1100 C.3       4 UNK        -0.1800 
     54 N           3.0688  -12.3573  -40.4694 N.am      4 UNK        -0.5000 
     55 C           3.7814  -12.9951  -41.4084 C.2       3 UNK         0.5000 
     56 O           3.2878  -13.8017  -42.1996 O.2       3 UNK        -0.5000 
     57 CA          5.2996  -12.7195  -41.4187 C.3       3 UNK         0.1400 
     58 CB          5.9489  -13.2110  -40.1130 C.3       3 UNK        -0.1800 
     59 N           5.9873  -13.3690  -42.5361 N.am      3 UNK        -0.5000 
     60 C           5.8734  -13.0415  -43.8295 C.2       2 UNK         0.5000 
     61 O           5.2067  -12.0901  -44.2402 O.2       2 UNK        -0.5000 
     62 CA          6.6157  -13.9285  -44.8444 C.3       2 UNK         0.1400 
     63 CB          7.5105  -15.0196  -44.2092 C.3       2 UNK        -0.1800 
     64 N           5.6202  -14.5288  -45.7262 N.am      2 UNK        -0.5000 
     65 C           5.8596  -15.0718  -46.9259 C.2       1 UNK         0.5000 
     66 O           6.9770  -15.1260  -47.4403 O.2       1 UNK        -0.5000 
     67 C          -2.0739  -19.7140  -47.7980 C.2       11 UNK         0.5000 
     68 O          -2.3384  -20.0850  -48.9411 O.2       11 UNK        -0.5000 
     69 N          -2.6900  -20.1925  -46.7054 N.am      12 UNK        -0.5000 
     70 CA         -3.7334  -21.2193  -46.7359 C.3       12 UNK         0.1400 
     71 CB         -4.3263  -21.4079  -45.3323 C.3       12 UNK        -0.1800 
     72 C          -3.2440  -22.5629  -47.3046 C.2       12 UNK         0.5000 
     73 O          -3.9896  -23.2060  -48.0435 O.2       12 UNK        -0.5000 
     74 N          -2.0007  -22.9466  -46.9823 N.am      13 UNK        -0.5000 
     75 CA         -1.3365  -24.1323  -47.5228 C.3       13 UNK         0.1400 
     76 CB         -0.0515  -24.4191  -46.7320 C.3       13 UNK        -0.1800 
     77 C          -1.0458  -24.0094  -49.0303 C.2       13 UNK         0.5000 
     78 O          -1.3445  -24.9421  -49.7756 O.2       13 UNK        -0.5000 
     79 N          -0.5114  -22.8562  -49.4596 N.am      14 UNK        -0.5000 
     80 CA         -0.2317  -22.5271  -50.8613 C.3       14 UNK         0.1400 
     81 CB          0.5439  -21.2017  -50.9365 C.3       14 UNK        -0.1800 
     82 C          -1.5063  -22.4599  -51.7221 C.2       14 UNK         0.5000 
     83 O          -1.5131  -22.9544  -52.8502 O.2       14 UNK        -0.5000 
     84 N          -2.5752  -21.8882  -51.1534 N.am      15 UNK        -0.5000 
     85 CA         -3.9041  -21.8233  -51.7546 C.3       15 UNK         0.1400 
     86 CB         -4.7195  -20.7375  -51.0377 C.3       15 UNK        -0.1800 
     87 C          -4.6594  -23.1661  -51.7252 C.2       15 UNK         0.5000 
     88 O          -5.6790  -23.2869  -52.4075 O.2       15 UNK        -0.5000 
     89 N          -4.1811  -24.1261  -50.9207 N.am      16 UNK        -0.5000 
     90 CA         -4.7782  -25.4314  -50.6226 C.3       16 UNK         0.1400 
     91 CB         -4.7179  -26.3523  -51.8574 C.3       16 UNK        -0.1800 
     92 C          -6.2010  -25.2861  -50.0484 C.2       16 UNK         0.5000 
     93 O          -7.1414  -25.8957  -50.5564 O.2       16 UNK        -0.5000 
     94 N          -6.3423  -24.4068  -49.0453 N.am      17 UNK        -0.5000 
     95 CA         -7.6041  -23.9734  -48.4285 C.3       17 UNK         0.1400 
     96 CB         -8.2441  -25.1246  -47.6255 C.3       17 UNK        -0.1800 
     97 C          -8.5761  -23.3311  -49.4465 C.2       17 UNK         0.5000 
     98 O          -9.7914  -23.5022  -49.3430 O.2       17 UNK        -0.5000 
     99 N          -7.9959  -22.6197  -50.4243 N.am      18 UNK        -0.5000 
    100 CA        -8.6222  -21.9620  -51.5759 C.3       18 UNK         0.1400 
    101 CB        -9.6766  -20.9254  -51.1358 C.3       18 UNK        -0.1800 
    102 C         -9.1492  -22.9279  -52.6586 C.2       18 UNK         0.5000 
    103 O         -9.8357  -22.4734  -53.5751 O.2       18 UNK        -0.5000 
    104 N         -8.8053  -24.2231  -52.5797 N.am      19 UNK        -0.5000 
    105 CA        -9.1479  -25.2138  -53.6032 C.3       19 UNK         0.1400 
    106 CB        -9.0556  -26.6298  -53.0159 C.3       19 UNK        -0.1800 
    107 C         -8.2577  -25.0928  -54.8536 C.2       19 UNK         0.5000 
    108 O         -8.7433  -25.3253  -55.9615 O.2       19 UNK        -0.5000 
    109 N         -6.9825  -24.7291  -54.6580 N.am      20 UNK        -0.5000 
    110 CA        -6.0147  -24.5007  -55.7323 C.3       20 UNK         0.1400 
    111 CB        -4.6529  -25.0897  -55.3311 C.3       20 UNK        -0.1800 
    112 C         -5.8704  -23.0036  -56.0432 C.2       20 UNK         0.5000 
    113 O         -5.6384  -22.6464  -57.1988 O.2       20 UNK        -0.5000 
    114 N         -5.9799  -22.1601  -55.0037 N.am      21 UNK        -0.5000 
    115 CA        -5.8791  -20.6945  -55.0301 C.3       21 UNK         0.1400 
    116 CB        -7.1216  -20.0905  -55.7146 C.3       21 UNK        -0.1800 
    117 C         -4.5493  -20.1773  -55.6274 C.2       21 UNK         0.5000 
    118 O         -4.5252  -19.1176  -56.2549 O.2       21 UNK        -0.5000 
    119 N         -3.4767  -20.9589  -55.4353 N.am      22 UNK        -0.5000 
    120 CA        -2.1321  -20.7744  -56.0078 C.3       22 UNK         0.1400 
    121 C         -2.0508  -21.0129  -57.5490 C.2       22 UNK         0.5000 
    122 N         -3.0611  -21.5813  -58.1984 N.am      22 UNK        -0.7600 
    123 O         -1.0365  -20.7093  -58.1715 O.2       22 UNK        -0.5000 
    124 C124       -1.4450  -19.4468  -55.5783 C.3       23 UNK        -0.0398 
    125 S125       -1.2822  -19.2590  -53.7705 S.3       23 UNK        -0.2404 
    126 C126       -0.3166  -17.7199  -53.7300 C.3       23 UNK        -0.0205 
    127 H127        4.5794  -12.7105  -47.9999 H         1 UNK         0.0600 
    128 H128        3.0504  -12.0135  -48.5158 H         1 UNK         0.0600 
    129 H129        3.7278  -13.3670  -49.4126 H         1 UNK         0.0600 
    130 H130        2.8258  -15.7487  -46.6414 H         1 UNK         0.3000 
    131 H131        4.7767  -15.3345  -48.7284 H         1 UNK         0.0600 
    132 H132        5.5588  -17.5547  -48.2529 H         1 UNK         0.0800 
    133 H133        4.8529  -17.5680  -46.6619 H         1 UNK         0.0800 
    134 H134        3.6149  -18.3418  -50.6569 H         1 UNK         0.0800 
    135 H135        3.7921  -16.6580  -50.2371 H         1 UNK         0.0800 
    136 H136        2.0456  -18.1989  -52.4589 H         1 UNK         0.1150 
    137 H137       -1.7896  -16.3765  -51.8721 H         1 UNK         0.1150 
    138 H138        1.1797  -16.1360  -48.7997 H         1 UNK         0.1150 
    139 H139       -0.8342  -14.7981  -48.6291 H         1 UNK         0.0800 
    140 H140       -1.9508  -14.7199  -49.9670 H         1 UNK         0.0800 
    141 H141       -2.0205  -17.3312  -46.2862 H         1 UNK         0.0800 
    142 H142       -0.6115  -16.6224  -47.0178 H         1 UNK         0.0800 
    143 H143       -0.3837  -18.6278  -48.5183 H         1 UNK         0.0600 
    144 H144        0.1433  -18.6188  -45.7420 H         1 UNK         0.3000 
    145 H145        1.6126  -21.8338  -45.4469 H         1 UNK         0.0600 
    146 H146        3.4601  -20.4504  -44.4783 H         1 UNK         0.0600 
    147 H147        3.5059  -20.5149  -46.2335 H         1 UNK         0.0600 
    148 H148        2.9197  -19.0712  -45.4344 H         1 UNK         0.0600 
    149 H149        1.0953  -19.5962  -43.6710 H         1 UNK         0.3000 
    150 H150       -1.9311  -21.0717  -42.3873 H         1 UNK         0.0600 
    151 H151        0.0373  -22.1424  -41.2873 H         1 UNK         0.0600 
    152 H152       -0.6103  -20.8285  -40.3173 H         1 UNK         0.0600 
    153 H153        0.8692  -20.5921  -41.2445 H         1 UNK         0.0600 
    154 H154       -0.6460  -18.6696  -41.6306 H         1 UNK         0.3000 
    155 H155       -3.2670  -16.6936  -43.1467 H         1 UNK         0.0600 
    156 H156       -1.8154  -17.2059  -40.4938 H         1 UNK         0.0600 
    157 H157       -3.4826  -17.6519  -40.8417 H         1 UNK         0.0600 
    158 H158       -3.0097  -15.9600  -40.8230 H         1 UNK         0.0600 
    159 H159       -0.4292  -16.2623  -42.3338 H         1 UNK         0.3000 
    160 H160        0.4041  -14.8980  -45.3676 H         1 UNK         0.0600 
    161 H161       -0.0219  -13.0572  -42.9569 H         1 UNK         0.0600 
    162 H162       -0.4836  -12.7295  -44.6201 H         1 UNK         0.0600 
    163 H163        1.2181  -12.8154  -44.1911 H         1 UNK         0.0600 
    164 H164        1.8690  -14.8245  -42.9438 H         1 UNK         0.3000 
    165 H165        2.6747  -18.2933  -42.7210 H         1 UNK         0.0600 
    166 H166        4.9671  -17.3370  -42.6903 H         1 UNK         0.0600 
    167 H167        4.3336  -17.3698  -44.3267 H         1 UNK         0.0600 
    168 H168        4.3819  -15.8541  -43.4397 H         1 UNK         0.0600 
    169 H169        3.2833  -15.8801  -41.2242 H         1 UNK         0.3000 
    170 H170        0.6680  -16.2956  -38.8233 H         1 UNK         0.0600 
    171 H171        2.4948  -17.8385  -38.1000 H         1 UNK         0.0600 
    172 H172        3.7057  -16.6748  -38.6253 H         1 UNK         0.0600 
    173 H173        2.6177  -16.2831  -37.2937 H         1 UNK         0.0600 
    174 H174        2.8285  -14.4154  -39.1180 H         1 UNK         0.3000 
    175 H175        1.1432  -12.0906  -41.1835 H         1 UNK         0.0600 
    176 H176        1.6713  -11.8622  -38.1755 H         1 UNK         0.0600 
    177 H177        1.4563  -10.5219  -39.3026 H         1 UNK         0.0600 
    178 H178        0.1158  -11.6012  -38.9556 H         1 UNK         0.0600 
    179 H179        3.5485  -11.7215  -39.8485 H         1 UNK         0.3000 
    180 H180        5.4460  -11.6410  -41.5046 H         1 UNK         0.0600 
    181 H181        5.8018  -14.2823  -39.9687 H         1 UNK         0.0600 
    182 H182        5.5344  -12.7022  -39.2420 H         1 UNK         0.0600 
    183 H183        7.0221  -13.0184  -40.1109 H         1 UNK         0.0600 
    184 H184        6.5389  -14.1809  -42.3026 H         1 UNK         0.3000 
    185 H185        7.2491  -13.2630  -45.4346 H         1 UNK         0.0600 
    186 H186        8.2467  -14.5836  -43.5327 H         1 UNK         0.0600 
    187 H187        6.9287  -15.7525  -43.6499 H         1 UNK         0.0600 
    188 H188        8.0715  -15.5622  -44.9699 H         1 UNK         0.0600 
    189 H189        4.6625  -14.4572  -45.4092 H         1 UNK         0.3000 
    190 H190       -2.4478  -19.8230  -45.7903 H         1 UNK         0.3000 
    191 H191       -4.5291  -20.8590  -47.3910 H         1 UNK         0.0600 
    192 H192       -3.5682  -21.7182  -44.6127 H         1 UNK         0.0600 
    193 H193       -5.1081  -22.1686  -45.3362 H         1 UNK         0.0600 
    194 H194       -4.7748  -20.4838  -44.9676 H         1 UNK         0.0600 
    195 H195       -1.4767  -22.3904  -46.3152 H         1 UNK         0.3000 
    196 H196       -2.0097  -24.9808  -47.3834 H         1 UNK         0.0600 
    197 H197        0.4236  -25.3362  -47.0822 H         1 UNK         0.0600 
    198 H198       -0.2617  -24.5459  -45.6699 H         1 UNK         0.0600 
    199 H199        0.6761  -23.6149  -46.8352 H         1 UNK         0.0600 
    200 H200       -0.2533  -22.1493  -48.7738 H         1 UNK         0.3000 
    201 H201        0.4028  -23.3167  -51.2684 H         1 UNK         0.0600 
    202 H202        1.4843  -21.2605  -50.3884 H         1 UNK         0.0600 
    203 H203       -0.0311  -20.3725  -50.5219 H         1 UNK         0.0600 
    204 H204        0.7844  -20.9467  -51.9692 H         1 UNK         0.0600 
    205 H205       -2.4622  -21.4302  -50.2511 H         1 UNK         0.3000 
    206 H206       -3.7919  -21.5300  -52.7973 H         1 UNK         0.0600 
    207 H207       -4.2099  -19.7742  -51.0794 H         1 UNK         0.0600 
    208 H208       -5.6964  -20.6025  -51.4999 H         1 UNK         0.0600 
    209 H209       -4.8802  -20.9838  -49.9874 H         1 UNK         0.0600 
    210 H210       -3.3438  -23.9129  -50.3944 H         1 UNK         0.3000 
    211 H211       -4.1670  -25.8807  -49.8386 H         1 UNK         0.0600 
    212 H212       -5.3787  -26.0084  -52.6517 H         1 UNK         0.0600 
    213 H213       -5.0230  -27.3669  -51.5996 H         1 UNK         0.0600 
    214 H214       -3.7066  -26.4075  -52.2602 H         1 UNK         0.0600 
    215 H215       -5.4992  -23.9496  -48.6976 H         1 UNK         0.3000 
    216 H216       -7.3417  -23.1851  -47.7215 H         1 UNK         0.0600 
    217 H217       -9.1039  -24.7724  -47.0546 H         1 UNK         0.0600 
    218 H218       -7.5358  -25.5495  -46.9143 H         1 UNK         0.0600 
    219 H219       -8.5909  -25.9289  -48.2750 H         1 UNK         0.0600 
    220 H220       -6.9866  -22.6050  -50.4308 H         1 UNK         0.3000 
    221 H221       -7.8213  -21.4074  -52.0643 H         1 UNK         0.0600 
    222 H222      -10.5691  -21.3998  -50.7276 H         1 UNK         0.0600 
    223 H223       -9.2761  -20.2515  -50.3784 H         1 UNK         0.0600 
    224 H224       -9.9948  -20.3102  -51.9782 H         1 UNK         0.0600 
    225 H225       -8.2391  -24.5462  -51.8034 H         1 UNK         0.3000 
    226 H226      -10.1833  -25.0496  -53.9099 H         1 UNK         0.0600 
    227 H227       -9.6368  -26.7184  -52.0979 H         1 UNK         0.0600 
    228 H228       -9.4432  -27.3664  -53.7206 H         1 UNK         0.0600 
    229 H229       -8.0256  -26.9084  -52.7916 H         1 UNK         0.0600 
    230 H230       -6.6749  -24.5160  -53.7159 H         1 UNK         0.3000 
    231 H231       -6.3379  -25.0015  -56.6473 H         1 UNK         0.0600 
    232 H232       -4.7294  -26.1596  -55.1368 H         1 UNK         0.0600 
    233 H233       -4.2486  -24.6146  -54.4368 H         1 UNK         0.0600 
    234 H234       -3.9213  -24.9572  -56.1292 H         1 UNK         0.0600 
    235 H235       -6.1050  -22.5715  -54.0836 H         1 UNK         0.3000 
    236 H236       -5.8878  -20.3675  -53.9899 H         1 UNK         0.0600 
    237 H237       -7.1543  -20.3334  -56.7772 H         1 UNK         0.0600 
    238 H238       -8.0402  -20.4601  -55.2580 H         1 UNK         0.0600 
    239 H239       -7.1309  -19.0037  -55.6255 H         1 UNK         0.0600 
    240 H240       -3.6057  -21.8205  -54.9277 H         1 UNK         0.3000 
    241 H241       -1.5373  -21.5845  -55.5842 H         1 UNK         0.0600 
    242 H242       -2.9791  -21.7349  -59.1908 H         1 UNK         0.3800 
    243 H243       -3.9172  -21.8515  -57.7249 H         1 UNK         0.3800 
    244 H244       -1.9812  -18.5852  -55.9776 H         1 UNK         0.0800 
    245 H245       -0.4390  -19.3952  -55.9978 H         1 UNK         0.0800 
    246 H246       -0.9019  -16.9169  -54.1807 H         1 UNK         0.0800 
    247 H247        0.5735  -17.8348  -54.3507 H         1 UNK         0.0800 
@<TRIPOS>BOND
     1    1    2 1    
     2    1  127 1    
     3    1  128 1    
     4    1  129 1    
     5    2    3 2    
     6    2    4 am   BACKBONE|DICT|INTERRES
     7    4    5 1    
     8    4  130 1    
     9    5    6 1    
    10    5   65 1    
    11    5  131 1    
    12    6    7 1    
    13    6  132 1    
    14    6  133 1    
    15    7    8 1    
    16    8    9 1    
    17    8  134 1    
    18    8  135 1    
    19    9   10 ar   
    20    9   14 ar   
    21   10   11 ar   
    22   10  136 1    
    23   11   12 ar   
    24   11  126 1    
    25   12   13 ar   
    26   12  137 1    
    27   13   14 ar   
    28   13   15 1    
    29   14  138 1    
    30   15   16 1    
    31   15  139 1    
    32   15  140 1    
    33   16   17 1    
    34   17   18 1    
    35   17  141 1    
    36   17  142 1    
    37   18   19 1    
    38   18   67 1    
    39   18  143 1    
    40   19   20 am   BACKBONE|DICT|INTERRES
    41   19  144 1    
    42   20   21 2    
    43   20   22 1    
    44   22   23 1    
    45   22   24 1    
    46   22  145 1    
    47   23  146 1    
    48   23  147 1    
    49   23  148 1    
    50   24   25 am   BACKBONE|DICT|INTERRES
    51   24  149 1    
    52   25   26 2    
    53   25   27 1    
    54   27   28 1    
    55   27   29 1    
    56   27  150 1    
    57   28  151 1    
    58   28  152 1    
    59   28  153 1    
    60   29   30 am   BACKBONE|DICT|INTERRES
    61   29  154 1    
    62   30   31 2    
    63   30   32 1    
    64   32   33 1    
    65   32   34 1    
    66   32  155 1    
    67   33  156 1    
    68   33  157 1    
    69   33  158 1    
    70   34   35 am   BACKBONE|DICT|INTERRES
    71   34  159 1    
    72   35   36 2    
    73   35   37 1    
    74   37   38 1    
    75   37   39 1    
    76   37  160 1    
    77   38  161 1    
    78   38  162 1    
    79   38  163 1    
    80   39   40 am   BACKBONE|DICT|INTERRES
    81   39  164 1    
    82   40   41 2    
    83   40   42 1    
    84   42   43 1    
    85   42   44 1    
    86   42  165 1    
    87   43  166 1    
    88   43  167 1    
    89   43  168 1    
    90   44   45 am   BACKBONE|DICT|INTERRES
    91   44  169 1    
    92   45   46 2    
    93   45   47 1    
    94   47   48 1    
    95   47   49 1    
    96   47  170 1    
    97   48  171 1    
    98   48  172 1    
    99   48  173 1    
   100   49   50 am   BACKBONE|DICT|INTERRES
   101   49  174 1    
   102   50   51 2    
   103   50   52 1    
   104   52   53 1    
   105   52   54 1    
   106   52  175 1    
   107   53  176 1    
   108   53  177 1    
   109   53  178 1    
   110   54   55 am   BACKBONE|DICT|INTERRES
   111   54  179 1    
   112   55   56 2    
   113   55   57 1    
   114   57   58 1    
   115   57   59 1    
   116   57  180 1    
   117   58  181 1    
   118   58  182 1    
   119   58  183 1    
   120   59   60 am   BACKBONE|DICT|INTERRES
   121   59  184 1    
   122   60   61 2    
   123   60   62 1    
   124   62   63 1    
   125   62   64 1    
   126   62  185 1    
   127   63  186 1    
   128   63  187 1    
   129   63  188 1    
   130   64   65 am   BACKBONE|DICT|INTERRES
   131   64  189 1    
   132   65   66 2    
   133   67   68 2    
   134   67   69 am   BACKBONE|DICT|INTERRES
   135   69   70 1    
   136   69  190 1    
   137   70   71 1    
   138   70   72 1    
   139   70  191 1    
   140   71  192 1    
   141   71  193 1    
   142   71  194 1    
   143   72   73 2    
   144   72   74 am   BACKBONE|DICT|INTERRES
   145   74   75 1    
   146   74  195 1    
   147   75   76 1    
   148   75   77 1    
   149   75  196 1    
   150   76  197 1    
   151   76  198 1    
   152   76  199 1    
   153   77   78 2    
   154   77   79 am   BACKBONE|DICT|INTERRES
   155   79   80 1    
   156   79  200 1    
   157   80   81 1    
   158   80   82 1    
   159   80  201 1    
   160   81  202 1    
   161   81  203 1    
   162   81  204 1    
   163   82   83 2    
   164   82   84 am   BACKBONE|DICT|INTERRES
   165   84   85 1    
   166   84  205 1    
   167   85   86 1    
   168   85   87 1    
   169   85  206 1    
   170   86  207 1    
   171   86  208 1    
   172   86  209 1    
   173   87   88 2    
   174   87   89 am   BACKBONE|DICT|INTERRES
   175   89   90 1    
   176   89  210 1    
   177   90   91 1    
   178   90   92 1    
   179   90  211 1    
   180   91  212 1    
   181   91  213 1    
   182   91  214 1    
   183   92   93 2    
   184   92   94 am   BACKBONE|DICT|INTERRES
   185   94   95 1    
   186   94  215 1    
   187   95   96 1    
   188   95   97 1    
   189   95  216 1    
   190   96  217 1    
   191   96  218 1    
   192   96  219 1    
   193   97   98 2    
   194   97   99 am   BACKBONE|DICT|INTERRES
   195   99  100 1    
   196   99  220 1    
   197  100  101 1    
   198  100  102 1    
   199  100  221 1    
   200  101  222 1    
   201  101  223 1    
   202  101  224 1    
   203  102  103 2    
   204  102  104 am   BACKBONE|DICT|INTERRES
   205  104  105 1    
   206  104  225 1    
   207  105  106 1    
   208  105  107 1    
   209  105  226 1    
   210  106  227 1    
   211  106  228 1    
   212  106  229 1    
   213  107  108 2    
   214  107  109 am   BACKBONE|DICT|INTERRES
   215  109  110 1    
   216  109  230 1    
   217  110  111 1    
   218  110  112 1    
   219  110  231 1    
   220  111  232 1    
   221  111  233 1    
   222  111  234 1    
   223  112  113 2    
   224  112  114 am   BACKBONE|DICT|INTERRES
   225  114  115 1    
   226  114  235 1    
   227  115  116 1    
   228  115  117 1    
   229  115  236 1    
   230  116  237 1    
   231  116  238 1    
   232  116  239 1    
   233  117  118 2    
   234  117  119 am   BACKBONE|DICT|INTERRES
   235  119  120 1    
   236  119  240 1    
   237  120  121 1    
   238  120  124 1    
   239  120  241 1    
   240  121  122 am   BACKBONE|DICT|INTERRES
   241  121  123 2    
   242  122  242 1    
   243  122  243 1    
   244  124  125 1    
   245  124  244 1    
   246  124  245 1    
   247  125  126 1    
   248  126  246 1    
   249  126  247 1    
@<TRIPOS>SUBSTRUCTURE
     1 UNK         1 GROUP             0       ****    0 ROOT    
