@<TRIPOS>MOLECULE
3R540
247   249    1
SMALL
USER_CHARGES


@<TRIPOS>ATOM
      1 CA         -4.6435  -14.9388  -48.0147 C.3       0 UNK        -0.1800 
      2 C          -3.8020  -13.8385  -48.6454 C.2       0 UNK         0.5000 
      3 O          -4.3529  -12.8949  -49.2133 O.2       0 UNK        -0.5000 
      4 N          -2.4726  -13.9553  -48.5455 N.am      1 UNK        -0.5000 
      5 CA         -1.5051  -12.9523  -49.0052 C.3       1 UNK         0.1400 
      6 C6         -0.0739  -13.5377  -49.1071 C.3       23 UNK        -0.0398 
      7 S7          0.0083  -14.8525  -50.3662 S.3       23 UNK        -0.2404 
      8 C8          1.3567  -15.9164  -49.7414 C.3       23 UNK        -0.0205 
      9 C9          1.4477  -17.2572  -50.4707 C.ar      23 UNK        -0.0193 
     10 C10         1.2222  -17.3464  -51.8482 C.ar      23 UNK        -0.1150 
     11 C11         1.2581  -18.5792  -52.5008 C.ar      23 UNK        -0.0193 
     12 C12         1.5573  -19.7339  -51.7744 C.ar      23 UNK        -0.1150 
     13 C13         1.8255  -19.6666  -50.4035 C.ar      23 UNK        -0.0193 
     14 C14         1.7675  -18.4206  -49.7603 C.ar      23 UNK        -0.1150 
     15 C15         2.2357  -20.9484  -49.6752 C.3       23 UNK        -0.0205 
     16 S16         1.8533  -20.9920  -47.8910 S.3       23 UNK        -0.2404 
     17 C17         0.1233  -21.5664  -47.8669 C.3       23 UNK        -0.0398 
     18 CA         -0.0282  -22.9274  -47.1403 C.3       11 UNK         0.1400 
     19 N           0.2569  -22.8307  -45.7022 N.am      11 UNK        -0.5000 
     20 C           0.3054  -23.8681  -44.8529 C.2       10 UNK         0.5000 
     21 O           0.1890  -25.0408  -45.2043 O.2       10 UNK        -0.5000 
     22 CA          0.4369  -23.5449  -43.3515 C.3       10 UNK         0.1400 
     23 CB          1.9004  -23.2979  -42.9571 C.3       10 UNK        -0.1800 
     24 N          -0.3950  -22.4083  -42.9501 N.am      10 UNK        -0.5000 
     25 C          -1.7358  -22.4070  -42.9896 C.2       9 UNK         0.5000 
     26 O          -2.4066  -23.3899  -43.3004 O.2       9 UNK        -0.5000 
     27 CA         -2.4492  -21.0768  -42.6897 C.3       9 UNK         0.1400 
     28 CB         -2.6769  -20.8942  -41.1817 C.3       9 UNK        -0.1800 
     29 N          -1.7168  -19.9312  -43.2275 N.am      9 UNK        -0.5000 
     30 C          -1.5961  -19.6618  -44.5354 C.2       8 UNK         0.5000 
     31 O          -2.1516  -20.3114  -45.4232 O.2       8 UNK        -0.5000 
     32 CA         -0.6464  -18.5097  -44.9132 C.3       8 UNK         0.1400 
     33 CB         -1.3811  -17.1607  -44.8976 C.3       8 UNK        -0.1800 
     34 N           0.5303  -18.4469  -44.0419 N.am      8 UNK        -0.5000 
     35 C           1.4936  -19.3819  -44.0320 C.2       7 UNK         0.5000 
     36 O           1.4709  -20.3760  -44.7520 O.2       7 UNK        -0.5000 
     37 CA          2.6419  -19.2243  -43.0165 C.3       7 UNK         0.1400 
     38 CB          3.7600  -18.3501  -43.6030 C.3       7 UNK        -0.1800 
     39 N           2.2092  -18.6598  -41.7400 N.am      7 UNK        -0.5000 
     40 C           1.2732  -19.1860  -40.9376 C.2       6 UNK         0.5000 
     41 O           0.7460  -20.2801  -41.1384 O.2       6 UNK        -0.5000 
     42 CA          0.8049  -18.3202  -39.7479 C.3       6 UNK         0.1400 
     43 CB          1.4522  -18.8077  -38.4435 C.3       6 UNK        -0.1800 
     44 N           1.0687  -16.8828  -39.9082 N.am      6 UNK        -0.5000 
     45 C           0.5997  -16.1169  -40.9032 C.2       5 UNK         0.5000 
     46 O          -0.1362  -16.5409  -41.8005 O.2       5 UNK        -0.5000 
     47 CA          1.0897  -14.6615  -40.9431 C.3       5 UNK         0.1400 
     48 CB          2.6138  -14.6064  -41.1836 C.3       5 UNK        -0.1800 
     49 N           0.3833  -13.9855  -42.0251 N.am      5 UNK        -0.5000 
     50 C           0.3792  -12.6776  -42.2890 C.2       4 UNK         0.5000 
     51 O           0.9504  -11.8289  -41.5993 O.2       4 UNK        -0.5000 
     52 CA         -0.4204  -12.2468  -43.5312 C.3       4 UNK         0.1400 
     53 CB         -1.7867  -11.6706  -43.1300 C.3       4 UNK        -0.1800 
     54 N           0.2996  -11.2569  -44.3285 N.am      4 UNK        -0.5000 
     55 C           1.4357  -11.4811  -45.0001 C.2       3 UNK         0.5000 
     56 O           2.0127  -12.5700  -45.0236 O.2       3 UNK        -0.5000 
     57 CA          1.9664  -10.2998  -45.8387 C.3       3 UNK         0.1400 
     58 CB          3.3432  -10.5835  -46.4661 C.3       3 UNK        -0.1800 
     59 N           1.0182   -9.9875  -46.9071 N.am      3 UNK        -0.5000 
     60 C          -0.0881   -9.2452  -46.7674 C.2       2 UNK         0.5000 
     61 O          -0.3638   -8.6169  -45.7442 O.2       2 UNK        -0.5000 
     62 CA         -1.0809   -9.2624  -47.9458 C.3       2 UNK         0.1400 
     63 CB         -0.7433   -8.1530  -48.9534 C.3       2 UNK        -0.1800 
     64 N          -1.1362  -10.5528  -48.6446 N.am      2 UNK        -0.5000 
     65 C          -1.5253  -11.7105  -48.0887 C.2       1 UNK         0.5000 
     66 O          -1.8643  -11.8222  -46.9078 O.2       1 UNK        -0.5000 
     67 C          -1.4195  -23.5440  -47.4014 C.2       11 UNK         0.5000 
     68 O          -1.5399  -24.4430  -48.2352 O.2       11 UNK        -0.5000 
     69 N          -2.4381  -23.0895  -46.6555 N.am      12 UNK        -0.5000 
     70 CA         -3.7969  -23.6349  -46.7000 C.3       12 UNK         0.1400 
     71 CB         -4.7463  -22.7374  -45.8940 C.3       12 UNK        -0.1800 
     72 C          -3.8738  -25.1015  -46.2369 C.2       12 UNK         0.5000 
     73 O          -4.5120  -25.9103  -46.9105 O.2       12 UNK        -0.5000 
     74 N          -3.1831  -25.4348  -45.1374 N.am      13 UNK        -0.5000 
     75 CA         -3.0670  -26.7958  -44.6024 C.3       13 UNK         0.1400 
     76 CB         -2.3591  -26.7529  -43.2402 C.3       13 UNK        -0.1800 
     77 C          -2.3482  -27.7680  -45.5593 C.2       13 UNK         0.5000 
     78 O          -2.7141  -28.9420  -45.6219 O.2       13 UNK        -0.5000 
     79 N          -1.3712  -27.2529  -46.3173 N.am      14 UNK        -0.5000 
     80 CA         -0.6561  -27.9606  -47.3815 C.3       14 UNK         0.1400 
     81 CB          0.6700  -27.2311  -47.6538 C.3       14 UNK        -0.1800 
     82 C          -1.4709  -28.1147  -48.6851 C.2       14 UNK         0.5000 
     83 O          -0.9839  -28.7582  -49.6156 O.2       14 UNK        -0.5000 
     84 N          -2.6764  -27.5260  -48.7396 N.am      15 UNK        -0.5000 
     85 CA         -3.6087  -27.4963  -49.8716 C.3       15 UNK         0.1400 
     86 CB         -4.0959  -28.9147  -50.2355 C.3       15 UNK        -0.1800 
     87 C          -3.0673  -26.7064  -51.0819 C.2       15 UNK         0.5000 
     88 O          -3.3908  -27.0265  -52.2270 O.2       15 UNK        -0.5000 
     89 N          -2.2736  -25.6677  -50.8013 N.am      16 UNK        -0.5000 
     90 CA         -1.7169  -24.7268  -51.7682 C.3       16 UNK         0.1400 
     91 CB         -0.2256  -25.0458  -51.9810 C.3       16 UNK        -0.1800 
     92 C          -1.9632  -23.3080  -51.2329 C.2       16 UNK         0.5000 
     93 O          -1.0189  -22.5334  -51.0832 O.2       16 UNK        -0.5000 
     94 N          -3.2338  -23.0422  -50.8884 N.am      17 UNK        -0.5000 
     95 CA         -3.7360  -21.8693  -50.1718 C.3       17 UNK         0.1400 
     96 CB         -5.2717  -21.9052  -50.1650 C.3       17 UNK        -0.1800 
     97 C          -3.2284  -20.5213  -50.7071 C.2       17 UNK         0.5000 
     98 O          -3.3485  -20.2520  -51.9047 O.2       17 UNK        -0.5000 
     99 N          -2.6945  -19.7140  -49.7810 N.am      18 UNK        -0.5000 
    100 CA        -2.0902  -18.4043  -50.0041 C.3       18 UNK         0.1400 
    101 CB        -1.7057  -17.8153  -48.6388 C.3       18 UNK        -0.1800 
    102 C         -3.0145  -17.4525  -50.7800 C.2       18 UNK         0.5000 
    103 O         -4.1531  -17.2350  -50.3614 O.2       18 UNK        -0.5000 
    104 N         -2.5189  -16.9598  -51.9206 N.am      19 UNK        -0.5000 
    105 CA        -3.1797  -16.1444  -52.9458 C.3       19 UNK         0.1400 
    106 CB        -3.6741  -14.8047  -52.3685 C.3       19 UNK        -0.1800 
    107 C         -4.3011  -16.8735  -53.7175 C.2       19 UNK         0.5000 
    108 O         -4.3760  -16.7366  -54.9386 O.2       19 UNK        -0.5000 
    109 N         -5.1478  -17.6258  -53.0056 N.am      20 UNK        -0.5000 
    110 CA        -6.3393  -18.3028  -53.5129 C.3       20 UNK         0.1400 
    111 CB        -7.1389  -18.8589  -52.3245 C.3       20 UNK        -0.1800 
    112 C         -6.0517  -19.4137  -54.5389 C.2       20 UNK         0.5000 
    113 O         -6.7313  -19.4749  -55.5645 O.2       20 UNK        -0.5000 
    114 N         -5.0651  -20.2727  -54.2514 N.am      21 UNK        -0.5000 
    115 CA        -4.7079  -21.4198  -55.0944 C.3       21 UNK         0.1400 
    116 CB        -4.2684  -22.5783  -54.1862 C.3       21 UNK        -0.1800 
    117 C         -3.5976  -21.0934  -56.1113 C.2       21 UNK         0.5000 
    118 O         -3.2653  -21.9438  -56.9381 O.2       21 UNK        -0.5000 
    119 N         -3.0190  -19.8927  -56.0127 N.am      22 UNK        -0.5000 
    120 CA        -1.8099  -19.4660  -56.7358 C.3       22 UNK         0.1400 
    121 C         -2.0325  -19.0909  -58.2303 C.2       22 UNK         0.5000 
    122 N         -3.2626  -19.0088  -58.7219 N.am      22 UNK        -0.7600 
    123 O         -1.0684  -18.8765  -58.9601 O.2       22 UNK        -0.5000 
    124 C124       -1.0743  -18.3273  -55.9829 C.3       23 UNK        -0.0398 
    125 S125       -0.8630  -18.6808  -54.2039 S.3       23 UNK        -0.2404 
    126 C126        0.9363  -18.6520  -53.9833 C.3       23 UNK        -0.0205 
    127 H127       -4.0289  -15.7647  -47.6564 H         1 UNK         0.0600 
    128 H128       -5.3497  -15.3355  -48.7442 H         1 UNK         0.0600 
    129 H129       -5.2091  -14.5422  -47.1716 H         1 UNK         0.0600 
    130 H130       -2.0819  -14.7374  -48.0438 H         1 UNK         0.3000 
    131 H131       -1.8115  -12.6274  -50.0022 H         1 UNK         0.0600 
    132 H132        0.6464  -12.7681  -49.3898 H         1 UNK         0.0800 
    133 H133        0.2516  -13.9269  -48.1405 H         1 UNK         0.0800 
    134 H134        2.3065  -15.3904  -49.8440 H         1 UNK         0.0800 
    135 H135        1.2034  -16.0874  -48.6748 H         1 UNK         0.0800 
    136 H136        0.9907  -16.4576  -52.4178 H         1 UNK         0.1150 
    137 H137        1.5871  -20.6886  -52.2810 H         1 UNK         0.1150 
    138 H138        1.9770  -18.3493  -48.7029 H         1 UNK         0.1150 
    139 H139        1.7859  -21.8195  -50.1552 H         1 UNK         0.0800 
    140 H140        3.3142  -21.0622  -49.7896 H         1 UNK         0.0800 
    141 H141       -0.2372  -21.6256  -48.8923 H         1 UNK         0.0800 
    142 H142       -0.4832  -20.8010  -47.3844 H         1 UNK         0.0800 
    143 H143        0.7019  -23.6184  -47.5671 H         1 UNK         0.0600 
    144 H144        0.4585  -21.9012  -45.3432 H         1 UNK         0.3000 
    145 H145        0.0879  -24.4163  -42.7941 H         1 UNK         0.0600 
    146 H146        1.9896  -23.0549  -41.8980 H         1 UNK         0.0600 
    147 H147        2.5037  -24.1878  -43.1399 H         1 UNK         0.0600 
    148 H148        2.3457  -22.4840  -43.5270 H         1 UNK         0.0600 
    149 H149        0.0839  -21.5734  -42.6319 H         1 UNK         0.3000 
    150 H150       -3.4276  -21.1086  -43.1737 H         1 UNK         0.0600 
    151 H151       -3.2779  -21.7110  -40.7803 H         1 UNK         0.0600 
    152 H152       -3.2093  -19.9663  -40.9726 H         1 UNK         0.0600 
    153 H153       -1.7404  -20.8766  -40.6252 H         1 UNK         0.0600 
    154 H154       -1.1952  -19.3714  -42.5686 H         1 UNK         0.3000 
    155 H155       -0.2956  -18.6920  -45.9303 H         1 UNK         0.0600 
    156 H156       -1.7590  -16.9184  -43.9040 H         1 UNK         0.0600 
    157 H157       -0.7255  -16.3500  -45.2157 H         1 UNK         0.0600 
    158 H158       -2.2355  -17.1737  -45.5749 H         1 UNK         0.0600 
    159 H159        0.5600  -17.6898  -43.3682 H         1 UNK         0.3000 
    160 H160        3.0501  -20.2171  -42.8183 H         1 UNK         0.0600 
    161 H161        4.6156  -18.2983  -42.9294 H         1 UNK         0.0600 
    162 H162        3.4181  -17.3316  -43.7922 H         1 UNK         0.0600 
    163 H163        4.1171  -18.7579  -44.5497 H         1 UNK         0.0600 
    164 H164        2.5939  -17.7616  -41.4901 H         1 UNK         0.3000 
    165 H165       -0.2760  -18.4502  -39.6637 H         1 UNK         0.0600 
    166 H166        1.0593  -18.2681  -37.5816 H         1 UNK         0.0600 
    167 H167        1.2518  -19.8675  -38.2797 H         1 UNK         0.0600 
    168 H168        2.5350  -18.6768  -38.4585 H         1 UNK         0.0600 
    169 H169        1.6720  -16.4632  -39.2152 H         1 UNK         0.3000 
    170 H170        0.8392  -14.1824  -39.9948 H         1 UNK         0.0600 
    171 H171        2.9802  -13.5803  -41.2038 H         1 UNK         0.0600 
    172 H172        2.8862  -15.0731  -42.1313 H         1 UNK         0.0600 
    173 H173        3.1627  -15.1193  -40.3934 H         1 UNK         0.0600 
    174 H174       -0.1509  -14.6239  -42.6031 H         1 UNK         0.3000 
    175 H175       -0.5910  -13.1201  -44.1649 H         1 UNK         0.0600 
    176 H176       -2.3773  -11.4113  -44.0092 H         1 UNK         0.0600 
    177 H177       -1.6812  -10.7733  -42.5188 H         1 UNK         0.0600 
    178 H178       -2.3627  -12.3960  -42.5541 H         1 UNK         0.0600 
    179 H179       -0.1163  -10.3365  -44.3937 H         1 UNK         0.3000 
    180 H180        2.0712   -9.4388  -45.1750 H         1 UNK         0.0600 
    181 H181        3.3089  -11.4289  -47.1544 H         1 UNK         0.0600 
    182 H182        4.0818  -10.8141  -45.6974 H         1 UNK         0.0600 
    183 H183        3.7096   -9.7175  -47.0178 H         1 UNK         0.0600 
    184 H184        1.1443  -10.4870  -47.7744 H         1 UNK         0.3000 
    185 H185       -2.0745   -9.0630  -47.5391 H         1 UNK         0.0600 
    186 H186        0.2295   -8.3137  -49.4196 H         1 UNK         0.0600 
    187 H187       -1.4910   -8.0975  -49.7449 H         1 UNK         0.0600 
    188 H188       -0.7164   -7.1777  -48.4654 H         1 UNK         0.0600 
    189 H189       -0.8801  -10.5393  -49.6216 H         1 UNK         0.3000 
    190 H190       -2.2701  -22.3325  -46.0017 H         1 UNK         0.3000 
    191 H191       -4.1288  -23.6187  -47.7387 H         1 UNK         0.0600 
    192 H192       -4.7345  -21.7140  -46.2696 H         1 UNK         0.0600 
    193 H193       -5.7735  -23.0977  -45.9619 H         1 UNK         0.0600 
    194 H194       -4.4792  -22.7087  -44.8382 H         1 UNK         0.0600 
    195 H195       -2.7269  -24.6978  -44.6049 H         1 UNK         0.3000 
    196 H196       -4.0786  -27.1760  -44.4467 H         1 UNK         0.0600 
    197 H197       -2.2993  -27.7488  -42.7995 H         1 UNK         0.0600 
    198 H198       -2.8958  -26.1169  -42.5360 H         1 UNK         0.0600 
    199 H199       -1.3419  -26.3715  -43.3280 H         1 UNK         0.0600 
    200 H200       -1.0824  -26.2950  -46.1446 H         1 UNK         0.3000 
    201 H201       -0.4217  -28.9667  -47.0283 H         1 UNK         0.0600 
    202 H202        1.2762  -27.1645  -46.7502 H         1 UNK         0.0600 
    203 H203        0.5036  -26.2179  -48.0202 H         1 UNK         0.0600 
    204 H204        1.2632  -27.7570  -48.4027 H         1 UNK         0.0600 
    205 H205       -2.9845  -27.0096  -47.9242 H         1 UNK         0.3000 
    206 H206       -4.4784  -26.9383  -49.5224 H         1 UNK         0.0600 
    207 H207       -4.4701  -29.4401  -49.3568 H         1 UNK         0.0600 
    208 H208       -4.9111  -28.8734  -50.9586 H         1 UNK         0.0600 
    209 H209       -3.3020  -29.5184  -50.6758 H         1 UNK         0.0600 
    210 H210       -2.0738  -25.4466  -49.8281 H         1 UNK         0.3000 
    211 H211       -2.2325  -24.8023  -52.7277 H         1 UNK         0.0600 
    212 H212        0.3380  -24.9633  -51.0505 H         1 UNK         0.0600 
    213 H213        0.2226  -24.3616  -52.7025 H         1 UNK         0.0600 
    214 H214       -0.0916  -26.0576  -52.3637 H         1 UNK         0.0600 
    215 H215       -3.9161  -23.7625  -51.0699 H         1 UNK         0.3000 
    216 H216       -3.3926  -21.9675  -49.1425 H         1 UNK         0.0600 
    217 H217       -5.6811  -21.0531  -49.6206 H         1 UNK         0.0600 
    218 H218       -5.6464  -22.8077  -49.6818 H         1 UNK         0.0600 
    219 H219       -5.6770  -21.8732  -51.1770 H         1 UNK         0.0600 
    220 H220       -2.7025  -20.0220  -48.8211 H         1 UNK         0.3000 
    221 H221       -1.1799  -18.5630  -50.5843 H         1 UNK         0.0600 
    222 H222       -2.5566  -17.7951  -47.9573 H         1 UNK         0.0600 
    223 H223       -0.9123  -18.4000  -48.1751 H         1 UNK         0.0600 
    224 H224       -1.3405  -16.7948  -48.7333 H         1 UNK         0.0600 
    225 H225       -1.5929  -17.2693  -52.1846 H         1 UNK         0.3000 
    226 H226       -2.4017  -15.9137  -53.6751 H         1 UNK         0.0600 
    227 H227       -2.8678  -14.2714  -51.8648 H         1 UNK         0.0600 
    228 H228       -4.0492  -14.1560  -53.1606 H         1 UNK         0.0600 
    229 H229       -4.4835  -14.9407  -51.6509 H         1 UNK         0.0600 
    230 H230       -4.9872  -17.6702  -52.0031 H         1 UNK         0.3000 
    231 H231       -6.9549  -17.5506  -54.0104 H         1 UNK         0.0600 
    232 H232       -6.5509  -19.5700  -51.7436 H         1 UNK         0.0600 
    233 H233       -8.0397  -19.3729  -52.6624 H         1 UNK         0.0600 
    234 H234       -7.4532  -18.0595  -51.6531 H         1 UNK         0.0600 
    235 H235       -4.5212  -20.1508  -53.3987 H         1 UNK         0.3000 
    236 H236       -5.5819  -21.7518  -55.6585 H         1 UNK         0.0600 
    237 H237       -5.0282  -22.8100  -53.4401 H         1 UNK         0.0600 
    238 H238       -4.0921  -23.4863  -54.7639 H         1 UNK         0.0600 
    239 H239       -3.3420  -22.3378  -53.6653 H         1 UNK         0.0600 
    240 H240       -3.3624  -19.2558  -55.3085 H         1 UNK         0.3000 
    241 H241       -1.1329  -20.3224  -56.7498 H         1 UNK         0.0600 
    242 H242       -4.0593  -19.1850  -58.1303 H         1 UNK         0.3800 
    243 H243       -3.3982  -18.7699  -59.6918 H         1 UNK         0.3800 
    244 H244       -0.0994  -18.1401  -56.4362 H         1 UNK         0.0800 
    245 H245       -1.6348  -17.3947  -56.0687 H         1 UNK         0.0800 
    246 H246        1.3622  -17.7881  -54.4960 H         1 UNK         0.0800 
    247 H247        1.3776  -19.5407  -54.4367 H         1 UNK         0.0800 
@<TRIPOS>BOND
     1    1    2 1    
     2    1  127 1    
     3    1  128 1    
     4    1  129 1    
     5    2    3 2    
     6    2    4 am   BACKBONE|DICT|INTERRES
     7    4    5 1    
     8    4  130 1    
     9    5    6 1    
    10    5   65 1    
    11    5  131 1    
    12    6    7 1    
    13    6  132 1    
    14    6  133 1    
    15    7    8 1    
    16    8    9 1    
    17    8  134 1    
    18    8  135 1    
    19    9   10 ar   
    20    9   14 ar   
    21   10   11 ar   
    22   10  136 1    
    23   11   12 ar   
    24   11  126 1    
    25   12   13 ar   
    26   12  137 1    
    27   13   14 ar   
    28   13   15 1    
    29   14  138 1    
    30   15   16 1    
    31   15  139 1    
    32   15  140 1    
    33   16   17 1    
    34   17   18 1    
    35   17  141 1    
    36   17  142 1    
    37   18   19 1    
    38   18   67 1    
    39   18  143 1    
    40   19   20 am   BACKBONE|DICT|INTERRES
    41   19  144 1    
    42   20   21 2    
    43   20   22 1    
    44   22   23 1    
    45   22   24 1    
    46   22  145 1    
    47   23  146 1    
    48   23  147 1    
    49   23  148 1    
    50   24   25 am   BACKBONE|DICT|INTERRES
    51   24  149 1    
    52   25   26 2    
    53   25   27 1    
    54   27   28 1    
    55   27   29 1    
    56   27  150 1    
    57   28  151 1    
    58   28  152 1    
    59   28  153 1    
    60   29   30 am   BACKBONE|DICT|INTERRES
    61   29  154 1    
    62   30   31 2    
    63   30   32 1    
    64   32   33 1    
    65   32   34 1    
    66   32  155 1    
    67   33  156 1    
    68   33  157 1    
    69   33  158 1    
    70   34   35 am   BACKBONE|DICT|INTERRES
    71   34  159 1    
    72   35   36 2    
    73   35   37 1    
    74   37   38 1    
    75   37   39 1    
    76   37  160 1    
    77   38  161 1    
    78   38  162 1    
    79   38  163 1    
    80   39   40 am   BACKBONE|DICT|INTERRES
    81   39  164 1    
    82   40   41 2    
    83   40   42 1    
    84   42   43 1    
    85   42   44 1    
    86   42  165 1    
    87   43  166 1    
    88   43  167 1    
    89   43  168 1    
    90   44   45 am   BACKBONE|DICT|INTERRES
    91   44  169 1    
    92   45   46 2    
    93   45   47 1    
    94   47   48 1    
    95   47   49 1    
    96   47  170 1    
    97   48  171 1    
    98   48  172 1    
    99   48  173 1    
   100   49   50 am   BACKBONE|DICT|INTERRES
   101   49  174 1    
   102   50   51 2    
   103   50   52 1    
   104   52   53 1    
   105   52   54 1    
   106   52  175 1    
   107   53  176 1    
   108   53  177 1    
   109   53  178 1    
   110   54   55 am   BACKBONE|DICT|INTERRES
   111   54  179 1    
   112   55   56 2    
   113   55   57 1    
   114   57   58 1    
   115   57   59 1    
   116   57  180 1    
   117   58  181 1    
   118   58  182 1    
   119   58  183 1    
   120   59   60 am   BACKBONE|DICT|INTERRES
   121   59  184 1    
   122   60   61 2    
   123   60   62 1    
   124   62   63 1    
   125   62   64 1    
   126   62  185 1    
   127   63  186 1    
   128   63  187 1    
   129   63  188 1    
   130   64   65 am   BACKBONE|DICT|INTERRES
   131   64  189 1    
   132   65   66 2    
   133   67   68 2    
   134   67   69 am   BACKBONE|DICT|INTERRES
   135   69   70 1    
   136   69  190 1    
   137   70   71 1    
   138   70   72 1    
   139   70  191 1    
   140   71  192 1    
   141   71  193 1    
   142   71  194 1    
   143   72   73 2    
   144   72   74 am   BACKBONE|DICT|INTERRES
   145   74   75 1    
   146   74  195 1    
   147   75   76 1    
   148   75   77 1    
   149   75  196 1    
   150   76  197 1    
   151   76  198 1    
   152   76  199 1    
   153   77   78 2    
   154   77   79 am   BACKBONE|DICT|INTERRES
   155   79   80 1    
   156   79  200 1    
   157   80   81 1    
   158   80   82 1    
   159   80  201 1    
   160   81  202 1    
   161   81  203 1    
   162   81  204 1    
   163   82   83 2    
   164   82   84 am   BACKBONE|DICT|INTERRES
   165   84   85 1    
   166   84  205 1    
   167   85   86 1    
   168   85   87 1    
   169   85  206 1    
   170   86  207 1    
   171   86  208 1    
   172   86  209 1    
   173   87   88 2    
   174   87   89 am   BACKBONE|DICT|INTERRES
   175   89   90 1    
   176   89  210 1    
   177   90   91 1    
   178   90   92 1    
   179   90  211 1    
   180   91  212 1    
   181   91  213 1    
   182   91  214 1    
   183   92   93 2    
   184   92   94 am   BACKBONE|DICT|INTERRES
   185   94   95 1    
   186   94  215 1    
   187   95   96 1    
   188   95   97 1    
   189   95  216 1    
   190   96  217 1    
   191   96  218 1    
   192   96  219 1    
   193   97   98 2    
   194   97   99 am   BACKBONE|DICT|INTERRES
   195   99  100 1    
   196   99  220 1    
   197  100  101 1    
   198  100  102 1    
   199  100  221 1    
   200  101  222 1    
   201  101  223 1    
   202  101  224 1    
   203  102  103 2    
   204  102  104 am   BACKBONE|DICT|INTERRES
   205  104  105 1    
   206  104  225 1    
   207  105  106 1    
   208  105  107 1    
   209  105  226 1    
   210  106  227 1    
   211  106  228 1    
   212  106  229 1    
   213  107  108 2    
   214  107  109 am   BACKBONE|DICT|INTERRES
   215  109  110 1    
   216  109  230 1    
   217  110  111 1    
   218  110  112 1    
   219  110  231 1    
   220  111  232 1    
   221  111  233 1    
   222  111  234 1    
   223  112  113 2    
   224  112  114 am   BACKBONE|DICT|INTERRES
   225  114  115 1    
   226  114  235 1    
   227  115  116 1    
   228  115  117 1    
   229  115  236 1    
   230  116  237 1    
   231  116  238 1    
   232  116  239 1    
   233  117  118 2    
   234  117  119 am   BACKBONE|DICT|INTERRES
   235  119  120 1    
   236  119  240 1    
   237  120  121 1    
   238  120  124 1    
   239  120  241 1    
   240  121  122 am   BACKBONE|DICT|INTERRES
   241  121  123 2    
   242  122  242 1    
   243  122  243 1    
   244  124  125 1    
   245  124  244 1    
   246  124  245 1    
   247  125  126 1    
   248  126  246 1    
   249  126  247 1    
@<TRIPOS>SUBSTRUCTURE
     1 UNK         1 GROUP             0       ****    0 ROOT    
