@<TRIPOS>MOLECULE
3R540
247   249    1
SMALL
USER_CHARGES


@<TRIPOS>ATOM
      1 CA          0.0937  -12.5266  -54.0346 C.3       0 UNK        -0.1800 
      2 C           0.6667  -12.4455  -52.6261 C.2       0 UNK         0.5000 
      3 O           1.0061  -11.3565  -52.1636 O.2       0 UNK        -0.5000 
      4 N           0.7757  -13.5928  -51.9478 N.am      1 UNK        -0.5000 
      5 CA          1.2549  -13.7111  -50.5667 C.3       1 UNK         0.1400 
      6 C6          1.7576  -15.1395  -50.2513 C.3       23 UNK        -0.0398 
      7 S7          3.2198  -15.5854  -51.2393 S.3       23 UNK        -0.2404 
      8 C8          3.8695  -16.9846  -50.2619 C.3       23 UNK        -0.0205 
      9 C9          3.0782  -18.2921  -50.3531 C.ar      23 UNK        -0.0193 
     10 C10         2.1584  -18.5555  -51.3792 C.ar      23 UNK        -0.1150 
     11 C11         1.5232  -19.7975  -51.4688 C.ar      23 UNK        -0.0193 
     12 C12         1.8082  -20.7844  -50.5232 C.ar      23 UNK        -0.1150 
     13 C13         2.7202  -20.5396  -49.4947 C.ar      23 UNK        -0.0193 
     14 C14         3.3420  -19.2910  -49.4093 C.ar      23 UNK        -0.1150 
     15 C15         3.0752  -21.6506  -48.5213 C.3       23 UNK        -0.0205 
     16 S16         1.8245  -21.8320  -47.2184 S.3       23 UNK        -0.2404 
     17 C17         2.2332  -23.5144  -46.6447 C.3       23 UNK        -0.0398 
     18 CA          1.3478  -24.0523  -45.4967 C.3       11 UNK         0.1400 
     19 N           1.5413  -23.3176  -44.2475 N.am      11 UNK        -0.5000 
     20 C           1.4416  -23.8578  -43.0256 C.2       10 UNK         0.5000 
     21 O           1.1616  -25.0421  -42.8325 O.2       10 UNK        -0.5000 
     22 CA          1.6649  -22.9190  -41.8219 C.3       10 UNK         0.1400 
     23 CB          2.3259  -23.6297  -40.6233 C.3       10 UNK        -0.1800 
     24 N           2.3806  -21.6866  -42.1651 N.am      10 UNK        -0.5000 
     25 C           3.6427  -21.5454  -42.5978 C.2       9 UNK         0.5000 
     26 O           4.4334  -22.4792  -42.7351 O.2       9 UNK        -0.5000 
     27 CA          4.0921  -20.1170  -42.9696 C.3       9 UNK         0.1400 
     28 CB          4.1695  -19.9704  -44.4983 C.3       9 UNK        -0.1800 
     29 N           3.2064  -19.0760  -42.4420 N.am      9 UNK        -0.5000 
     30 C           3.1140  -18.7224  -41.1527 C.2       8 UNK         0.5000 
     31 O           3.8421  -19.1705  -40.2665 O.2       8 UNK        -0.5000 
     32 CA          1.9863  -17.7384  -40.7871 C.3       8 UNK         0.1400 
     33 CB          2.4348  -16.2879  -41.0183 C.3       8 UNK        -0.1800 
     34 N           0.7421  -17.9977  -41.5203 N.am      8 UNK        -0.5000 
     35 C          -0.0053  -19.1036  -41.3826 C.2       7 UNK         0.5000 
     36 O           0.2626  -20.0121  -40.5975 O.2       7 UNK        -0.5000 
     37 CA         -1.2333  -19.2473  -42.2990 C.3       7 UNK         0.1400 
     38 CB         -2.4236  -18.4465  -41.7517 C.3       7 UNK        -0.1800 
     39 N          -0.9532  -18.8376  -43.6731 N.am      7 UNK        -0.5000 
     40 C          -0.1482  -19.4961  -44.5183 C.2       6 UNK         0.5000 
     41 O           0.3769  -20.5791  -44.2546 O.2       6 UNK        -0.5000 
     42 CA          0.1394  -18.8139  -45.8704 C.3       6 UNK         0.1400 
     43 CB         -0.9498  -19.1469  -46.9010 C.3       6 UNK        -0.1800 
     44 N           0.2803  -17.3611  -45.7481 N.am      6 UNK        -0.5000 
     45 C           1.2639  -16.7627  -45.0602 C.2       5 UNK         0.5000 
     46 O           2.1704  -17.3709  -44.4941 O.2       5 UNK        -0.5000 
     47 CA          1.2000  -15.2330  -44.9403 C.3       5 UNK         0.1400 
     48 CB          1.7944  -14.5690  -46.1865 C.3       5 UNK        -0.1800 
     49 N          -0.1674  -14.7611  -44.7272 N.am      5 UNK        -0.5000 
     50 C          -0.8417  -14.9260  -43.5802 C.2       4 UNK         0.5000 
     51 O          -0.3672  -15.4680  -42.5827 O.2       4 UNK        -0.5000 
     52 CA         -2.3049  -14.4479  -43.5572 C.3       4 UNK         0.1400 
     53 CB         -2.3791  -12.9407  -43.2713 C.3       4 UNK        -0.1800 
     54 N          -3.0155  -14.7416  -44.8017 N.am      4 UNK        -0.5000 
     55 C          -3.2538  -15.9756  -45.2673 C.2       3 UNK         0.5000 
     56 O          -2.9301  -17.0039  -44.6761 O.2       3 UNK        -0.5000 
     57 CA         -3.9250  -16.0821  -46.6465 C.3       3 UNK         0.1400 
     58 CB         -5.4494  -16.2037  -46.5019 C.3       3 UNK        -0.1800 
     59 N          -3.6058  -14.9743  -47.5482 N.am      3 UNK        -0.5000 
     60 C          -2.3797  -14.7080  -48.0164 C.2       2 UNK         0.5000 
     61 O          -1.3662  -15.3151  -47.6579 O.2       2 UNK        -0.5000 
     62 CA         -2.3043  -13.5751  -49.0556 C.3       2 UNK         0.1400 
     63 CB         -2.4934  -12.1871  -48.4097 C.3       2 UNK        -0.1800 
     64 N          -1.0935  -13.6584  -49.8808 N.am      2 UNK        -0.5000 
     65 C           0.1613  -13.3083  -49.5592 C.2       1 UNK         0.5000 
     66 O           0.4816  -12.7008  -48.5379 O.2       1 UNK        -0.5000 
     67 C          -0.1393  -24.1375  -45.8896 C.2       11 UNK         0.5000 
     68 O          -0.4932  -25.0170  -46.6730 O.2       11 UNK        -0.5000 
     69 N          -0.9896  -23.2674  -45.3195 N.am      12 UNK        -0.5000 
     70 CA         -2.4381  -23.1723  -45.5554 C.3       12 UNK         0.1400 
     71 CB         -2.9897  -21.9772  -44.7608 C.3       12 UNK        -0.1800 
     72 C          -3.2531  -24.4497  -45.2461 C.2       12 UNK         0.5000 
     73 O          -4.4246  -24.5245  -45.6159 O.2       12 UNK        -0.5000 
     74 N          -2.6322  -25.4360  -44.5857 N.am      13 UNK        -0.5000 
     75 CA         -3.1654  -26.7865  -44.4117 C.3       13 UNK         0.1400 
     76 CB         -2.3497  -27.5003  -43.3228 C.3       13 UNK        -0.1800 
     77 C          -3.1599  -27.6129  -45.7172 C.2       13 UNK         0.5000 
     78 O          -3.9524  -28.5489  -45.8322 O.2       13 UNK        -0.5000 
     79 N          -2.2732  -27.2682  -46.6622 N.am      14 UNK        -0.5000 
     80 CA         -2.1106  -27.9339  -47.9556 C.3       14 UNK         0.1400 
     81 CB         -0.7090  -28.5615  -48.0239 C.3       14 UNK        -0.1800 
     82 C          -2.3226  -26.9586  -49.1262 C.2       14 UNK         0.5000 
     83 O          -2.9638  -27.3285  -50.1111 O.2       14 UNK        -0.5000 
     84 N          -1.7898  -25.7350  -49.0069 N.am      15 UNK        -0.5000 
     85 CA         -1.9711  -24.6419  -49.9608 C.3       15 UNK         0.1400 
     86 CB         -0.9393  -23.5414  -49.6617 C.3       15 UNK        -0.1800 
     87 C          -3.3982  -24.0711  -49.8891 C.2       15 UNK         0.5000 
     88 O          -4.0283  -24.1256  -48.8315 O.2       15 UNK        -0.5000 
     89 N          -3.8746  -23.5117  -51.0091 N.am      16 UNK        -0.5000 
     90 CA         -5.2180  -22.9370  -51.1287 C.3       16 UNK         0.1400 
     91 CB         -5.5133  -22.6283  -52.6032 C.3       16 UNK        -0.1800 
     92 C          -5.4332  -21.6827  -50.2608 C.2       16 UNK         0.5000 
     93 O          -6.5478  -21.4723  -49.7818 O.2       16 UNK        -0.5000 
     94 N          -4.3688  -20.8844  -50.0755 N.am      17 UNK        -0.5000 
     95 CA         -4.2572  -19.6633  -49.2614 C.3       17 UNK         0.1400 
     96 CB         -4.5568  -19.9643  -47.7792 C.3       17 UNK        -0.1800 
     97 C          -5.0782  -18.4593  -49.7745 C.2       17 UNK         0.5000 
     98 O          -4.5618  -17.3420  -49.7874 O.2       17 UNK        -0.5000 
     99 N          -6.3202  -18.7053  -50.1999 N.am      18 UNK        -0.5000 
    100 CA        -7.1992  -17.7799  -50.9027 C.3       18 UNK         0.1400 
    101 CB        -8.4757  -17.5754  -50.0720 C.3       18 UNK        -0.1800 
    102 C         -7.5315  -18.4169  -52.2698 C.2       18 UNK         0.5000 
    103 O         -7.9261  -19.5837  -52.2872 O.2       18 UNK        -0.5000 
    104 N         -7.4158  -17.7202  -53.4113 N.am      19 UNK        -0.5000 
    105 CA        -6.8666  -16.3774  -53.6279 C.3       19 UNK         0.1400 
    106 CB        -7.0759  -16.0065  -55.1050 C.3       19 UNK        -0.1800 
    107 C         -5.3742  -16.2687  -53.2577 C.2       19 UNK         0.5000 
    108 O         -4.7133  -17.2879  -53.0634 O.2       19 UNK        -0.5000 
    109 N         -4.8805  -15.0298  -53.1474 N.am      20 UNK        -0.5000 
    110 CA        -3.5860  -14.6736  -52.5563 C.3       20 UNK         0.1400 
    111 CB        -3.4397  -13.1435  -52.5845 C.3       20 UNK        -0.1800 
    112 C         -2.3379  -15.3382  -53.1688 C.2       20 UNK         0.5000 
    113 O         -1.3365  -15.4809  -52.4660 O.2       20 UNK        -0.5000 
    114 N         -2.4129  -15.7163  -54.4499 N.am      21 UNK        -0.5000 
    115 CA        -1.3609  -16.4295  -55.1800 C.3       21 UNK         0.1400 
    116 CB        -1.3555  -15.9225  -56.6319 C.3       21 UNK        -0.1800 
    117 C         -1.5269  -17.9653  -55.1309 C.2       21 UNK         0.5000 
    118 O         -0.7454  -18.6728  -55.7671 O.2       21 UNK        -0.5000 
    119 N         -2.5434  -18.4523  -54.4067 N.am      22 UNK        -0.5000 
    120 CA        -2.9656  -19.8580  -54.2798 C.3       22 UNK         0.1400 
    121 C         -3.6412  -20.4447  -55.5577 C.2       22 UNK         0.5000 
    122 N         -4.0612  -19.6318  -56.5196 N.am      22 UNK        -0.7600 
    123 O         -3.8152  -21.6546  -55.6729 O.2       22 UNK        -0.5000 
    124 C124       -1.8784  -20.8053  -53.6987 C.3       23 UNK        -0.0398 
    125 S125       -1.1514  -20.2274  -52.1244 S.3       23 UNK        -0.2404 
    126 C126        0.5929  -20.1065  -52.6308 C.3       23 UNK        -0.0205 
    127 H127       -0.8628  -12.0064  -54.0826 H         1 UNK         0.0600 
    128 H128       -0.0620  -13.5582  -54.3505 H         1 UNK         0.0600 
    129 H129        0.7743  -12.0565  -54.7444 H         1 UNK         0.0600 
    130 H130        0.4199  -14.4483  -52.3600 H         1 UNK         0.3000 
    131 H131        2.0908  -13.0213  -50.4292 H         1 UNK         0.0600 
    132 H132        2.0308  -15.2215  -49.1990 H         1 UNK         0.0800 
    133 H133        0.9729  -15.8787  -50.4250 H         1 UNK         0.0800 
    134 H134        3.9545  -16.6771  -49.2184 H         1 UNK         0.0800 
    135 H135        4.8858  -17.1860  -50.6026 H         1 UNK         0.0800 
    136 H136        1.9534  -17.8122  -52.1352 H         1 UNK         0.1150 
    137 H137        1.3359  -21.7533  -50.6015 H         1 UNK         0.1150 
    138 H138        4.0614  -19.1082  -48.6231 H         1 UNK         0.1150 
    139 H139        3.1708  -22.5868  -49.0735 H         1 UNK         0.0800 
    140 H140        4.0470  -21.4651  -48.0611 H         1 UNK         0.0800 
    141 H141        3.2784  -23.5261  -46.3319 H         1 UNK         0.0800 
    142 H142        2.1717  -24.1909  -47.4992 H         1 UNK         0.0800 
    143 H143        1.6682  -25.0832  -45.3304 H         1 UNK         0.0600 
    144 H144        1.6828  -22.3172  -44.3263 H         1 UNK         0.3000 
    145 H145        0.6693  -22.6050  -41.5065 H         1 UNK         0.0600 
    146 H146        2.4687  -22.9426  -39.7891 H         1 UNK         0.0600 
    147 H147        1.7040  -24.4499  -40.2630 H         1 UNK         0.0600 
    148 H148        3.2978  -24.0490  -40.8844 H         1 UNK         0.0600 
    149 H149        1.8217  -20.8461  -42.1033 H         1 UNK         0.3000 
    150 H150        5.0911  -19.9656  -42.5561 H         1 UNK         0.0600 
    151 H151        4.8333  -20.7180  -44.9343 H         1 UNK         0.0600 
    152 H152        4.5530  -18.9902  -44.7818 H         1 UNK         0.0600 
    153 H153        3.1899  -20.0916  -44.9621 H         1 UNK         0.0600 
    154 H154        2.6260  -18.5915  -43.1228 H         1 UNK         0.3000 
    155 H155        1.7753  -17.8598  -39.7226 H         1 UNK         0.0600 
    156 H156        3.3459  -16.0673  -40.4608 H         1 UNK         0.0600 
    157 H157        1.6730  -15.5820  -40.6872 H         1 UNK         0.0600 
    158 H158        2.6390  -16.0923  -42.0708 H         1 UNK         0.0600 
    159 H159        0.4247  -17.2644  -42.1461 H         1 UNK         0.3000 
    160 H160       -1.5152  -20.3021  -42.3130 H         1 UNK         0.0600 
    161 H161       -2.2202  -17.3754  -41.7434 H         1 UNK         0.0600 
    162 H162       -2.6596  -18.7453  -40.7297 H         1 UNK         0.0600 
    163 H163       -3.3174  -18.6116  -42.3538 H         1 UNK         0.0600 
    164 H164       -1.4229  -17.9980  -43.9996 H         1 UNK         0.3000 
    165 H165        1.0892  -19.2016  -46.2415 H         1 UNK         0.0600 
    166 H166       -0.7246  -18.7031  -47.8712 H         1 UNK         0.0600 
    167 H167       -1.0290  -20.2249  -47.0486 H         1 UNK         0.0600 
    168 H168       -1.9273  -18.7853  -46.5833 H         1 UNK         0.0600 
    169 H169       -0.4172  -16.7853  -46.2034 H         1 UNK         0.3000 
    170 H170        1.8047  -14.9359  -44.0811 H         1 UNK         0.0600 
    171 H171        2.8259  -14.8852  -46.3466 H         1 UNK         0.0600 
    172 H172        1.2269  -14.8327  -47.0772 H         1 UNK         0.0600 
    173 H173        1.7942  -13.4827  -46.0962 H         1 UNK         0.0600 
    174 H174       -0.6412  -14.3642  -45.5267 H         1 UNK         0.3000 
    175 H175       -2.8134  -14.9755  -42.7475 H         1 UNK         0.0600 
    176 H176       -1.8687  -12.6953  -42.3390 H         1 UNK         0.0600 
    177 H177       -1.9130  -12.3554  -44.0650 H         1 UNK         0.0600 
    178 H178       -3.4127  -12.6088  -43.1715 H         1 UNK         0.0600 
    179 H179       -3.3135  -13.9535  -45.3570 H         1 UNK         0.3000 
    180 H180       -3.5495  -16.9912  -47.1166 H         1 UNK         0.0600 
    181 H181       -5.8850  -15.3065  -46.0607 H         1 UNK         0.0600 
    182 H182       -5.7144  -17.0470  -45.8627 H         1 UNK         0.0600 
    183 H183       -5.9266  -16.3693  -47.4680 H         1 UNK         0.0600 
    184 H184       -4.3901  -14.4376  -47.8887 H         1 UNK         0.3000 
    185 H185       -3.1379  -13.7205  -49.7400 H         1 UNK         0.0600 
    186 H186       -3.5010  -12.0795  -48.0072 H         1 UNK         0.0600 
    187 H187       -1.8015  -12.0192  -47.5840 H         1 UNK         0.0600 
    188 H188       -2.3503  -11.3890  -49.1383 H         1 UNK         0.0600 
    189 H189       -1.1977  -14.1901  -50.7364 H         1 UNK         0.3000 
    190 H190       -0.5904  -22.5631  -44.7114 H         1 UNK         0.3000 
    191 H191       -2.5797  -22.9665  -46.6181 H         1 UNK         0.0600 
    192 H192       -2.7940  -22.0800  -43.6930 H         1 UNK         0.0600 
    193 H193       -4.0685  -21.8801  -44.8897 H         1 UNK         0.0600 
    194 H194       -2.5475  -21.0411  -45.0974 H         1 UNK         0.0600 
    195 H195       -1.6765  -25.2861  -44.2973 H         1 UNK         0.3000 
    196 H196       -4.2000  -26.7104  -44.0707 H         1 UNK         0.0600 
    197 H197       -2.7310  -28.5067  -43.1449 H         1 UNK         0.0600 
    198 H198       -2.4000  -26.9627  -42.3757 H         1 UNK         0.0600 
    199 H199       -1.2990  -27.5913  -43.6018 H         1 UNK         0.0600 
    200 H200       -1.6758  -26.4634  -46.4986 H         1 UNK         0.3000 
    201 H201       -2.8442  -28.7347  -48.0684 H         1 UNK         0.0600 
    202 H202       -0.5761  -29.3099  -47.2425 H         1 UNK         0.0600 
    203 H203        0.0745  -27.8118  -47.9055 H         1 UNK         0.0600 
    204 H204       -0.5487  -29.0585  -48.9815 H         1 UNK         0.0600 
    205 H205       -1.2873  -25.4968  -48.1549 H         1 UNK         0.3000 
    206 H206       -1.7922  -25.0279  -50.9665 H         1 UNK         0.0600 
    207 H207        0.0773  -23.9347  -49.6773 H         1 UNK         0.0600 
    208 H208       -0.9907  -22.7457  -50.4048 H         1 UNK         0.0600 
    209 H209       -1.1044  -23.0850  -48.6852 H         1 UNK         0.0600 
    210 H210       -3.3043  -23.5111  -51.8418 H         1 UNK         0.3000 
    211 H211       -5.9335  -23.6911  -50.7935 H         1 UNK         0.0600 
    212 H212       -6.5188  -22.2221  -52.7237 H         1 UNK         0.0600 
    213 H213       -5.4501  -23.5263  -53.2179 H         1 UNK         0.0600 
    214 H214       -4.8165  -21.8957  -53.0062 H         1 UNK         0.0600 
    215 H215       -3.5160  -21.1519  -50.5459 H         1 UNK         0.3000 
    216 H216       -3.2084  -19.3678  -49.3255 H         1 UNK         0.0600 
    217 H217       -4.3711  -19.0956  -47.1506 H         1 UNK         0.0600 
    218 H218       -3.9251  -20.7719  -47.4096 H         1 UNK         0.0600 
    219 H219       -5.5956  -20.2549  -47.6222 H         1 UNK         0.0600 
    220 H220       -6.6412  -19.6710  -50.1687 H         1 UNK         0.3000 
    221 H221       -6.7208  -16.8090  -51.0092 H         1 UNK         0.0600 
    222 H222       -9.0087  -18.5134  -49.9101 H         1 UNK         0.0600 
    223 H223       -8.2438  -17.1510  -49.0950 H         1 UNK         0.0600 
    224 H224       -9.1595  -16.8890  -50.5726 H         1 UNK         0.0600 
    225 H225       -7.6511  -18.2103  -54.2606 H         1 UNK         0.3000 
    226 H226       -7.4284  -15.6760  -53.0083 H         1 UNK         0.0600 
    227 H227       -8.1311  -16.0484  -55.3762 H         1 UNK         0.0600 
    228 H228       -6.7328  -14.9926  -55.3146 H         1 UNK         0.0600 
    229 H229       -6.5330  -16.6803  -55.7695 H         1 UNK         0.0600 
    230 H230       -5.4885  -14.2519  -53.3607 H         1 UNK         0.3000 
    231 H231       -3.6252  -15.0048  -51.5179 H         1 UNK         0.0600 
    232 H232       -4.2293  -12.6601  -52.0089 H         1 UNK         0.0600 
    233 H233       -3.4830  -12.7574  -53.6036 H         1 UNK         0.0600 
    234 H234       -2.4897  -12.8221  -52.1578 H         1 UNK         0.0600 
    235 H235       -3.2765  -15.5515  -54.9459 H         1 UNK         0.3000 
    236 H236       -0.3879  -16.2005  -54.7406 H         1 UNK         0.0600 
    237 H237       -0.5514  -16.3828  -57.2075 H         1 UNK         0.0600 
    238 H238       -2.2938  -16.1466  -57.1405 H         1 UNK         0.0600 
    239 H239       -1.2015  -14.8439  -56.6709 H         1 UNK         0.0600 
    240 H240       -3.1467  -17.8011  -53.9114 H         1 UNK         0.3000 
    241 H241       -3.7710  -19.8275  -53.5458 H         1 UNK         0.0600 
    242 H242       -4.5033  -20.0205  -57.3377 H         1 UNK         0.3800 
    243 H243       -3.9344  -18.6366  -56.4414 H         1 UNK         0.3800 
    244 H244       -2.3032  -21.7912  -53.5063 H         1 UNK         0.0800 
    245 H245       -1.0929  -20.9668  -54.4379 H         1 UNK         0.0800 
    246 H246        0.9034  -21.0493  -53.0836 H         1 UNK         0.0800 
    247 H247        0.6860  -19.3473  -53.4086 H         1 UNK         0.0800 
@<TRIPOS>BOND
     1    1    2 1    
     2    1  127 1    
     3    1  128 1    
     4    1  129 1    
     5    2    3 2    
     6    2    4 am   BACKBONE|DICT|INTERRES
     7    4    5 1    
     8    4  130 1    
     9    5    6 1    
    10    5   65 1    
    11    5  131 1    
    12    6    7 1    
    13    6  132 1    
    14    6  133 1    
    15    7    8 1    
    16    8    9 1    
    17    8  134 1    
    18    8  135 1    
    19    9   10 ar   
    20    9   14 ar   
    21   10   11 ar   
    22   10  136 1    
    23   11   12 ar   
    24   11  126 1    
    25   12   13 ar   
    26   12  137 1    
    27   13   14 ar   
    28   13   15 1    
    29   14  138 1    
    30   15   16 1    
    31   15  139 1    
    32   15  140 1    
    33   16   17 1    
    34   17   18 1    
    35   17  141 1    
    36   17  142 1    
    37   18   19 1    
    38   18   67 1    
    39   18  143 1    
    40   19   20 am   BACKBONE|DICT|INTERRES
    41   19  144 1    
    42   20   21 2    
    43   20   22 1    
    44   22   23 1    
    45   22   24 1    
    46   22  145 1    
    47   23  146 1    
    48   23  147 1    
    49   23  148 1    
    50   24   25 am   BACKBONE|DICT|INTERRES
    51   24  149 1    
    52   25   26 2    
    53   25   27 1    
    54   27   28 1    
    55   27   29 1    
    56   27  150 1    
    57   28  151 1    
    58   28  152 1    
    59   28  153 1    
    60   29   30 am   BACKBONE|DICT|INTERRES
    61   29  154 1    
    62   30   31 2    
    63   30   32 1    
    64   32   33 1    
    65   32   34 1    
    66   32  155 1    
    67   33  156 1    
    68   33  157 1    
    69   33  158 1    
    70   34   35 am   BACKBONE|DICT|INTERRES
    71   34  159 1    
    72   35   36 2    
    73   35   37 1    
    74   37   38 1    
    75   37   39 1    
    76   37  160 1    
    77   38  161 1    
    78   38  162 1    
    79   38  163 1    
    80   39   40 am   BACKBONE|DICT|INTERRES
    81   39  164 1    
    82   40   41 2    
    83   40   42 1    
    84   42   43 1    
    85   42   44 1    
    86   42  165 1    
    87   43  166 1    
    88   43  167 1    
    89   43  168 1    
    90   44   45 am   BACKBONE|DICT|INTERRES
    91   44  169 1    
    92   45   46 2    
    93   45   47 1    
    94   47   48 1    
    95   47   49 1    
    96   47  170 1    
    97   48  171 1    
    98   48  172 1    
    99   48  173 1    
   100   49   50 am   BACKBONE|DICT|INTERRES
   101   49  174 1    
   102   50   51 2    
   103   50   52 1    
   104   52   53 1    
   105   52   54 1    
   106   52  175 1    
   107   53  176 1    
   108   53  177 1    
   109   53  178 1    
   110   54   55 am   BACKBONE|DICT|INTERRES
   111   54  179 1    
   112   55   56 2    
   113   55   57 1    
   114   57   58 1    
   115   57   59 1    
   116   57  180 1    
   117   58  181 1    
   118   58  182 1    
   119   58  183 1    
   120   59   60 am   BACKBONE|DICT|INTERRES
   121   59  184 1    
   122   60   61 2    
   123   60   62 1    
   124   62   63 1    
   125   62   64 1    
   126   62  185 1    
   127   63  186 1    
   128   63  187 1    
   129   63  188 1    
   130   64   65 am   BACKBONE|DICT|INTERRES
   131   64  189 1    
   132   65   66 2    
   133   67   68 2    
   134   67   69 am   BACKBONE|DICT|INTERRES
   135   69   70 1    
   136   69  190 1    
   137   70   71 1    
   138   70   72 1    
   139   70  191 1    
   140   71  192 1    
   141   71  193 1    
   142   71  194 1    
   143   72   73 2    
   144   72   74 am   BACKBONE|DICT|INTERRES
   145   74   75 1    
   146   74  195 1    
   147   75   76 1    
   148   75   77 1    
   149   75  196 1    
   150   76  197 1    
   151   76  198 1    
   152   76  199 1    
   153   77   78 2    
   154   77   79 am   BACKBONE|DICT|INTERRES
   155   79   80 1    
   156   79  200 1    
   157   80   81 1    
   158   80   82 1    
   159   80  201 1    
   160   81  202 1    
   161   81  203 1    
   162   81  204 1    
   163   82   83 2    
   164   82   84 am   BACKBONE|DICT|INTERRES
   165   84   85 1    
   166   84  205 1    
   167   85   86 1    
   168   85   87 1    
   169   85  206 1    
   170   86  207 1    
   171   86  208 1    
   172   86  209 1    
   173   87   88 2    
   174   87   89 am   BACKBONE|DICT|INTERRES
   175   89   90 1    
   176   89  210 1    
   177   90   91 1    
   178   90   92 1    
   179   90  211 1    
   180   91  212 1    
   181   91  213 1    
   182   91  214 1    
   183   92   93 2    
   184   92   94 am   BACKBONE|DICT|INTERRES
   185   94   95 1    
   186   94  215 1    
   187   95   96 1    
   188   95   97 1    
   189   95  216 1    
   190   96  217 1    
   191   96  218 1    
   192   96  219 1    
   193   97   98 2    
   194   97   99 am   BACKBONE|DICT|INTERRES
   195   99  100 1    
   196   99  220 1    
   197  100  101 1    
   198  100  102 1    
   199  100  221 1    
   200  101  222 1    
   201  101  223 1    
   202  101  224 1    
   203  102  103 2    
   204  102  104 am   BACKBONE|DICT|INTERRES
   205  104  105 1    
   206  104  225 1    
   207  105  106 1    
   208  105  107 1    
   209  105  226 1    
   210  106  227 1    
   211  106  228 1    
   212  106  229 1    
   213  107  108 2    
   214  107  109 am   BACKBONE|DICT|INTERRES
   215  109  110 1    
   216  109  230 1    
   217  110  111 1    
   218  110  112 1    
   219  110  231 1    
   220  111  232 1    
   221  111  233 1    
   222  111  234 1    
   223  112  113 2    
   224  112  114 am   BACKBONE|DICT|INTERRES
   225  114  115 1    
   226  114  235 1    
   227  115  116 1    
   228  115  117 1    
   229  115  236 1    
   230  116  237 1    
   231  116  238 1    
   232  116  239 1    
   233  117  118 2    
   234  117  119 am   BACKBONE|DICT|INTERRES
   235  119  120 1    
   236  119  240 1    
   237  120  121 1    
   238  120  124 1    
   239  120  241 1    
   240  121  122 am   BACKBONE|DICT|INTERRES
   241  121  123 2    
   242  122  242 1    
   243  122  243 1    
   244  124  125 1    
   245  124  244 1    
   246  124  245 1    
   247  125  126 1    
   248  126  246 1    
   249  126  247 1    
@<TRIPOS>SUBSTRUCTURE
     1 UNK         1 GROUP             0       ****    0 ROOT    
