@<TRIPOS>MOLECULE
3R540
247   249    1
SMALL
USER_CHARGES


@<TRIPOS>ATOM
      1 CA         -1.3890  -14.5870  -49.9291 C.3       0 UNK        -0.1800 
      2 C          -0.3953  -13.4840  -49.6008 C.2       0 UNK         0.5000 
      3 O          -0.6089  -12.3306  -49.9743 O.2       0 UNK        -0.5000 
      4 N           0.6952  -13.8424  -48.9145 N.am      1 UNK        -0.5000 
      5 CA          1.7633  -12.9434  -48.4705 C.3       1 UNK         0.1400 
      6 C6          2.9744  -13.7183  -47.8886 C.3       23 UNK        -0.0398 
      7 S7          3.6318  -14.9872  -49.0218 S.3       23 UNK        -0.2404 
      8 C8          2.8631  -16.4879  -48.3205 C.3       23 UNK        -0.0205 
      9 C9          2.5731  -17.5609  -49.3627 C.ar      23 UNK        -0.0193 
     10 C10         1.9779  -17.2375  -50.5874 C.ar      23 UNK        -0.1150 
     11 C11         1.6917  -18.2307  -51.5290 C.ar      23 UNK        -0.0193 
     12 C12         1.9865  -19.5645  -51.2274 C.ar      23 UNK        -0.1150 
     13 C13         2.5781  -19.9051  -50.0060 C.ar      23 UNK        -0.0193 
     14 C14         2.8727  -18.8964  -49.0827 C.ar      23 UNK        -0.1150 
     15 C15         2.9402  -21.3565  -49.7079 C.3       23 UNK        -0.0205 
     16 S16         2.3334  -21.9316  -48.0880 S.3       23 UNK        -0.2404 
     17 C17         0.5309  -21.8721  -48.3436 C.3       23 UNK        -0.0398 
     18 CA         -0.2019  -22.8768  -47.4250 C.3       11 UNK         0.1400 
     19 N          -0.1834  -22.4691  -46.0133 N.am      11 UNK        -0.5000 
     20 C          -0.6597  -23.1913  -44.9874 C.2       10 UNK         0.5000 
     21 O          -1.2032  -24.2883  -45.1161 O.2       10 UNK        -0.5000 
     22 CA         -0.5725  -22.5597  -43.5886 C.3       10 UNK         0.1400 
     23 CB          0.8760  -22.5189  -43.0784 C.3       10 UNK        -0.1800 
     24 N          -1.1573  -21.2204  -43.5715 N.am      10 UNK        -0.5000 
     25 C          -2.4676  -20.9741  -43.7140 C.2       9 UNK         0.5000 
     26 O          -3.3235  -21.8571  -43.7678 O.2       9 UNK        -0.5000 
     27 CA         -2.8988  -19.5010  -43.8435 C.3       9 UNK         0.1400 
     28 CB         -3.1586  -18.8895  -42.4590 C.3       9 UNK        -0.1800 
     29 N          -1.9294  -18.6766  -44.5658 N.am      9 UNK        -0.5000 
     30 C          -1.5994  -18.8350  -45.8558 C.2       8 UNK         0.5000 
     31 O          -2.1111  -19.6789  -46.5931 O.2       8 UNK        -0.5000 
     32 CA         -0.4720  -17.9296  -46.3901 C.3       8 UNK         0.1400 
     33 CB         -1.0059  -16.5218  -46.6985 C.3       8 UNK        -0.1800 
     34 N           0.6578  -17.8447  -45.4611 N.am      8 UNK        -0.5000 
     35 C           1.4010  -18.8989  -45.0917 C.2       7 UNK         0.5000 
     36 O           1.2448  -20.0342  -45.5354 O.2       7 UNK        -0.5000 
     37 CA          2.4448  -18.6654  -43.9894 C.3       7 UNK         0.1400 
     38 CB          3.7525  -18.1089  -44.5727 C.3       7 UNK        -0.1800 
     39 N           1.9283  -17.7763  -42.9484 N.am      7 UNK        -0.5000 
     40 C           1.0050  -18.1432  -42.0464 C.2       6 UNK         0.5000 
     41 O           0.5441  -19.2816  -41.9712 O.2       6 UNK        -0.5000 
     42 CA          0.4795  -17.0540  -41.0914 C.3       6 UNK         0.1400 
     43 CB          1.3683  -16.9575  -39.8428 C.3       6 UNK        -0.1800 
     44 N           0.3897  -15.7374  -41.7228 N.am      6 UNK        -0.5000 
     45 C          -0.4429  -15.4286  -42.7274 C.2       5 UNK         0.5000 
     46 O          -1.2775  -16.2093  -43.1826 O.2       5 UNK        -0.5000 
     47 CA         -0.2721  -14.0366  -43.3684 C.3       5 UNK         0.1400 
     48 CB         -1.2054  -13.0142  -42.7048 C.3       5 UNK        -0.1800 
     49 N           1.1063  -13.5374  -43.3203 N.am      5 UNK        -0.5000 
     50 C           2.1515  -14.1430  -43.8987 C.2       4 UNK         0.5000 
     51 O           2.0595  -15.1945  -44.5352 O.2       4 UNK        -0.5000 
     52 CA          3.5092  -13.4494  -43.7278 C.3       4 UNK         0.1400 
     53 CB          4.6799  -14.2304  -44.3571 C.3       4 UNK        -0.1800 
     54 N           3.4423  -12.1025  -44.2888 N.am      4 UNK        -0.5000 
     55 C           4.1510  -11.0551  -43.8469 C.2       3 UNK         0.5000 
     56 O           4.8981  -11.1099  -42.8690 O.2       3 UNK        -0.5000 
     57 CA          4.0395   -9.7282  -44.6259 C.3       3 UNK         0.1400 
     58 CB          5.3929   -9.3620  -45.2576 C.3       3 UNK        -0.1800 
     59 N           3.0331   -9.7621  -45.6880 N.am      3 UNK        -0.5000 
     60 C           1.7361   -9.4668  -45.5318 C.2       2 UNK         0.5000 
     61 O           1.2324   -9.1308  -44.4599 O.2       2 UNK        -0.5000 
     62 CA          0.8536   -9.5885  -46.7899 C.3       2 UNK         0.1400 
     63 CB          0.8088   -8.2531  -47.5480 C.3       2 UNK        -0.1800 
     64 N           1.3003  -10.6472  -47.7024 N.am      2 UNK        -0.5000 
     65 C           1.2240  -11.9538  -47.4193 C.2       1 UNK         0.5000 
     66 O           0.7731  -12.3916  -46.3604 O.2       1 UNK        -0.5000 
     67 C          -1.6208  -23.1475  -47.9562 C.2       11 UNK         0.5000 
     68 O          -1.7849  -24.0451  -48.7852 O.2       11 UNK        -0.5000 
     69 N          -2.6238  -22.4170  -47.4471 N.am      12 UNK        -0.5000 
     70 CA         -4.0399  -22.6071  -47.7633 C.3       12 UNK         0.1400 
     71 CB         -4.8928  -21.5931  -46.9872 C.3       12 UNK        -0.1800 
     72 C          -4.5423  -24.0419  -47.5127 C.2       12 UNK         0.5000 
     73 O          -5.3648  -24.5325  -48.2863 O.2       12 UNK        -0.5000 
     74 N          -4.0038  -24.6910  -46.4722 N.am      13 UNK        -0.5000 
     75 CA         -4.2660  -26.0859  -46.1375 C.3       13 UNK         0.1400 
     76 CB         -4.3934  -26.2201  -44.6116 C.3       13 UNK        -0.1800 
     77 C          -3.1574  -27.0074  -46.6735 C.2       13 UNK         0.5000 
     78 O          -3.4633  -27.9955  -47.3402 O.2       13 UNK        -0.5000 
     79 N          -1.8936  -26.6804  -46.3671 N.am      14 UNK        -0.5000 
     80 CA         -0.7284  -27.5428  -46.5835 C.3       14 UNK         0.1400 
     81 CB          0.4729  -26.9766  -45.8105 C.3       14 UNK        -0.1800 
     82 C          -0.3602  -27.7508  -48.0615 C.2       14 UNK         0.5000 
     83 O           0.0528  -28.8510  -48.4300 O.2       14 UNK        -0.5000 
     84 N          -0.5202  -26.7015  -48.8758 N.am      15 UNK        -0.5000 
     85 CA         -0.2780  -26.7215  -50.3201 C.3       15 UNK         0.1400 
     86 CB          0.6163  -25.5227  -50.6856 C.3       15 UNK        -0.1800 
     87 C          -1.5988  -26.6913  -51.1135 C.2       15 UNK         0.5000 
     88 O          -1.5587  -26.6518  -52.3436 O.2       15 UNK        -0.5000 
     89 N          -2.7378  -26.6844  -50.4003 N.am      16 UNK        -0.5000 
     90 CA         -4.1078  -26.5172  -50.8978 C.3       16 UNK         0.1400 
     91 CB         -4.5366  -27.7322  -51.7456 C.3       16 UNK        -0.1800 
     92 C          -4.3188  -25.1712  -51.6260 C.2       16 UNK         0.5000 
     93 O          -5.1432  -25.0806  -52.5381 O.2       16 UNK        -0.5000 
     94 N          -3.5690  -24.1385  -51.2113 N.am      17 UNK        -0.5000 
     95 CA         -3.5033  -22.8328  -51.8695 C.3       17 UNK         0.1400 
     96 CB         -2.2229  -22.1076  -51.4332 C.3       17 UNK        -0.1800 
     97 C          -4.7429  -21.9436  -51.6555 C.2       17 UNK         0.5000 
     98 O          -4.7679  -20.8268  -52.1716 O.2       17 UNK        -0.5000 
     99 N          -5.7578  -22.4346  -50.9291 N.am      18 UNK        -0.5000 
    100 CA        -7.0474  -21.7716  -50.7220 C.3       18 UNK         0.1400 
    101 CB        -7.9024  -22.6128  -49.7633 C.3       18 UNK        -0.1800 
    102 C         -7.8100  -21.5189  -52.0367 C.2       18 UNK         0.5000 
    103 O         -8.4764  -20.4923  -52.1623 O.2       18 UNK        -0.5000 
    104 N         -7.6494  -22.4275  -53.0105 N.am      19 UNK        -0.5000 
    105 CA        -8.1967  -22.3097  -54.3645 C.3       19 UNK         0.1400 
    106 CB        -8.0487  -23.6616  -55.0788 C.3       19 UNK        -0.1800 
    107 C         -7.5364  -21.1873  -55.1918 C.2       19 UNK         0.5000 
    108 O         -8.1840  -20.6221  -56.0732 O.2       19 UNK        -0.5000 
    109 N         -6.2703  -20.8776  -54.8824 N.am      20 UNK        -0.5000 
    110 CA        -5.4952  -19.7886  -55.4801 C.3       20 UNK         0.1400 
    111 CB        -4.0287  -20.2414  -55.5859 C.3       20 UNK        -0.1800 
    112 C         -5.5948  -18.4817  -54.6666 C.2       20 UNK         0.5000 
    113 O         -5.0810  -17.4572  -55.1167 O.2       20 UNK        -0.5000 
    114 N         -6.2225  -18.5483  -53.4817 N.am      21 UNK        -0.5000 
    115 CA        -6.3064  -17.5132  -52.4474 C.3       21 UNK         0.1400 
    116 CB        -7.1563  -16.3196  -52.9307 C.3       21 UNK        -0.1800 
    117 C         -4.9167  -17.1013  -51.9125 C.2       21 UNK         0.5000 
    118 O         -4.6744  -15.9161  -51.6765 O.2       21 UNK        -0.5000 
    119 N         -4.0311  -18.0928  -51.7429 N.am      22 UNK        -0.5000 
    120 CA        -2.6250  -17.9212  -51.3418 C.3       22 UNK         0.1400 
    121 C         -2.2581  -18.6422  -50.0142 C.2       22 UNK         0.5000 
    122 N         -3.2133  -19.1148  -49.2248 N.am      22 UNK        -0.7600 
    123 O         -1.0879  -18.7556  -49.6731 O.2       22 UNK        -0.5000 
    124 C124       -1.6549  -18.2572  -52.5128 C.3       23 UNK        -0.0398 
    125 S125       -0.4386  -16.9310  -52.8136 S.3       23 UNK        -0.2404 
    126 C126        1.1315  -17.8541  -52.8961 C.3       23 UNK        -0.0205 
    127 H127       -2.2903  -14.4771  -49.3263 H         1 UNK         0.0600 
    128 H128       -0.9663  -15.5744  -49.7399 H         1 UNK         0.0600 
    129 H129       -1.6721  -14.5368  -50.9806 H         1 UNK         0.0600 
    130 H130        0.8094  -14.8072  -48.6476 H         1 UNK         0.3000 
    131 H131        2.1060  -12.3825  -49.3426 H         1 UNK         0.0600 
    132 H132        2.7121  -14.1955  -46.9438 H         1 UNK         0.0800 
    133 H133        3.7876  -13.0273  -47.6598 H         1 UNK         0.0800 
    134 H134        3.5227  -16.8744  -47.5424 H         1 UNK         0.0800 
    135 H135        1.9248  -16.2423  -47.8268 H         1 UNK         0.0800 
    136 H136        1.7442  -16.2079  -50.8178 H         1 UNK         0.1150 
    137 H137        1.7752  -20.3363  -51.9538 H         1 UNK         0.1150 
    138 H138        3.3294  -19.1573  -48.1383 H         1 UNK         0.1150 
    139 H139        2.5611  -22.0220  -50.4851 H         1 UNK         0.0800 
    140 H140        4.0265  -21.4519  -49.7262 H         1 UNK         0.0800 
    141 H141        0.3349  -22.0903  -49.3954 H         1 UNK         0.0800 
    142 H142        0.1769  -20.8534  -48.1719 H         1 UNK         0.0800 
    143 H143        0.3242  -23.8319  -47.4827 H         1 UNK         0.0600 
    144 H144        0.2623  -21.5739  -45.8187 H         1 UNK         0.3000 
    145 H145       -1.1463  -23.1878  -42.9038 H         1 UNK         0.0600 
    146 H146        0.9249  -22.1172  -42.0662 H         1 UNK         0.0600 
    147 H147        1.3058  -23.5209  -43.0519 H         1 UNK         0.0600 
    148 H148        1.5171  -21.9064  -43.7111 H         1 UNK         0.0600 
    149 H149       -0.5181  -20.4410  -43.4758 H         1 UNK         0.3000 
    150 H150       -3.8343  -19.4807  -44.4062 H         1 UNK         0.0600 
    151 H151       -3.9031  -19.4672  -41.9098 H         1 UNK         0.0600 
    152 H152       -3.5346  -17.8696  -42.5425 H         1 UNK         0.0600 
    153 H153       -2.2513  -18.8635  -41.8551 H         1 UNK         0.0600 
    154 H154       -1.5053  -17.9142  -44.0447 H         1 UNK         0.3000 
    155 H155       -0.0953  -18.3670  -47.3161 H         1 UNK         0.0600 
    156 H156       -1.4742  -16.0637  -45.8280 H         1 UNK         0.0600 
    157 H157       -1.7579  -16.5626  -47.4874 H         1 UNK         0.0600 
    158 H158       -0.2144  -15.8549  -47.0341 H         1 UNK         0.0600 
    159 H159        0.8639  -16.9398  -45.0550 H         1 UNK         0.3000 
    160 H160        2.6712  -19.6312  -43.5326 H         1 UNK         0.0600 
    161 H161        3.6003  -17.1652  -45.0943 H         1 UNK         0.0600 
    162 H162        4.1817  -18.8085  -45.2910 H         1 UNK         0.0600 
    163 H163        4.4959  -17.9465  -43.7924 H         1 UNK         0.0600 
    164 H164        2.2026  -16.8055  -43.0077 H         1 UNK         0.3000 
    165 H165       -0.5240  -17.3458  -40.7746 H         1 UNK         0.0600 
    166 H166        0.9637  -16.2439  -39.1247 H         1 UNK         0.0600 
    167 H167        1.4365  -17.9219  -39.3375 H         1 UNK         0.0600 
    168 H168        2.3831  -16.6453  -40.0926 H         1 UNK         0.0600 
    169 H169        1.0392  -15.0333  -41.4056 H         1 UNK         0.3000 
    170 H170       -0.5539  -14.1238  -44.4199 H         1 UNK         0.0600 
    171 H171       -2.2431  -13.3479  -42.7475 H         1 UNK         0.0600 
    172 H172       -0.9523  -12.8587  -41.6553 H         1 UNK         0.0600 
    173 H173       -1.1543  -12.0496  -43.2106 H         1 UNK         0.0600 
    174 H174        1.2556  -12.6634  -42.8372 H         1 UNK         0.3000 
    175 H175        3.6852  -13.3878  -42.6518 H         1 UNK         0.0600 
    176 H176        4.5660  -14.3378  -45.4353 H         1 UNK         0.0600 
    177 H177        5.6316  -13.7327  -44.1712 H         1 UNK         0.0600 
    178 H178        4.7535  -15.2317  -43.9319 H         1 UNK         0.0600 
    179 H179        2.7881  -11.9694  -45.0483 H         1 UNK         0.3000 
    180 H180        3.7803   -8.9491  -43.9058 H         1 UNK         0.0600 
    181 H181        5.7185  -10.1147  -45.9768 H         1 UNK         0.0600 
    182 H182        6.1711   -9.2757  -44.4982 H         1 UNK         0.0600 
    183 H183        5.3404   -8.4035  -45.7744 H         1 UNK         0.0600 
    184 H184        3.3575  -10.0206  -46.6081 H         1 UNK         0.3000 
    185 H185       -0.1601   -9.8271  -46.4605 H         1 UNK         0.0600 
    186 H186        0.4574   -7.4484  -46.9007 H         1 UNK         0.0600 
    187 H187        1.7929   -7.9676  -47.9219 H         1 UNK         0.0600 
    188 H188        0.1280   -8.3050  -48.3979 H         1 UNK         0.0600 
    189 H189        1.6553  -10.3523  -48.6010 H         1 UNK         0.3000 
    190 H190       -2.3955  -21.6518  -46.8204 H         1 UNK         0.3000 
    191 H191       -4.1511  -22.3968  -48.8242 H         1 UNK         0.0600 
    192 H192       -4.5952  -20.5683  -47.2037 H         1 UNK         0.0600 
    193 H193       -5.9460  -21.6833  -47.2522 H         1 UNK         0.0600 
    194 H194       -4.8160  -21.7441  -45.9113 H         1 UNK         0.0600 
    195 H195       -3.2975  -24.2181  -45.9219 H         1 UNK         0.3000 
    196 H196       -5.2118  -26.4073  -46.5793 H         1 UNK         0.0600 
    197 H197       -4.5742  -27.2565  -44.3235 H         1 UNK         0.0600 
    198 H198       -5.2277  -25.6278  -44.2353 H         1 UNK         0.0600 
    199 H199       -3.4910  -25.8870  -44.0969 H         1 UNK         0.0600 
    200 H200       -1.7178  -25.8247  -45.8424 H         1 UNK         0.3000 
    201 H201       -0.9636  -28.5236  -46.1649 H         1 UNK         0.0600 
    202 H202        0.2505  -26.8843  -44.7473 H         1 UNK         0.0600 
    203 H203        0.7610  -25.9914  -46.1787 H         1 UNK         0.0600 
    204 H204        1.3419  -27.6290  -45.9055 H         1 UNK         0.0600 
    205 H205       -0.8967  -25.8352  -48.5064 H         1 UNK         0.3000 
    206 H206        0.2477  -27.6330  -50.6108 H         1 UNK         0.0600 
    207 H207        1.5441  -25.5340  -50.1135 H         1 UNK         0.0600 
    208 H208        0.8875  -25.5450  -51.7417 H         1 UNK         0.0600 
    209 H209        0.1205  -24.5709  -50.4979 H         1 UNK         0.0600 
    210 H210       -2.6488  -26.7482  -49.3962 H         1 UNK         0.3000 
    211 H211       -4.7496  -26.4917  -50.0167 H         1 UNK         0.0600 
    212 H212       -3.9852  -27.7875  -52.6845 H         1 UNK         0.0600 
    213 H213       -5.5975  -27.6809  -51.9932 H         1 UNK         0.0600 
    214 H214       -4.3758  -28.6653  -51.2057 H         1 UNK         0.0600 
    215 H215       -2.9330  -24.2813  -50.4328 H         1 UNK         0.3000 
    216 H216       -3.4288  -23.0102  -52.9443 H         1 UNK         0.0600 
    217 H217       -2.0437  -21.2419  -52.0678 H         1 UNK         0.0600 
    218 H218       -1.3480  -22.7525  -51.5151 H         1 UNK         0.0600 
    219 H219       -2.2875  -21.7500  -50.4063 H         1 UNK         0.0600 
    220 H220       -5.6576  -23.3600  -50.5354 H         1 UNK         0.3000 
    221 H221       -6.8550  -20.8029  -50.2562 H         1 UNK         0.0600 
    222 H222       -8.0933  -23.6094  -50.1635 H         1 UNK         0.0600 
    223 H223       -7.4160  -22.7309  -48.7962 H         1 UNK         0.0600 
    224 H224       -8.8686  -22.1397  -49.5829 H         1 UNK         0.0600 
    225 H225       -7.0774  -23.2398  -52.8216 H         1 UNK         0.3000 
    226 H226       -9.2609  -22.0785  -54.2835 H         1 UNK         0.0600 
    227 H227       -8.5795  -24.4499  -54.5447 H         1 UNK         0.0600 
    228 H228       -8.4615  -23.6187  -56.0876 H         1 UNK         0.0600 
    229 H229       -7.0027  -23.9596  -55.1633 H         1 UNK         0.0600 
    230 H230       -5.8247  -21.3685  -54.1199 H         1 UNK         0.3000 
    231 H231       -5.8620  -19.5796  -56.4871 H         1 UNK         0.0600 
    232 H232       -3.9388  -21.1508  -56.1801 H         1 UNK         0.0600 
    233 H233       -3.5935  -20.4369  -54.6053 H         1 UNK         0.0600 
    234 H234       -3.4166  -19.4782  -56.0683 H         1 UNK         0.0600 
    235 H235       -6.6029  -19.4458  -53.2163 H         1 UNK         0.3000 
    236 H236       -6.8305  -17.9690  -51.6062 H         1 UNK         0.0600 
    237 H237       -7.3347  -15.6136  -52.1189 H         1 UNK         0.0600 
    238 H238       -6.6678  -15.7725  -53.7374 H         1 UNK         0.0600 
    239 H239       -8.1302  -16.6509  -53.2911 H         1 UNK         0.0600 
    240 H240       -4.3192  -19.0488  -51.9423 H         1 UNK         0.3000 
    241 H241       -2.4872  -16.8724  -51.0854 H         1 UNK         0.0600 
    242 H242       -2.9314  -19.5105  -48.3342 H         1 UNK         0.3800 
    243 H243       -4.1853  -19.0043  -49.4581 H         1 UNK         0.3800 
    244 H244       -2.2052  -18.3943  -53.4449 H         1 UNK         0.0800 
    245 H245       -1.1302  -19.1982  -52.3470 H         1 UNK         0.0800 
    246 H246        1.8683  -17.2306  -53.4040 H         1 UNK         0.0800 
    247 H247        0.9988  -18.7361  -53.5245 H         1 UNK         0.0800 
@<TRIPOS>BOND
     1    1    2 1    
     2    1  127 1    
     3    1  128 1    
     4    1  129 1    
     5    2    3 2    
     6    2    4 am   BACKBONE|DICT|INTERRES
     7    4    5 1    
     8    4  130 1    
     9    5    6 1    
    10    5   65 1    
    11    5  131 1    
    12    6    7 1    
    13    6  132 1    
    14    6  133 1    
    15    7    8 1    
    16    8    9 1    
    17    8  134 1    
    18    8  135 1    
    19    9   10 ar   
    20    9   14 ar   
    21   10   11 ar   
    22   10  136 1    
    23   11   12 ar   
    24   11  126 1    
    25   12   13 ar   
    26   12  137 1    
    27   13   14 ar   
    28   13   15 1    
    29   14  138 1    
    30   15   16 1    
    31   15  139 1    
    32   15  140 1    
    33   16   17 1    
    34   17   18 1    
    35   17  141 1    
    36   17  142 1    
    37   18   19 1    
    38   18   67 1    
    39   18  143 1    
    40   19   20 am   BACKBONE|DICT|INTERRES
    41   19  144 1    
    42   20   21 2    
    43   20   22 1    
    44   22   23 1    
    45   22   24 1    
    46   22  145 1    
    47   23  146 1    
    48   23  147 1    
    49   23  148 1    
    50   24   25 am   BACKBONE|DICT|INTERRES
    51   24  149 1    
    52   25   26 2    
    53   25   27 1    
    54   27   28 1    
    55   27   29 1    
    56   27  150 1    
    57   28  151 1    
    58   28  152 1    
    59   28  153 1    
    60   29   30 am   BACKBONE|DICT|INTERRES
    61   29  154 1    
    62   30   31 2    
    63   30   32 1    
    64   32   33 1    
    65   32   34 1    
    66   32  155 1    
    67   33  156 1    
    68   33  157 1    
    69   33  158 1    
    70   34   35 am   BACKBONE|DICT|INTERRES
    71   34  159 1    
    72   35   36 2    
    73   35   37 1    
    74   37   38 1    
    75   37   39 1    
    76   37  160 1    
    77   38  161 1    
    78   38  162 1    
    79   38  163 1    
    80   39   40 am   BACKBONE|DICT|INTERRES
    81   39  164 1    
    82   40   41 2    
    83   40   42 1    
    84   42   43 1    
    85   42   44 1    
    86   42  165 1    
    87   43  166 1    
    88   43  167 1    
    89   43  168 1    
    90   44   45 am   BACKBONE|DICT|INTERRES
    91   44  169 1    
    92   45   46 2    
    93   45   47 1    
    94   47   48 1    
    95   47   49 1    
    96   47  170 1    
    97   48  171 1    
    98   48  172 1    
    99   48  173 1    
   100   49   50 am   BACKBONE|DICT|INTERRES
   101   49  174 1    
   102   50   51 2    
   103   50   52 1    
   104   52   53 1    
   105   52   54 1    
   106   52  175 1    
   107   53  176 1    
   108   53  177 1    
   109   53  178 1    
   110   54   55 am   BACKBONE|DICT|INTERRES
   111   54  179 1    
   112   55   56 2    
   113   55   57 1    
   114   57   58 1    
   115   57   59 1    
   116   57  180 1    
   117   58  181 1    
   118   58  182 1    
   119   58  183 1    
   120   59   60 am   BACKBONE|DICT|INTERRES
   121   59  184 1    
   122   60   61 2    
   123   60   62 1    
   124   62   63 1    
   125   62   64 1    
   126   62  185 1    
   127   63  186 1    
   128   63  187 1    
   129   63  188 1    
   130   64   65 am   BACKBONE|DICT|INTERRES
   131   64  189 1    
   132   65   66 2    
   133   67   68 2    
   134   67   69 am   BACKBONE|DICT|INTERRES
   135   69   70 1    
   136   69  190 1    
   137   70   71 1    
   138   70   72 1    
   139   70  191 1    
   140   71  192 1    
   141   71  193 1    
   142   71  194 1    
   143   72   73 2    
   144   72   74 am   BACKBONE|DICT|INTERRES
   145   74   75 1    
   146   74  195 1    
   147   75   76 1    
   148   75   77 1    
   149   75  196 1    
   150   76  197 1    
   151   76  198 1    
   152   76  199 1    
   153   77   78 2    
   154   77   79 am   BACKBONE|DICT|INTERRES
   155   79   80 1    
   156   79  200 1    
   157   80   81 1    
   158   80   82 1    
   159   80  201 1    
   160   81  202 1    
   161   81  203 1    
   162   81  204 1    
   163   82   83 2    
   164   82   84 am   BACKBONE|DICT|INTERRES
   165   84   85 1    
   166   84  205 1    
   167   85   86 1    
   168   85   87 1    
   169   85  206 1    
   170   86  207 1    
   171   86  208 1    
   172   86  209 1    
   173   87   88 2    
   174   87   89 am   BACKBONE|DICT|INTERRES
   175   89   90 1    
   176   89  210 1    
   177   90   91 1    
   178   90   92 1    
   179   90  211 1    
   180   91  212 1    
   181   91  213 1    
   182   91  214 1    
   183   92   93 2    
   184   92   94 am   BACKBONE|DICT|INTERRES
   185   94   95 1    
   186   94  215 1    
   187   95   96 1    
   188   95   97 1    
   189   95  216 1    
   190   96  217 1    
   191   96  218 1    
   192   96  219 1    
   193   97   98 2    
   194   97   99 am   BACKBONE|DICT|INTERRES
   195   99  100 1    
   196   99  220 1    
   197  100  101 1    
   198  100  102 1    
   199  100  221 1    
   200  101  222 1    
   201  101  223 1    
   202  101  224 1    
   203  102  103 2    
   204  102  104 am   BACKBONE|DICT|INTERRES
   205  104  105 1    
   206  104  225 1    
   207  105  106 1    
   208  105  107 1    
   209  105  226 1    
   210  106  227 1    
   211  106  228 1    
   212  106  229 1    
   213  107  108 2    
   214  107  109 am   BACKBONE|DICT|INTERRES
   215  109  110 1    
   216  109  230 1    
   217  110  111 1    
   218  110  112 1    
   219  110  231 1    
   220  111  232 1    
   221  111  233 1    
   222  111  234 1    
   223  112  113 2    
   224  112  114 am   BACKBONE|DICT|INTERRES
   225  114  115 1    
   226  114  235 1    
   227  115  116 1    
   228  115  117 1    
   229  115  236 1    
   230  116  237 1    
   231  116  238 1    
   232  116  239 1    
   233  117  118 2    
   234  117  119 am   BACKBONE|DICT|INTERRES
   235  119  120 1    
   236  119  240 1    
   237  120  121 1    
   238  120  124 1    
   239  120  241 1    
   240  121  122 am   BACKBONE|DICT|INTERRES
   241  121  123 2    
   242  122  242 1    
   243  122  243 1    
   244  124  125 1    
   245  124  244 1    
   246  124  245 1    
   247  125  126 1    
   248  126  246 1    
   249  126  247 1    
@<TRIPOS>SUBSTRUCTURE
     1 UNK         1 GROUP             0       ****    0 ROOT    
