@<TRIPOS>MOLECULE
3R540
247   249    1
SMALL
USER_CHARGES


@<TRIPOS>ATOM
      1 CA         -3.6674  -12.2886  -41.7329 C.3       0 UNK        -0.1800 
      2 C          -2.6075  -12.6431  -42.7666 C.2       0 UNK         0.5000 
      3 O          -1.5205  -13.0788  -42.3905 O.2       0 UNK        -0.5000 
      4 N          -2.9363  -12.4672  -44.0551 N.am      1 UNK        -0.5000 
      5 CA         -2.0897  -12.6713  -45.2383 C.3       1 UNK         0.1400 
      6 C6         -1.3913  -14.0583  -45.2699 C.3       23 UNK        -0.0398 
      7 S7         -0.8091  -14.5305  -46.9341 S.3       23 UNK        -0.2404 
      8 C8         -1.6944  -16.0971  -47.1857 C.3       23 UNK        -0.0205 
      9 C9         -1.2728  -16.7815  -48.4755 C.ar      23 UNK        -0.0193 
     10 C10        -2.2042  -16.9989  -49.4966 C.ar      23 UNK        -0.1150 
     11 C11        -1.8339  -17.6795  -50.6596 C.ar      23 UNK        -0.0193 
     12 C12        -0.5092  -18.0868  -50.8211 C.ar      23 UNK        -0.1150 
     13 C13         0.4181  -17.9153  -49.7935 C.ar      23 UNK        -0.0193 
     14 C14         0.0350  -17.2560  -48.6226 C.ar      23 UNK        -0.1150 
     15 C15         1.8120  -18.4979  -49.9468 C.3       23 UNK        -0.0205 
     16 S16         1.7610  -20.3197  -49.8970 S.3       23 UNK        -0.2404 
     17 C17         1.5251  -20.6073  -48.1157 C.3       23 UNK        -0.0398 
     18 CA          0.9082  -21.9941  -47.7878 C.3       11 UNK         0.1400 
     19 N           1.3164  -22.4521  -46.4613 N.am      11 UNK        -0.5000 
     20 C           2.4205  -23.1724  -46.2193 C.2       10 UNK         0.5000 
     21 O           3.1402  -23.6236  -47.1116 O.2       10 UNK        -0.5000 
     22 CA          2.8072  -23.4198  -44.7471 C.3       10 UNK         0.1400 
     23 CB          4.3277  -23.3208  -44.5285 C.3       10 UNK        -0.1800 
     24 N           2.1512  -22.4677  -43.8529 N.am      10 UNK        -0.5000 
     25 C           1.4044  -22.7906  -42.7900 C.2       9 UNK         0.5000 
     26 O           1.2074  -23.9504  -42.4261 O.2       9 UNK        -0.5000 
     27 CA          0.7540  -21.6398  -41.9901 C.3       9 UNK         0.1400 
     28 CB          1.5011  -21.4306  -40.6637 C.3       9 UNK        -0.1800 
     29 N           0.6782  -20.3544  -42.6888 N.am      9 UNK        -0.5000 
     30 C           0.0654  -20.1173  -43.8566 C.2       8 UNK         0.5000 
     31 O          -0.5256  -20.9745  -44.5147 O.2       8 UNK        -0.5000 
     32 CA          0.2211  -18.6982  -44.4321 C.3       8 UNK         0.1400 
     33 CB         -0.8063  -17.7526  -43.7949 C.3       8 UNK        -0.1800 
     34 N           1.5705  -18.1461  -44.2687 N.am      8 UNK        -0.5000 
     35 C           2.7072  -18.7357  -44.6761 C.2       7 UNK         0.5000 
     36 O           2.7557  -19.8444  -45.2064 O.2       7 UNK        -0.5000 
     37 CA          4.0129  -17.9748  -44.4143 C.3       7 UNK         0.1400 
     38 CB          4.1847  -16.8393  -45.4298 C.3       7 UNK        -0.1800 
     39 N           4.0341  -17.4398  -43.0556 N.am      7 UNK        -0.5000 
     40 C           4.3578  -18.1664  -41.9761 C.2       6 UNK         0.5000 
     41 O           4.7723  -19.3247  -42.0290 O.2       6 UNK        -0.5000 
     42 CA          4.1640  -17.4993  -40.6012 C.3       6 UNK         0.1400 
     43 CB          5.4328  -16.7395  -40.1860 C.3       6 UNK        -0.1800 
     44 N           3.0225  -16.5850  -40.5586 N.am      6 UNK        -0.5000 
     45 C           1.7424  -16.9452  -40.7264 C.2       5 UNK         0.5000 
     46 O           1.3739  -18.1044  -40.9149 O.2       5 UNK        -0.5000 
     47 CA          0.7030  -15.8099  -40.7235 C.3       5 UNK         0.1400 
     48 CB          0.1627  -15.5787  -39.3048 C.3       5 UNK        -0.1800 
     49 N           1.2047  -14.5429  -41.2601 N.am      5 UNK        -0.5000 
     50 C           1.6593  -14.3516  -42.5058 C.2       4 UNK         0.5000 
     51 O           1.7829  -15.2604  -43.3333 O.2       4 UNK        -0.5000 
     52 CA          2.0217  -12.8940  -42.8517 C.3       4 UNK         0.1400 
     53 CB          3.2450  -12.4026  -42.0492 C.3       4 UNK        -0.1800 
     54 N           2.1816  -12.6602  -44.2903 N.am      4 UNK        -0.5000 
     55 C           3.1807  -13.0384  -45.1034 C.2       3 UNK         0.5000 
     56 O           4.2126  -13.5877  -44.7175 O.2       3 UNK        -0.5000 
     57 CA          3.0089  -12.7531  -46.6129 C.3       3 UNK         0.1400 
     58 CB          3.0280  -14.0580  -47.4266 C.3       3 UNK        -0.1800 
     59 N           1.7701  -12.0366  -46.9221 N.am      3 UNK        -0.5000 
     60 C           1.6116  -10.7064  -46.8746 C.2       2 UNK         0.5000 
     61 O           2.5240   -9.9157  -46.6338 O.2       2 UNK        -0.5000 
     62 CA          0.1804  -10.1754  -47.0998 C.3       2 UNK         0.1400 
     63 CB         -0.0303   -9.8036  -48.5753 C.3       2 UNK        -0.1800 
     64 N          -0.8535  -11.1339  -46.6938 N.am      2 UNK        -0.5000 
     65 C          -1.0770  -11.5206  -45.4301 C.2       1 UNK         0.5000 
     66 O          -0.4745  -11.0437  -44.4669 O.2       1 UNK        -0.5000 
     67 C          -0.6258  -22.0921  -47.8801 C.2       11 UNK         0.5000 
     68 O          -1.1312  -23.1483  -48.2603 O.2       11 UNK        -0.5000 
     69 N          -1.3533  -21.0464  -47.4621 N.am      12 UNK        -0.5000 
     70 CA         -2.8213  -21.0081  -47.4223 C.3       12 UNK         0.1400 
     71 CB         -3.2777  -19.6172  -46.9630 C.3       12 UNK        -0.1800 
     72 C          -3.4599  -22.0872  -46.5252 C.2       12 UNK         0.5000 
     73 O          -4.5521  -22.5641  -46.8300 O.2       12 UNK        -0.5000 
     74 N          -2.7693  -22.4627  -45.4413 N.am      13 UNK        -0.5000 
     75 CA         -3.1772  -23.5431  -44.5443 C.3       13 UNK         0.1400 
     76 CB         -2.4596  -23.3725  -43.1994 C.3       13 UNK        -0.1800 
     77 C          -2.8985  -24.9434  -45.1252 C.2       13 UNK         0.5000 
     78 O          -3.5424  -25.9035  -44.7003 O.2       13 UNK        -0.5000 
     79 N          -1.9510  -25.0470  -46.0696 N.am      14 UNK        -0.5000 
     80 CA         -1.6136  -26.2930  -46.7583 C.3       14 UNK         0.1400 
     81 CB         -0.1672  -26.2329  -47.2760 C.3       14 UNK        -0.1800 
     82 C          -2.6077  -26.5886  -47.8949 C.2       14 UNK         0.5000 
     83 O          -3.0196  -27.7388  -48.0529 O.2       14 UNK        -0.5000 
     84 N          -3.0068  -25.5476  -48.6355 N.am      15 UNK        -0.5000 
     85 CA         -4.0521  -25.5972  -49.6506 C.3       15 UNK         0.1400 
     86 CB         -3.4754  -26.0676  -50.9974 C.3       15 UNK        -0.1800 
     87 C          -4.6810  -24.2044  -49.7610 C.2       15 UNK         0.5000 
     88 O          -3.9778  -23.2455  -50.0711 O.2       15 UNK        -0.5000 
     89 N          -5.9927  -24.1128  -49.5164 N.am      16 UNK        -0.5000 
     90 CA         -6.7493  -22.8551  -49.5020 C.3       16 UNK         0.1400 
     91 CB         -7.9372  -23.0157  -48.5385 C.3       16 UNK        -0.1800 
     92 C          -7.2270  -22.4030  -50.8987 C.2       16 UNK         0.5000 
     93 O          -7.9506  -21.4104  -50.9997 O.2       16 UNK        -0.5000 
     94 N          -6.8515  -23.1464  -51.9478 N.am      17 UNK        -0.5000 
     95 CA         -7.2163  -22.9227  -53.3447 C.3       17 UNK         0.1400 
     96 CB         -6.9119  -24.2054  -54.1395 C.3       17 UNK        -0.1800 
     97 C          -6.5109  -21.6903  -53.9442 C.2       17 UNK         0.5000 
     98 O          -5.5920  -21.8348  -54.7518 O.2       17 UNK        -0.5000 
     99 N          -6.9566  -20.4900  -53.5544 N.am      18 UNK        -0.5000 
    100 CA        -6.4408  -19.1966  -54.0186 C.3       18 UNK         0.1400 
    101 CB        -7.1492  -18.0677  -53.2574 C.3       18 UNK        -0.1800 
    102 C         -6.5516  -18.9848  -55.5424 C.2       18 UNK         0.5000 
    103 O         -5.7172  -18.2873  -56.1187 O.2       18 UNK        -0.5000 
    104 N         -7.5305  -19.6444  -56.1791 N.am      19 UNK        -0.5000 
    105 CA        -7.6920  -19.7203  -57.6348 C.3       19 UNK         0.1400 
    106 CB        -9.0437  -20.3787  -57.9496 C.3       19 UNK        -0.1800 
    107 C         -6.5469  -20.4764  -58.3447 C.2       19 UNK         0.5000 
    108 O         -6.3054  -20.2344  -59.5274 O.2       19 UNK        -0.5000 
    109 N         -5.8514  -21.3518  -57.6070 N.am      20 UNK        -0.5000 
    110 CA        -4.6491  -22.0735  -58.0231 C.3       20 UNK         0.1400 
    111 CB        -4.8551  -23.5722  -57.7384 C.3       20 UNK        -0.1800 
    112 C         -3.4037  -21.5178  -57.2986 C.2       20 UNK         0.5000 
    113 O         -2.4202  -22.2411  -57.1276 O.2       20 UNK        -0.5000 
    114 N         -3.4786  -20.2530  -56.8513 N.am      21 UNK        -0.5000 
    115 CA        -2.4529  -19.4913  -56.1292 C.3       21 UNK         0.1400 
    116 CB        -1.2562  -19.1917  -57.0556 C.3       21 UNK        -0.1800 
    117 C         -2.0233  -20.1278  -54.7894 C.2       21 UNK         0.5000 
    118 O         -0.8992  -19.8977  -54.3407 O.2       21 UNK        -0.5000 
    119 N         -2.9215  -20.9134  -54.1777 N.am      22 UNK        -0.5000 
    120 CA        -2.6917  -21.7117  -52.9612 C.3       22 UNK         0.1400 
    121 C         -1.6651  -22.8710  -53.1646 C.2       22 UNK         0.5000 
    122 N         -1.4261  -23.3337  -54.3882 N.am      22 UNK        -0.7600 
    123 O         -1.0810  -23.3742  -52.2101 O.2       22 UNK        -0.5000 
    124 C124       -2.3942  -20.8458  -51.7050 C.3       23 UNK        -0.0398 
    125 S125       -3.6981  -19.6086  -51.3481 S.3       23 UNK        -0.2404 
    126 C126       -2.8699  -18.0238  -51.7182 C.3       23 UNK        -0.0205 
    127 H127       -3.9077  -13.1629  -41.1279 H         1 UNK         0.0600 
    128 H128       -4.5874  -11.9334  -42.1978 H         1 UNK         0.0600 
    129 H129       -3.2968  -11.5062  -41.0707 H         1 UNK         0.0600 
    130 H130       -3.8514  -12.0907  -44.2604 H         1 UNK         0.3000 
    131 H131       -2.7870  -12.6338  -46.0771 H         1 UNK         0.0600 
    132 H132       -0.5396  -14.0901  -44.5895 H         1 UNK         0.0800 
    133 H133       -2.0841  -14.8200  -44.9102 H         1 UNK         0.0800 
    134 H134       -1.4928  -16.7702  -46.3540 H         1 UNK         0.0800 
    135 H135       -2.7687  -15.9060  -47.1792 H         1 UNK         0.0800 
    136 H136       -3.2282  -16.6762  -49.3711 H         1 UNK         0.1150 
    137 H137       -0.2045  -18.5921  -51.7266 H         1 UNK         0.1150 
    138 H138        0.7475  -17.1187  -47.8210 H         1 UNK         0.1150 
    139 H139        2.2310  -18.1795  -50.9024 H         1 UNK         0.0800 
    140 H140        2.4849  -18.1236  -49.1734 H         1 UNK         0.0800 
    141 H141        0.9701  -19.7905  -47.6565 H         1 UNK         0.0800 
    142 H142        2.5267  -20.5464  -47.6891 H         1 UNK         0.0800 
    143 H143        1.2834  -22.7073  -48.5255 H         1 UNK         0.0600 
    144 H144        0.7588  -22.1225  -45.6815 H         1 UNK         0.3000 
    145 H145        2.4942  -24.4405  -44.5195 H         1 UNK         0.0600 
    146 H146        4.5882  -23.5106  -43.4871 H         1 UNK         0.0600 
    147 H147        4.7042  -22.3315  -44.7924 H         1 UNK         0.0600 
    148 H148        4.8647  -24.0524  -45.1333 H         1 UNK         0.0600 
    149 H149        2.2643  -21.4895  -44.1017 H         1 UNK         0.3000 
    150 H150       -0.2675  -21.9447  -41.7587 H         1 UNK         0.0600 
    151 H151        1.5791  -22.3624  -40.1020 H         1 UNK         0.0600 
    152 H152        0.9816  -20.7137  -40.0277 H         1 UNK         0.0600 
    153 H153        2.5133  -21.0590  -40.8297 H         1 UNK         0.0600 
    154 H154        1.1118  -19.5679  -42.2131 H         1 UNK         0.3000 
    155 H155        0.0249  -18.7450  -45.5043 H         1 UNK         0.0600 
    156 H156       -1.8188  -18.0151  -44.1026 H         1 UNK         0.0600 
    157 H157       -0.6314  -16.7163  -44.0826 H         1 UNK         0.0600 
    158 H158       -0.7785  -17.8072  -42.7074 H         1 UNK         0.0600 
    159 H159        1.6334  -17.2217  -43.8540 H         1 UNK         0.3000 
    160 H160        4.8458  -18.6695  -44.5433 H         1 UNK         0.0600 
    161 H161        3.3632  -16.1262  -45.3705 H         1 UNK         0.0600 
    162 H162        4.2100  -17.2263  -46.4493 H         1 UNK         0.0600 
    163 H163        5.1141  -16.2949  -45.2625 H         1 UNK         0.0600 
    164 H164        3.6567  -16.5096  -42.9296 H         1 UNK         0.3000 
    165 H165        3.9840  -18.2924  -39.8724 H         1 UNK         0.0600 
    166 H166        5.3375  -16.3321  -39.1793 H         1 UNK         0.0600 
    167 H167        6.3011  -17.3998  -40.1872 H         1 UNK         0.0600 
    168 H168        5.6476  -15.9131  -40.8648 H         1 UNK         0.0600 
    169 H169        3.2271  -15.6069  -40.4174 H         1 UNK         0.3000 
    170 H170       -0.1313  -16.1180  -41.3535 H         1 UNK         0.0600 
    171 H171        0.9426  -15.2259  -38.6288 H         1 UNK         0.0600 
    172 H172       -0.6417  -14.8428  -39.3049 H         1 UNK         0.0600 
    173 H173       -0.2429  -16.5010  -38.8864 H         1 UNK         0.0600 
    174 H174        1.1129  -13.7407  -40.6540 H         1 UNK         0.3000 
    175 H175        1.1677  -12.2819  -42.5583 H         1 UNK         0.0600 
    176 H176        4.1102  -13.0527  -42.1811 H         1 UNK         0.0600 
    177 H177        3.5332  -11.3943  -42.3467 H         1 UNK         0.0600 
    178 H178        3.0270  -12.3719  -40.9814 H         1 UNK         0.0600 
    179 H179        1.3927  -12.1934  -44.7171 H         1 UNK         0.3000 
    180 H180        3.8608  -12.1472  -46.9281 H         1 UNK         0.0600 
    181 H181        2.8964  -13.8632  -48.4910 H         1 UNK         0.0600 
    182 H182        2.2398  -14.7423  -47.1110 H         1 UNK         0.0600 
    183 H183        3.9806  -14.5756  -47.3104 H         1 UNK         0.0600 
    184 H184        0.9646  -12.6100  -47.1316 H         1 UNK         0.3000 
    185 H185        0.0636   -9.2717  -46.4979 H         1 UNK         0.0600 
    186 H186        0.7098   -9.0723  -48.9030 H         1 UNK         0.0600 
    187 H187        0.0574  -10.6740  -49.2268 H         1 UNK         0.0600 
    188 H188       -1.0141   -9.3617  -48.7344 H         1 UNK         0.0600 
    189 H189       -1.3737  -11.5726  -47.4406 H         1 UNK         0.3000 
    190 H190       -0.8809  -20.2234  -47.1250 H         1 UNK         0.3000 
    191 H191       -3.1855  -21.1699  -48.4388 H         1 UNK         0.0600 
    192 H192       -2.9624  -18.8542  -47.6692 H         1 UNK         0.0600 
    193 H193       -2.8749  -19.3625  -45.9822 H         1 UNK         0.0600 
    194 H194       -4.3653  -19.5619  -46.8987 H         1 UNK         0.0600 
    195 H195       -1.9071  -21.9741  -45.2109 H         1 UNK         0.3000 
    196 H196       -4.2518  -23.4633  -44.3666 H         1 UNK         0.0600 
    197 H197       -2.6405  -22.3852  -42.7740 H         1 UNK         0.0600 
    198 H198       -1.3842  -23.5017  -43.3113 H         1 UNK         0.0600 
    199 H199       -2.8048  -24.1106  -42.4744 H         1 UNK         0.0600 
    200 H200       -1.5222  -24.2039  -46.4279 H         1 UNK         0.3000 
    201 H201       -1.6701  -27.1158  -46.0421 H         1 UNK         0.0600 
    202 H202        0.5325  -26.0131  -46.4695 H         1 UNK         0.0600 
    203 H203       -0.0365  -25.4752  -48.0480 H         1 UNK         0.0600 
    204 H204        0.1265  -27.1893  -47.7098 H         1 UNK         0.0600 
    205 H205       -2.5988  -24.6307  -48.4741 H         1 UNK         0.3000 
    206 H206       -4.8244  -26.3029  -49.3366 H         1 UNK         0.0600 
    207 H207       -2.6608  -25.4237  -51.3298 H         1 UNK         0.0600 
    208 H208       -3.0891  -27.0846  -50.9288 H         1 UNK         0.0600 
    209 H209       -4.2397  -26.0608  -51.7752 H         1 UNK         0.0600 
    210 H210       -6.5102  -24.9461  -49.2760 H         1 UNK         0.3000 
    211 H211       -6.1096  -22.0592  -49.1144 H         1 UNK         0.0600 
    212 H212       -8.6300  -23.7866  -48.8780 H         1 UNK         0.0600 
    213 H213       -8.4991  -22.0854  -48.4460 H         1 UNK         0.0600 
    214 H214       -7.5963  -23.2845  -47.5383 H         1 UNK         0.0600 
    215 H215       -6.2425  -23.9291  -51.7652 H         1 UNK         0.3000 
    216 H216       -8.2923  -22.7449  -53.3980 H         1 UNK         0.0600 
    217 H217       -7.1815  -24.0879  -55.1900 H         1 UNK         0.0600 
    218 H218       -7.4788  -25.0527  -53.7535 H         1 UNK         0.0600 
    219 H219       -5.8529  -24.4644  -54.0995 H         1 UNK         0.0600 
    220 H220       -7.6522  -20.4675  -52.8165 H         1 UNK         0.3000 
    221 H221       -5.3789  -19.1591  -53.7704 H         1 UNK         0.0600 
    222 H222       -8.2250  -18.0751  -53.4366 H         1 UNK         0.0600 
    223 H223       -6.9858  -18.1568  -52.1830 H         1 UNK         0.0600 
    224 H224       -6.7699  -17.0915  -53.5626 H         1 UNK         0.0600 
    225 H225       -8.1749  -20.1881  -55.6241 H         1 UNK         0.3000 
    226 H226       -7.7054  -18.7012  -58.0267 H         1 UNK         0.0600 
    227 H227       -9.8691  -19.8131  -57.5168 H         1 UNK         0.0600 
    228 H228       -9.2140  -20.4265  -59.0261 H         1 UNK         0.0600 
    229 H229       -9.0944  -21.3977  -57.5638 H         1 UNK         0.0600 
    230 H230       -6.0860  -21.4598  -56.6257 H         1 UNK         0.3000 
    231 H231       -4.4789  -21.9491  -59.0940 H         1 UNK         0.0600 
    232 H232       -4.0144  -24.1621  -58.1054 H         1 UNK         0.0600 
    233 H233       -5.7522  -23.9471  -58.2313 H         1 UNK         0.0600 
    234 H234       -4.9531  -23.7681  -56.6699 H         1 UNK         0.0600 
    235 H235       -4.3457  -19.7524  -57.0019 H         1 UNK         0.3000 
    236 H236       -2.9131  -18.5371  -55.8693 H         1 UNK         0.0600 
    237 H237       -0.7032  -20.0974  -57.3066 H         1 UNK         0.0600 
    238 H238       -1.5842  -18.7295  -57.9867 H         1 UNK         0.0600 
    239 H239       -0.5562  -18.5017  -56.5831 H         1 UNK         0.0600 
    240 H240       -3.8184  -21.0759  -54.6240 H         1 UNK         0.3000 
    241 H241       -3.6350  -22.2231  -52.7687 H         1 UNK         0.0600 
    242 H242       -1.8651  -22.9193  -55.2020 H         1 UNK         0.3800 
    243 H243       -0.7641  -24.0832  -54.5084 H         1 UNK         0.3800 
    244 H244       -1.4246  -20.3707  -51.8121 H         1 UNK         0.0800 
    245 H245       -2.3006  -21.4768  -50.8211 H         1 UNK         0.0800 
    246 H246       -2.4095  -18.0654  -52.7054 H         1 UNK         0.0800 
    247 H247       -3.6232  -17.2363  -51.7659 H         1 UNK         0.0800 
@<TRIPOS>BOND
     1    1    2 1    
     2    1  127 1    
     3    1  128 1    
     4    1  129 1    
     5    2    3 2    
     6    2    4 am   BACKBONE|DICT|INTERRES
     7    4    5 1    
     8    4  130 1    
     9    5    6 1    
    10    5   65 1    
    11    5  131 1    
    12    6    7 1    
    13    6  132 1    
    14    6  133 1    
    15    7    8 1    
    16    8    9 1    
    17    8  134 1    
    18    8  135 1    
    19    9   10 ar   
    20    9   14 ar   
    21   10   11 ar   
    22   10  136 1    
    23   11   12 ar   
    24   11  126 1    
    25   12   13 ar   
    26   12  137 1    
    27   13   14 ar   
    28   13   15 1    
    29   14  138 1    
    30   15   16 1    
    31   15  139 1    
    32   15  140 1    
    33   16   17 1    
    34   17   18 1    
    35   17  141 1    
    36   17  142 1    
    37   18   19 1    
    38   18   67 1    
    39   18  143 1    
    40   19   20 am   BACKBONE|DICT|INTERRES
    41   19  144 1    
    42   20   21 2    
    43   20   22 1    
    44   22   23 1    
    45   22   24 1    
    46   22  145 1    
    47   23  146 1    
    48   23  147 1    
    49   23  148 1    
    50   24   25 am   BACKBONE|DICT|INTERRES
    51   24  149 1    
    52   25   26 2    
    53   25   27 1    
    54   27   28 1    
    55   27   29 1    
    56   27  150 1    
    57   28  151 1    
    58   28  152 1    
    59   28  153 1    
    60   29   30 am   BACKBONE|DICT|INTERRES
    61   29  154 1    
    62   30   31 2    
    63   30   32 1    
    64   32   33 1    
    65   32   34 1    
    66   32  155 1    
    67   33  156 1    
    68   33  157 1    
    69   33  158 1    
    70   34   35 am   BACKBONE|DICT|INTERRES
    71   34  159 1    
    72   35   36 2    
    73   35   37 1    
    74   37   38 1    
    75   37   39 1    
    76   37  160 1    
    77   38  161 1    
    78   38  162 1    
    79   38  163 1    
    80   39   40 am   BACKBONE|DICT|INTERRES
    81   39  164 1    
    82   40   41 2    
    83   40   42 1    
    84   42   43 1    
    85   42   44 1    
    86   42  165 1    
    87   43  166 1    
    88   43  167 1    
    89   43  168 1    
    90   44   45 am   BACKBONE|DICT|INTERRES
    91   44  169 1    
    92   45   46 2    
    93   45   47 1    
    94   47   48 1    
    95   47   49 1    
    96   47  170 1    
    97   48  171 1    
    98   48  172 1    
    99   48  173 1    
   100   49   50 am   BACKBONE|DICT|INTERRES
   101   49  174 1    
   102   50   51 2    
   103   50   52 1    
   104   52   53 1    
   105   52   54 1    
   106   52  175 1    
   107   53  176 1    
   108   53  177 1    
   109   53  178 1    
   110   54   55 am   BACKBONE|DICT|INTERRES
   111   54  179 1    
   112   55   56 2    
   113   55   57 1    
   114   57   58 1    
   115   57   59 1    
   116   57  180 1    
   117   58  181 1    
   118   58  182 1    
   119   58  183 1    
   120   59   60 am   BACKBONE|DICT|INTERRES
   121   59  184 1    
   122   60   61 2    
   123   60   62 1    
   124   62   63 1    
   125   62   64 1    
   126   62  185 1    
   127   63  186 1    
   128   63  187 1    
   129   63  188 1    
   130   64   65 am   BACKBONE|DICT|INTERRES
   131   64  189 1    
   132   65   66 2    
   133   67   68 2    
   134   67   69 am   BACKBONE|DICT|INTERRES
   135   69   70 1    
   136   69  190 1    
   137   70   71 1    
   138   70   72 1    
   139   70  191 1    
   140   71  192 1    
   141   71  193 1    
   142   71  194 1    
   143   72   73 2    
   144   72   74 am   BACKBONE|DICT|INTERRES
   145   74   75 1    
   146   74  195 1    
   147   75   76 1    
   148   75   77 1    
   149   75  196 1    
   150   76  197 1    
   151   76  198 1    
   152   76  199 1    
   153   77   78 2    
   154   77   79 am   BACKBONE|DICT|INTERRES
   155   79   80 1    
   156   79  200 1    
   157   80   81 1    
   158   80   82 1    
   159   80  201 1    
   160   81  202 1    
   161   81  203 1    
   162   81  204 1    
   163   82   83 2    
   164   82   84 am   BACKBONE|DICT|INTERRES
   165   84   85 1    
   166   84  205 1    
   167   85   86 1    
   168   85   87 1    
   169   85  206 1    
   170   86  207 1    
   171   86  208 1    
   172   86  209 1    
   173   87   88 2    
   174   87   89 am   BACKBONE|DICT|INTERRES
   175   89   90 1    
   176   89  210 1    
   177   90   91 1    
   178   90   92 1    
   179   90  211 1    
   180   91  212 1    
   181   91  213 1    
   182   91  214 1    
   183   92   93 2    
   184   92   94 am   BACKBONE|DICT|INTERRES
   185   94   95 1    
   186   94  215 1    
   187   95   96 1    
   188   95   97 1    
   189   95  216 1    
   190   96  217 1    
   191   96  218 1    
   192   96  219 1    
   193   97   98 2    
   194   97   99 am   BACKBONE|DICT|INTERRES
   195   99  100 1    
   196   99  220 1    
   197  100  101 1    
   198  100  102 1    
   199  100  221 1    
   200  101  222 1    
   201  101  223 1    
   202  101  224 1    
   203  102  103 2    
   204  102  104 am   BACKBONE|DICT|INTERRES
   205  104  105 1    
   206  104  225 1    
   207  105  106 1    
   208  105  107 1    
   209  105  226 1    
   210  106  227 1    
   211  106  228 1    
   212  106  229 1    
   213  107  108 2    
   214  107  109 am   BACKBONE|DICT|INTERRES
   215  109  110 1    
   216  109  230 1    
   217  110  111 1    
   218  110  112 1    
   219  110  231 1    
   220  111  232 1    
   221  111  233 1    
   222  111  234 1    
   223  112  113 2    
   224  112  114 am   BACKBONE|DICT|INTERRES
   225  114  115 1    
   226  114  235 1    
   227  115  116 1    
   228  115  117 1    
   229  115  236 1    
   230  116  237 1    
   231  116  238 1    
   232  116  239 1    
   233  117  118 2    
   234  117  119 am   BACKBONE|DICT|INTERRES
   235  119  120 1    
   236  119  240 1    
   237  120  121 1    
   238  120  124 1    
   239  120  241 1    
   240  121  122 am   BACKBONE|DICT|INTERRES
   241  121  123 2    
   242  122  242 1    
   243  122  243 1    
   244  124  125 1    
   245  124  244 1    
   246  124  245 1    
   247  125  126 1    
   248  126  246 1    
   249  126  247 1    
@<TRIPOS>SUBSTRUCTURE
     1 UNK         1 GROUP             0       ****    0 ROOT    
