@<TRIPOS>MOLECULE
3R540
247   249    1
SMALL
USER_CHARGES


@<TRIPOS>ATOM
      1 CA          6.4907  -14.5412  -43.3745 C.3       0 UNK        -0.1800 
      2 C           5.0497  -14.7362  -43.8180 C.2       0 UNK         0.5000 
      3 O           4.1271  -14.4151  -43.0685 O.2       0 UNK        -0.5000 
      4 N           4.8407  -15.2736  -45.0238 N.am      1 UNK        -0.5000 
      5 CA          3.5194  -15.5347  -45.6038 C.3       1 UNK         0.1400 
      6 C6          3.5828  -16.5661  -46.7562 C.3       23 UNK        -0.0398 
      7 S7          4.8180  -16.1817  -48.0506 S.3       23 UNK        -0.2404 
      8 C8          3.7522  -15.8288  -49.4929 C.3       23 UNK        -0.0205 
      9 C9          2.9487  -17.0127  -50.0382 C.ar      23 UNK        -0.0193 
     10 C10         1.8904  -16.7495  -50.9122 C.ar      23 UNK        -0.1150 
     11 C11         1.1164  -17.7870  -51.4397 C.ar      23 UNK        -0.0193 
     12 C12         1.3963  -19.1064  -51.0734 C.ar      23 UNK        -0.1150 
     13 C13         2.4562  -19.3929  -50.2072 C.ar      23 UNK        -0.0193 
     14 C14         3.2383  -18.3443  -49.7124 C.ar      23 UNK        -0.1150 
     15 C15         2.7562  -20.8379  -49.8176 C.3       23 UNK        -0.0205 
     16 S16         2.9950  -21.0848  -48.0207 S.3       23 UNK        -0.2404 
     17 C17         1.4278  -20.4512  -47.3335 C.3       23 UNK        -0.0398 
     18 CA          0.4084  -21.5559  -46.9710 C.3       11 UNK         0.1400 
     19 N          -0.6532  -21.0310  -46.1091 N.am      11 UNK        -0.5000 
     20 C          -1.6270  -21.7559  -45.5421 C.2       10 UNK         0.5000 
     21 O          -1.6944  -22.9821  -45.6065 O.2       10 UNK        -0.5000 
     22 CA         -2.7445  -20.9735  -44.8316 C.3       10 UNK         0.1400 
     23 CB         -2.3462  -20.6357  -43.3884 C.3       10 UNK        -0.1800 
     24 N          -3.0930  -19.7493  -45.5555 N.am      10 UNK        -0.5000 
     25 C          -3.7636  -19.7312  -46.7170 C.2       9 UNK         0.5000 
     26 O          -4.1994  -20.7425  -47.2669 O.2       9 UNK        -0.5000 
     27 CA         -3.9405  -18.3611  -47.4012 C.3       9 UNK         0.1400 
     28 CB         -5.1757  -17.6333  -46.8519 C.3       9 UNK        -0.1800 
     29 N          -2.7638  -17.4980  -47.2692 N.am      9 UNK        -0.5000 
     30 C          -1.5719  -17.7759  -47.8161 C.2       8 UNK         0.5000 
     31 O          -1.3529  -18.7867  -48.4802 O.2       8 UNK        -0.5000 
     32 CA         -0.4131  -16.8092  -47.5066 C.3       8 UNK         0.1400 
     33 CB         -0.4383  -15.5877  -48.4362 C.3       8 UNK        -0.1800 
     34 N          -0.3922  -16.3387  -46.1201 N.am      8 UNK        -0.5000 
     35 C          -0.3377  -17.1133  -45.0303 C.2       7 UNK         0.5000 
     36 O          -0.2893  -18.3423  -45.0768 O.2       7 UNK        -0.5000 
     37 CA         -0.4017  -16.3746  -43.6805 C.3       7 UNK         0.1400 
     38 CB         -1.6759  -16.7372  -42.8944 C.3       7 UNK        -0.1800 
     39 N           0.8060  -16.5344  -42.8651 N.am      7 UNK        -0.5000 
     40 C           1.2842  -17.6340  -42.2602 C.2       6 UNK         0.5000 
     41 O           0.7424  -18.7381  -42.2757 O.2       6 UNK        -0.5000 
     42 CA          2.5994  -17.4650  -41.4742 C.3       6 UNK         0.1400 
     43 CB          3.7886  -17.9942  -42.2914 C.3       6 UNK        -0.1800 
     44 N           2.8552  -16.0713  -41.0976 N.am      6 UNK        -0.5000 
     45 C           2.3439  -15.4756  -40.0092 C.2       5 UNK         0.5000 
     46 O           1.6293  -16.0504  -39.1877 O.2       5 UNK        -0.5000 
     47 CA          2.6571  -13.9823  -39.8228 C.3       5 UNK         0.1400 
     48 CB          4.0733  -13.7886  -39.2576 C.3       5 UNK        -0.1800 
     49 N           2.5483  -13.2812  -41.0996 N.am      5 UNK        -0.5000 
     50 C           1.7556  -12.2377  -41.3533 C.2       4 UNK         0.5000 
     51 O           1.0473  -11.6772  -40.5138 O.2       4 UNK        -0.5000 
     52 CA          1.7420  -11.7506  -42.8078 C.3       4 UNK         0.1400 
     53 CB          0.4076  -12.1044  -43.4795 C.3       4 UNK        -0.1800 
     54 N           1.9036  -10.2996  -42.8294 N.am      4 UNK        -0.5000 
     55 C           2.9525   -9.5583  -43.2187 C.2       3 UNK         0.5000 
     56 O           2.9525   -8.3417  -43.0363 O.2       3 UNK        -0.5000 
     57 CA          4.1872  -10.1834  -43.9158 C.3       3 UNK         0.1400 
     58 CB          5.1340  -10.8364  -42.8950 C.3       3 UNK        -0.1800 
     59 N           3.9115  -11.1186  -45.0096 N.am      3 UNK        -0.5000 
     60 C           3.1662  -10.8748  -46.0966 C.2       2 UNK         0.5000 
     61 O           2.6186   -9.7958  -46.3240 O.2       2 UNK        -0.5000 
     62 CA          3.0215  -12.0214  -47.1177 C.3       2 UNK         0.1400 
     63 CB          3.7631  -11.6788  -48.4199 C.3       2 UNK        -0.1800 
     64 N           3.5333  -13.3016  -46.6199 N.am      2 UNK        -0.5000 
     65 C           2.7914  -14.2393  -46.0169 C.2       1 UNK         0.5000 
     66 O           1.5938  -14.1116  -45.7636 O.2       1 UNK        -0.5000 
     67 C          -0.1738  -22.2441  -48.2248 C.2       11 UNK         0.5000 
     68 O           0.2050  -23.3751  -48.5291 O.2       11 UNK        -0.5000 
     69 N          -1.1237  -21.5763  -48.8959 N.am      12 UNK        -0.5000 
     70 CA         -1.8789  -22.1206  -50.0230 C.3       12 UNK         0.1400 
     71 CB         -2.7736  -21.0332  -50.6311 C.3       12 UNK        -0.1800 
     72 C          -2.7059  -23.3574  -49.6375 C.2       12 UNK         0.5000 
     73 O          -2.6823  -24.3439  -50.3702 O.2       12 UNK        -0.5000 
     74 N          -3.3831  -23.3153  -48.4817 N.am      13 UNK        -0.5000 
     75 CA         -4.1409  -24.4461  -47.9441 C.3       13 UNK         0.1400 
     76 CB         -4.9595  -24.0055  -46.7232 C.3       13 UNK        -0.1800 
     77 C          -3.2612  -25.6682  -47.6217 C.2       13 UNK         0.5000 
     78 O          -3.6394  -26.7881  -47.9659 O.2       13 UNK        -0.5000 
     79 N          -2.0796  -25.4335  -47.0340 N.am      14 UNK        -0.5000 
     80 CA         -1.0562  -26.4517  -46.7774 C.3       14 UNK         0.1400 
     81 CB          0.0596  -25.8490  -45.9107 C.3       14 UNK        -0.1800 
     82 C          -0.4762  -27.0660  -48.0681 C.2       14 UNK         0.5000 
     83 O          -0.1434  -28.2513  -48.0811 O.2       14 UNK        -0.5000 
     84 N          -0.4115  -26.2647  -49.1395 N.am      15 UNK        -0.5000 
     85 CA         -0.0342  -26.6769  -50.4933 C.3       15 UNK         0.1400 
     86 CB          0.5152  -25.4527  -51.2458 C.3       15 UNK        -0.1800 
     87 C          -1.1861  -27.3453  -51.2802 C.2       15 UNK         0.5000 
     88 O          -0.9905  -27.6815  -52.4489 O.2       15 UNK        -0.5000 
     89 N          -2.3542  -27.5260  -50.6430 N.am      16 UNK        -0.5000 
     90 CA         -3.5884  -28.1188  -51.1711 C.3       16 UNK         0.1400 
     91 CB         -3.3698  -29.5816  -51.6120 C.3       16 UNK        -0.1800 
     92 C          -4.2821  -27.2560  -52.2473 C.2       16 UNK         0.5000 
     93 O          -5.0193  -27.7858  -53.0800 O.2       16 UNK        -0.5000 
     94 N          -4.0725  -25.9361  -52.1844 N.am      17 UNK        -0.5000 
     95 CA         -4.6895  -24.9173  -53.0318 C.3       17 UNK         0.1400 
     96 CB         -3.5775  -24.0922  -53.7044 C.3       17 UNK        -0.1800 
     97 C          -5.6461  -24.0407  -52.1984 C.2       17 UNK         0.5000 
     98 O          -5.7618  -22.8391  -52.4484 O.2       17 UNK        -0.5000 
     99 N          -6.3272  -24.6553  -51.2185 N.am      18 UNK        -0.5000 
    100 CA        -7.2548  -24.0102  -50.2812 C.3       18 UNK         0.1400 
    101 CB        -7.7661  -25.0581  -49.2781 C.3       18 UNK        -0.1800 
    102 C         -8.4511  -23.3174  -50.9610 C.2       18 UNK         0.5000 
    103 O         -8.9350  -22.3050  -50.4558 O.2       18 UNK        -0.5000 
    104 N         -8.8950  -23.8709  -52.0978 N.am      19 UNK        -0.5000 
    105 CA        -9.9662  -23.3190  -52.9272 C.3       19 UNK         0.1400 
    106 CB       -10.4581  -24.4068  -53.8943 C.3       19 UNK        -0.1800 
    107 C         -9.5372  -22.0602  -53.7058 C.2       19 UNK         0.5000 
    108 O        -10.3908  -21.2310  -54.0231 O.2       19 UNK        -0.5000 
    109 N         -8.2358  -21.9411  -54.0046 N.am      20 UNK        -0.5000 
    110 CA        -7.6510  -20.7865  -54.6814 C.3       20 UNK         0.1400 
    111 CB        -6.4233  -21.2264  -55.4949 C.3       20 UNK        -0.1800 
    112 C         -7.2736  -19.6920  -53.6730 C.2       20 UNK         0.5000 
    113 O         -7.5859  -18.5246  -53.9086 O.2       20 UNK        -0.5000 
    114 N         -6.6005  -20.0872  -52.5793 N.am      21 UNK        -0.5000 
    115 CA        -6.1378  -19.2396  -51.4708 C.3       21 UNK         0.1400 
    116 CB        -7.3308  -18.8163  -50.5907 C.3       21 UNK        -0.1800 
    117 C         -5.2783  -18.0413  -51.9378 C.2       21 UNK         0.5000 
    118 O         -5.4524  -16.9240  -51.4490 O.2       21 UNK        -0.5000 
    119 N         -4.3974  -18.3065  -52.9125 N.am      22 UNK        -0.5000 
    120 CA        -3.5594  -17.3371  -53.6455 C.3       22 UNK         0.1400 
    121 C         -4.3253  -16.4582  -54.6829 C.2       22 UNK         0.5000 
    122 N         -5.6163  -16.6525  -54.9223 N.am      22 UNK        -0.7600 
    123 O         -3.7258  -15.5949  -55.3183 O.2       22 UNK        -0.5000 
    124 C124       -2.6370  -16.4680  -52.7427 C.3       23 UNK        -0.0398 
    125 S125       -1.6201  -17.4313  -51.5762 S.3       23 UNK        -0.2404 
    126 C126       -0.0089  -17.4759  -52.4158 C.3       23 UNK        -0.0205 
    127 H127        6.6863  -15.1293  -42.4780 H         1 UNK         0.0600 
    128 H128        6.6752  -13.4934  -43.1415 H         1 UNK         0.0600 
    129 H129        7.1968  -14.8490  -44.1459 H         1 UNK         0.0600 
    130 H130        5.6283  -15.5316  -45.6028 H         1 UNK         0.3000 
    131 H131        2.9041  -15.9837  -44.8222 H         1 UNK         0.0600 
    132 H132        3.8407  -17.5433  -46.3456 H         1 UNK         0.0800 
    133 H133        2.6003  -16.6965  -47.2069 H         1 UNK         0.0800 
    134 H134        3.0707  -15.0196  -49.2259 H         1 UNK         0.0800 
    135 H135        4.3833  -15.4469  -50.2962 H         1 UNK         0.0800 
    136 H136        1.6671  -15.7276  -51.1859 H         1 UNK         0.1150 
    137 H137        0.7877  -19.9081  -51.4678 H         1 UNK         0.1150 
    138 H138        4.0651  -18.5801  -49.0594 H         1 UNK         0.1150 
    139 H139        1.9611  -21.5016  -50.1601 H         1 UNK         0.0800 
    140 H140        3.6618  -21.1551  -50.3357 H         1 UNK         0.0800 
    141 H141        1.6897  -19.8915  -46.4343 H         1 UNK         0.0800 
    142 H142        0.9885  -19.7209  -48.0102 H         1 UNK         0.0800 
    143 H143        0.9298  -22.3205  -46.3911 H         1 UNK         0.0600 
    144 H144       -0.6459  -20.0291  -45.9399 H         1 UNK         0.3000 
    145 H145       -3.6303  -21.6105  -44.7930 H         1 UNK         0.0600 
    146 H146       -2.1736  -21.5453  -42.8122 H         1 UNK         0.0600 
    147 H147       -1.4282  -20.0498  -43.3498 H         1 UNK         0.0600 
    148 H148       -3.1293  -20.0721  -42.8812 H         1 UNK         0.0600 
    149 H149       -2.7110  -18.8864  -45.1980 H         1 UNK         0.3000 
    150 H150       -4.1026  -18.5437  -48.4660 H         1 UNK         0.0600 
    151 H151       -6.0692  -18.2509  -46.9543 H         1 UNK         0.0600 
    152 H152       -5.3601  -16.7062  -47.3952 H         1 UNK         0.0600 
    153 H153       -5.0641  -17.3887  -45.7949 H         1 UNK         0.0600 
    154 H154       -2.8669  -16.6540  -46.7259 H         1 UNK         0.3000 
    155 H155        0.5115  -17.3567  -47.6903 H         1 UNK         0.0600 
    156 H156        0.4365  -14.9558  -48.2813 H         1 UNK         0.0600 
    157 H157       -1.3276  -14.9770  -48.2773 H         1 UNK         0.0600 
    158 H158       -0.4321  -15.8894  -49.4815 H         1 UNK         0.0600 
    159 H159       -0.3598  -15.3346  -45.9987 H         1 UNK         0.3000 
    160 H160       -0.4646  -15.3084  -43.8971 H         1 UNK         0.0600 
    161 H161       -1.7020  -17.7894  -42.6143 H         1 UNK         0.0600 
    162 H162       -2.5696  -16.5371  -43.4866 H         1 UNK         0.0600 
    163 H163       -1.7532  -16.1482  -41.9805 H         1 UNK         0.0600 
    164 H164        1.3584  -15.6969  -42.7601 H         1 UNK         0.3000 
    165 H165        2.5222  -18.0702  -40.5683 H         1 UNK         0.0600 
    166 H166        3.8991  -17.4680  -43.2383 H         1 UNK         0.0600 
    167 H167        4.7234  -17.8931  -41.7397 H         1 UNK         0.0600 
    168 H168        3.6605  -19.0527  -42.5217 H         1 UNK         0.0600 
    169 H169        3.4393  -15.5317  -41.7285 H         1 UNK         0.3000 
    170 H170        1.9399  -13.5830  -39.1026 H         1 UNK         0.0600 
    171 H171        4.1920  -14.3153  -38.3100 H         1 UNK         0.0600 
    172 H172        4.8366  -14.1620  -39.9418 H         1 UNK         0.0600 
    173 H173        4.2795  -12.7343  -39.0725 H         1 UNK         0.0600 
    174 H174        3.1118  -13.6594  -41.8596 H         1 UNK         0.3000 
    175 H175        2.5302  -12.2708  -43.3427 H         1 UNK         0.0600 
    176 H176        0.2321  -13.1783  -43.4482 H         1 UNK         0.0600 
    177 H177       -0.4371  -11.6186  -42.9894 H         1 UNK         0.0600 
    178 H178        0.4049  -11.8054  -44.5279 H         1 UNK         0.0600 
    179 H179        1.1582   -9.8131  -42.3531 H         1 UNK         0.3000 
    180 H180        4.7341   -9.3525  -44.3665 H         1 UNK         0.0600 
    181 H181        4.7126  -11.7419  -42.4606 H         1 UNK         0.0600 
    182 H182        5.3535  -10.1535  -42.0733 H         1 UNK         0.0600 
    183 H183        6.0860  -11.0978  -43.3567 H         1 UNK         0.0600 
    184 H184        4.3152  -12.0382  -44.9233 H         1 UNK         0.3000 
    185 H185        1.9585  -12.1163  -47.3500 H         1 UNK         0.0600 
    186 H186        3.6251  -12.4588  -49.1689 H         1 UNK         0.0600 
    187 H187        3.3909  -10.7484  -48.8508 H         1 UNK         0.0600 
    188 H188        4.8343  -11.5586  -48.2539 H         1 UNK         0.0600 
    189 H189        4.5092  -13.4972  -46.7923 H         1 UNK         0.3000 
    190 H190       -1.3382  -20.6186  -48.6239 H         1 UNK         0.3000 
    191 H191       -1.1605  -22.4294  -50.7847 H         1 UNK         0.0600 
    192 H192       -3.3841  -21.4305  -51.4431 H         1 UNK         0.0600 
    193 H193       -2.1722  -20.2242  -51.0421 H         1 UNK         0.0600 
    194 H194       -3.4453  -20.6057  -49.8877 H         1 UNK         0.0600 
    195 H195       -3.4037  -22.4514  -47.9492 H         1 UNK         0.3000 
    196 H196       -4.8364  -24.7553  -48.7233 H         1 UNK         0.0600 
    197 H197       -5.5699  -24.8271  -46.3466 H         1 UNK         0.0600 
    198 H198       -5.6351  -23.1881  -46.9760 H         1 UNK         0.0600 
    199 H199       -4.3190  -23.6722  -45.9074 H         1 UNK         0.0600 
    200 H200       -1.8635  -24.4861  -46.7326 H         1 UNK         0.3000 
    201 H201       -1.5260  -27.2590  -46.2119 H         1 UNK         0.0600 
    202 H202       -0.3339  -25.4786  -44.9639 H         1 UNK         0.0600 
    203 H203        0.5563  -25.0187  -46.4129 H         1 UNK         0.0600 
    204 H204        0.8203  -26.5950  -45.6780 H         1 UNK         0.0600 
    205 H205       -0.6568  -25.2878  -49.0230 H         1 UNK         0.3000 
    206 H206        0.7699  -27.4118  -50.4205 H         1 UNK         0.0600 
    207 H207        1.3349  -24.9873  -50.6980 H         1 UNK         0.0600 
    208 H208        0.9001  -25.7340  -52.2266 H         1 UNK         0.0600 
    209 H209       -0.2536  -24.6966  -51.4017 H         1 UNK         0.0600 
    210 H210       -2.4236  -27.1886  -49.6904 H         1 UNK         0.3000 
    211 H211       -4.2812  -28.1417  -50.3290 H         1 UNK         0.0600 
    212 H212       -2.7603  -29.6492  -52.5133 H         1 UNK         0.0600 
    213 H213       -4.3206  -30.0707  -51.8267 H         1 UNK         0.0600 
    214 H214       -2.8792  -30.1603  -50.8294 H         1 UNK         0.0600 
    215 H215       -3.4661  -25.5670  -51.4527 H         1 UNK         0.3000 
    216 H216       -5.2883  -25.3816  -53.8172 H         1 UNK         0.0600 
    217 H217       -3.9922  -23.3719  -54.4096 H         1 UNK         0.0600 
    218 H218       -2.8961  -24.7344  -54.2625 H         1 UNK         0.0600 
    219 H219       -2.9882  -23.5371  -52.9741 H         1 UNK         0.0600 
    220 H220       -6.1772  -25.6451  -51.0928 H         1 UNK         0.3000 
    221 H221       -6.6956  -23.2470  -49.7355 H         1 UNK         0.0600 
    222 H222       -8.3567  -25.8306  -49.7723 H         1 UNK         0.0600 
    223 H223       -6.9521  -25.5539  -48.7515 H         1 UNK         0.0600 
    224 H224       -8.4020  -24.5944  -48.5228 H         1 UNK         0.0600 
    225 H225       -8.4481  -24.7129  -52.4293 H         1 UNK         0.3000 
    226 H226      -10.7979  -23.0391  -52.2769 H         1 UNK         0.0600 
    227 H227      -10.8273  -25.2783  -53.3534 H         1 UNK         0.0600 
    228 H228      -11.2780  -24.0381  -54.5121 H         1 UNK         0.0600 
    229 H229       -9.6648  -24.7382  -54.5656 H         1 UNK         0.0600 
    230 H230       -7.5890  -22.6315  -53.6488 H         1 UNK         0.3000 
    231 H231       -8.3780  -20.3669  -55.3803 H         1 UNK         0.0600 
    232 H232       -5.9936  -20.3822  -56.0358 H         1 UNK         0.0600 
    233 H233       -6.6909  -21.9827  -56.2329 H         1 UNK         0.0600 
    234 H234       -5.6396  -21.6404  -54.8611 H         1 UNK         0.0600 
    235 H235       -6.3582  -21.0729  -52.5031 H         1 UNK         0.3000 
    236 H236       -5.4880  -19.8641  -50.8582 H         1 UNK         0.0600 
    237 H237       -7.8951  -19.6845  -50.2503 H         1 UNK         0.0600 
    238 H238       -6.9928  -18.2819  -49.7020 H         1 UNK         0.0600 
    239 H239       -8.0165  -18.1612  -51.1289 H         1 UNK         0.0600 
    240 H240       -4.3490  -19.2558  -53.2517 H         1 UNK         0.3000 
    241 H241       -2.9010  -17.9554  -54.2564 H         1 UNK         0.0600 
    242 H242       -6.1615  -17.3418  -54.4140 H         1 UNK         0.3800 
    243 H243       -6.0757  -16.0745  -55.6078 H         1 UNK         0.3800 
    244 H244       -1.9773  -15.8512  -53.3545 H         1 UNK         0.0800 
    245 H245       -3.2313  -15.7630  -52.1606 H         1 UNK         0.0800 
    246 H246        0.1846  -16.5192  -52.9029 H         1 UNK         0.0800 
    247 H247       -0.0364  -18.2254  -53.2080 H         1 UNK         0.0800 
@<TRIPOS>BOND
     1    1    2 1    
     2    1  127 1    
     3    1  128 1    
     4    1  129 1    
     5    2    3 2    
     6    2    4 am   BACKBONE|DICT|INTERRES
     7    4    5 1    
     8    4  130 1    
     9    5    6 1    
    10    5   65 1    
    11    5  131 1    
    12    6    7 1    
    13    6  132 1    
    14    6  133 1    
    15    7    8 1    
    16    8    9 1    
    17    8  134 1    
    18    8  135 1    
    19    9   10 ar   
    20    9   14 ar   
    21   10   11 ar   
    22   10  136 1    
    23   11   12 ar   
    24   11  126 1    
    25   12   13 ar   
    26   12  137 1    
    27   13   14 ar   
    28   13   15 1    
    29   14  138 1    
    30   15   16 1    
    31   15  139 1    
    32   15  140 1    
    33   16   17 1    
    34   17   18 1    
    35   17  141 1    
    36   17  142 1    
    37   18   19 1    
    38   18   67 1    
    39   18  143 1    
    40   19   20 am   BACKBONE|DICT|INTERRES
    41   19  144 1    
    42   20   21 2    
    43   20   22 1    
    44   22   23 1    
    45   22   24 1    
    46   22  145 1    
    47   23  146 1    
    48   23  147 1    
    49   23  148 1    
    50   24   25 am   BACKBONE|DICT|INTERRES
    51   24  149 1    
    52   25   26 2    
    53   25   27 1    
    54   27   28 1    
    55   27   29 1    
    56   27  150 1    
    57   28  151 1    
    58   28  152 1    
    59   28  153 1    
    60   29   30 am   BACKBONE|DICT|INTERRES
    61   29  154 1    
    62   30   31 2    
    63   30   32 1    
    64   32   33 1    
    65   32   34 1    
    66   32  155 1    
    67   33  156 1    
    68   33  157 1    
    69   33  158 1    
    70   34   35 am   BACKBONE|DICT|INTERRES
    71   34  159 1    
    72   35   36 2    
    73   35   37 1    
    74   37   38 1    
    75   37   39 1    
    76   37  160 1    
    77   38  161 1    
    78   38  162 1    
    79   38  163 1    
    80   39   40 am   BACKBONE|DICT|INTERRES
    81   39  164 1    
    82   40   41 2    
    83   40   42 1    
    84   42   43 1    
    85   42   44 1    
    86   42  165 1    
    87   43  166 1    
    88   43  167 1    
    89   43  168 1    
    90   44   45 am   BACKBONE|DICT|INTERRES
    91   44  169 1    
    92   45   46 2    
    93   45   47 1    
    94   47   48 1    
    95   47   49 1    
    96   47  170 1    
    97   48  171 1    
    98   48  172 1    
    99   48  173 1    
   100   49   50 am   BACKBONE|DICT|INTERRES
   101   49  174 1    
   102   50   51 2    
   103   50   52 1    
   104   52   53 1    
   105   52   54 1    
   106   52  175 1    
   107   53  176 1    
   108   53  177 1    
   109   53  178 1    
   110   54   55 am   BACKBONE|DICT|INTERRES
   111   54  179 1    
   112   55   56 2    
   113   55   57 1    
   114   57   58 1    
   115   57   59 1    
   116   57  180 1    
   117   58  181 1    
   118   58  182 1    
   119   58  183 1    
   120   59   60 am   BACKBONE|DICT|INTERRES
   121   59  184 1    
   122   60   61 2    
   123   60   62 1    
   124   62   63 1    
   125   62   64 1    
   126   62  185 1    
   127   63  186 1    
   128   63  187 1    
   129   63  188 1    
   130   64   65 am   BACKBONE|DICT|INTERRES
   131   64  189 1    
   132   65   66 2    
   133   67   68 2    
   134   67   69 am   BACKBONE|DICT|INTERRES
   135   69   70 1    
   136   69  190 1    
   137   70   71 1    
   138   70   72 1    
   139   70  191 1    
   140   71  192 1    
   141   71  193 1    
   142   71  194 1    
   143   72   73 2    
   144   72   74 am   BACKBONE|DICT|INTERRES
   145   74   75 1    
   146   74  195 1    
   147   75   76 1    
   148   75   77 1    
   149   75  196 1    
   150   76  197 1    
   151   76  198 1    
   152   76  199 1    
   153   77   78 2    
   154   77   79 am   BACKBONE|DICT|INTERRES
   155   79   80 1    
   156   79  200 1    
   157   80   81 1    
   158   80   82 1    
   159   80  201 1    
   160   81  202 1    
   161   81  203 1    
   162   81  204 1    
   163   82   83 2    
   164   82   84 am   BACKBONE|DICT|INTERRES
   165   84   85 1    
   166   84  205 1    
   167   85   86 1    
   168   85   87 1    
   169   85  206 1    
   170   86  207 1    
   171   86  208 1    
   172   86  209 1    
   173   87   88 2    
   174   87   89 am   BACKBONE|DICT|INTERRES
   175   89   90 1    
   176   89  210 1    
   177   90   91 1    
   178   90   92 1    
   179   90  211 1    
   180   91  212 1    
   181   91  213 1    
   182   91  214 1    
   183   92   93 2    
   184   92   94 am   BACKBONE|DICT|INTERRES
   185   94   95 1    
   186   94  215 1    
   187   95   96 1    
   188   95   97 1    
   189   95  216 1    
   190   96  217 1    
   191   96  218 1    
   192   96  219 1    
   193   97   98 2    
   194   97   99 am   BACKBONE|DICT|INTERRES
   195   99  100 1    
   196   99  220 1    
   197  100  101 1    
   198  100  102 1    
   199  100  221 1    
   200  101  222 1    
   201  101  223 1    
   202  101  224 1    
   203  102  103 2    
   204  102  104 am   BACKBONE|DICT|INTERRES
   205  104  105 1    
   206  104  225 1    
   207  105  106 1    
   208  105  107 1    
   209  105  226 1    
   210  106  227 1    
   211  106  228 1    
   212  106  229 1    
   213  107  108 2    
   214  107  109 am   BACKBONE|DICT|INTERRES
   215  109  110 1    
   216  109  230 1    
   217  110  111 1    
   218  110  112 1    
   219  110  231 1    
   220  111  232 1    
   221  111  233 1    
   222  111  234 1    
   223  112  113 2    
   224  112  114 am   BACKBONE|DICT|INTERRES
   225  114  115 1    
   226  114  235 1    
   227  115  116 1    
   228  115  117 1    
   229  115  236 1    
   230  116  237 1    
   231  116  238 1    
   232  116  239 1    
   233  117  118 2    
   234  117  119 am   BACKBONE|DICT|INTERRES
   235  119  120 1    
   236  119  240 1    
   237  120  121 1    
   238  120  124 1    
   239  120  241 1    
   240  121  122 am   BACKBONE|DICT|INTERRES
   241  121  123 2    
   242  122  242 1    
   243  122  243 1    
   244  124  125 1    
   245  124  244 1    
   246  124  245 1    
   247  125  126 1    
   248  126  246 1    
   249  126  247 1    
@<TRIPOS>SUBSTRUCTURE
     1 UNK         1 GROUP             0       ****    0 ROOT    
