@<TRIPOS>MOLECULE
3R540
247   249    1
SMALL
USER_CHARGES


@<TRIPOS>ATOM
      1 CA          2.4794  -10.6543  -52.5108 C.3       0 UNK        -0.1800 
      2 C           1.9237  -12.0688  -52.4336 C.2       0 UNK         0.5000 
      3 O           0.8784  -12.3495  -53.0194 O.2       0 UNK        -0.5000 
      4 N           2.6055  -12.9571  -51.6976 N.am      1 UNK        -0.5000 
      5 CA          2.3004  -14.3820  -51.4809 C.3       1 UNK         0.1400 
      6 C6          2.1953  -15.2002  -52.8026 C.3       23 UNK        -0.0398 
      7 S7          3.0795  -16.7958  -52.7361 S.3       23 UNK        -0.2404 
      8 C8          1.7436  -17.9149  -52.2266 C.3       23 UNK        -0.0205 
      9 C9          2.2373  -19.3445  -52.0552 C.ar      23 UNK        -0.0193 
     10 C10         1.9464  -20.3153  -53.0200 C.ar      23 UNK        -0.1150 
     11 C11         2.4186  -21.6249  -52.8763 C.ar      23 UNK        -0.0193 
     12 C12         3.2016  -21.9488  -51.7664 C.ar      23 UNK        -0.1150 
     13 C13         3.4551  -21.0049  -50.7688 C.ar      23 UNK        -0.0193 
     14 C14         2.9729  -19.7012  -50.9197 C.ar      23 UNK        -0.1150 
     15 C15         4.2658  -21.4019  -49.5440 C.3       23 UNK        -0.0205 
     16 S16         3.4351  -22.6859  -48.5490 S.3       23 UNK        -0.2404 
     17 C17         2.1645  -21.7319  -47.6564 C.3       23 UNK        -0.0398 
     18 CA          0.7122  -22.2085  -47.9378 C.3       11 UNK         0.1400 
     19 N          -0.1266  -22.0402  -46.7515 N.am      11 UNK        -0.5000 
     20 C          -1.2530  -22.7156  -46.4984 C.2       10 UNK         0.5000 
     21 O          -1.6745  -23.6310  -47.2032 O.2       10 UNK        -0.5000 
     22 CA         -2.0452  -22.2936  -45.2460 C.3       10 UNK         0.1400 
     23 CB         -1.6725  -23.1748  -44.0458 C.3       10 UNK        -0.1800 
     24 N          -1.8433  -20.8890  -44.8943 N.am      10 UNK        -0.5000 
     25 C          -2.3417  -19.8517  -45.5815 C.2       9 UNK         0.5000 
     26 O          -3.1351  -19.9693  -46.5159 O.2       9 UNK        -0.5000 
     27 CA         -1.8697  -18.4491  -45.1550 C.3       9 UNK         0.1400 
     28 CB         -2.8486  -17.8520  -44.1333 C.3       9 UNK        -0.1800 
     29 N          -0.5197  -18.4397  -44.5889 N.am      9 UNK        -0.5000 
     30 C           0.6030  -18.8077  -45.2193 C.2       8 UNK         0.5000 
     31 O           0.6294  -19.1884  -46.3873 O.2       8 UNK        -0.5000 
     32 CA          1.8970  -18.8279  -44.3883 C.3       8 UNK         0.1400 
     33 CB          2.5588  -17.4456  -44.3350 C.3       8 UNK        -0.1800 
     34 N           1.6444  -19.2902  -43.0262 N.am      8 UNK        -0.5000 
     35 C           1.5613  -20.5774  -42.6691 C.2       7 UNK         0.5000 
     36 O           1.7241  -21.5150  -43.4503 O.2       7 UNK        -0.5000 
     37 CA          1.2217  -20.8624  -41.1938 C.3       7 UNK         0.1400 
     38 CB          2.5008  -20.9003  -40.3441 C.3       7 UNK        -0.1800 
     39 N           0.2903  -19.8883  -40.6192 N.am      7 UNK        -0.5000 
     40 C          -0.9955  -19.7786  -40.9786 C.2       6 UNK         0.5000 
     41 O          -1.5256  -20.4808  -41.8400 O.2       6 UNK        -0.5000 
     42 CA         -1.8217  -18.6798  -40.2813 C.3       6 UNK         0.1400 
     43 CB         -2.3122  -19.1701  -38.9105 C.3       6 UNK        -0.1800 
     44 N          -1.1552  -17.3798  -40.1196 N.am      6 UNK        -0.5000 
     45 C          -0.5445  -16.6831  -41.0877 C.2       5 UNK         0.5000 
     46 O          -0.2726  -17.1371  -42.1973 O.2       5 UNK        -0.5000 
     47 CA         -0.1662  -15.2257  -40.7822 C.3       5 UNK         0.1400 
     48 CB          1.3575  -15.0823  -40.6478 C.3       5 UNK        -0.1800 
     49 N          -0.6407  -14.3408  -41.8496 N.am      5 UNK        -0.5000 
     50 C          -1.9306  -14.0645  -42.0944 C.2       4 UNK         0.5000 
     51 O          -2.8573  -14.4835  -41.3994 O.2       4 UNK        -0.5000 
     52 CA         -2.2517  -13.1552  -43.2965 C.3       4 UNK         0.1400 
     53 CB         -2.5268  -11.7211  -42.8166 C.3       4 UNK        -0.1800 
     54 N          -1.1797  -13.1174  -44.2947 N.am      4 UNK        -0.5000 
     55 C          -1.1079  -13.9262  -45.3594 C.2       3 UNK         0.5000 
     56 O          -1.9233  -14.8170  -45.6068 O.2       3 UNK        -0.5000 
     57 CA          0.1045  -13.7152  -46.2861 C.3       3 UNK         0.1400 
     58 CB          1.2619  -14.6227  -45.8547 C.3       3 UNK        -0.1800 
     59 N          -0.2023  -14.0013  -47.6857 N.am      3 UNK        -0.5000 
     60 C          -1.0091  -13.2815  -48.4713 C.2       2 UNK         0.5000 
     61 O          -1.5528  -12.2358  -48.1099 O.2       2 UNK        -0.5000 
     62 CA         -1.2059  -13.8102  -49.9098 C.3       2 UNK         0.1400 
     63 CB         -2.2637  -13.0118  -50.6912 C.3       2 UNK        -0.1800 
     64 N           0.0341  -13.8040  -50.6881 N.am      2 UNK        -0.5000 
     65 C           1.0858  -14.6209  -50.5504 C.2       1 UNK         0.5000 
     66 O           1.1313  -15.5220  -49.7126 O.2       1 UNK        -0.5000 
     67 C           0.0976  -21.4692  -49.1437 C.2       11 UNK         0.5000 
     68 O           0.1487  -21.9773  -50.2621 O.2       11 UNK        -0.5000 
     69 N          -0.4511  -20.2748  -48.8743 N.am      12 UNK        -0.5000 
     70 CA         -0.8815  -19.2414  -49.8131 C.3       12 UNK         0.1400 
     71 CB         -1.1841  -17.9552  -49.0256 C.3       12 UNK        -0.1800 
     72 C          -2.0266  -19.6071  -50.7784 C.2       12 UNK         0.5000 
     73 O          -3.0649  -18.9423  -50.7832 O.2       12 UNK        -0.5000 
     74 N          -1.7856  -20.5890  -51.6537 N.am      13 UNK        -0.5000 
     75 CA         -2.6724  -21.0426  -52.7309 C.3       13 UNK         0.1400 
     76 CB         -1.9883  -22.1986  -53.4704 C.3       13 UNK        -0.1800 
     77 C          -3.0806  -19.9553  -53.7448 C.2       13 UNK         0.5000 
     78 O          -4.1007  -20.1111  -54.4157 O.2       13 UNK        -0.5000 
     79 N          -2.2951  -18.8714  -53.8246 N.am      14 UNK        -0.5000 
     80 CA         -2.5758  -17.6753  -54.6212 C.3       14 UNK         0.1400 
     81 CB         -1.3685  -16.7276  -54.5375 C.3       14 UNK        -0.1800 
     82 C          -3.8626  -16.9403  -54.1922 C.2       14 UNK         0.5000 
     83 O          -4.5096  -16.3202  -55.0371 O.2       14 UNK        -0.5000 
     84 N          -4.2082  -17.0318  -52.9009 N.am      15 UNK        -0.5000 
     85 CA         -5.4311  -16.4752  -52.3209 C.3       15 UNK         0.1400 
     86 CB         -5.0428  -15.4676  -51.2273 C.3       15 UNK        -0.1800 
     87 C          -6.3442  -17.5640  -51.7317 C.2       15 UNK         0.5000 
     88 O          -7.5510  -17.3396  -51.6353 O.2       15 UNK        -0.5000 
     89 N          -5.7541  -18.6976  -51.3195 N.am      16 UNK        -0.5000 
     90 CA         -6.3416  -19.7644  -50.5038 C.3       16 UNK         0.1400 
     91 CB         -7.4538  -20.5141  -51.2647 C.3       16 UNK        -0.1800 
     92 C          -6.7794  -19.2194  -49.1281 C.2       16 UNK         0.5000 
     93 O          -7.9031  -19.4674  -48.6875 O.2       16 UNK        -0.5000 
     94 N          -5.8885  -18.4207  -48.5177 N.am      17 UNK        -0.5000 
     95 CA         -6.1483  -17.5863  -47.3419 C.3       17 UNK         0.1400 
     96 CB         -4.9152  -16.7152  -47.0579 C.3       17 UNK        -0.1800 
     97 C          -6.5900  -18.3759  -46.0963 C.2       17 UNK         0.5000 
     98 O          -7.5346  -17.9613  -45.4230 O.2       17 UNK        -0.5000 
     99 N          -5.9345  -19.5142  -45.8469 N.am      18 UNK        -0.5000 
    100 CA        -6.3757  -20.5314  -44.8915 C.3       18 UNK         0.1400 
    101 CB        -5.4589  -20.5417  -43.6576 C.3       18 UNK        -0.1800 
    102 C         -6.4349  -21.9170  -45.5553 C.2       18 UNK         0.5000 
    103 O         -7.3032  -22.7136  -45.1979 O.2       18 UNK        -0.5000 
    104 N         -5.5449  -22.1769  -46.5218 N.am      19 UNK        -0.5000 
    105 CA        -5.4866  -23.3875  -47.3357 C.3       19 UNK         0.1400 
    106 CB        -4.9925  -24.5951  -46.5069 C.3       19 UNK        -0.1800 
    107 C         -4.5989  -23.1065  -48.5604 C.2       19 UNK         0.5000 
    108 O         -4.1858  -21.9638  -48.7682 O.2       19 UNK        -0.5000 
    109 N         -4.3328  -24.1482  -49.3528 N.am      20 UNK        -0.5000 
    110 CA        -3.5183  -24.1003  -50.5662 C.3       20 UNK         0.1400 
    111 CB        -4.4581  -24.1749  -51.7855 C.3       20 UNK        -0.1800 
    112 C         -2.4671  -25.2262  -50.5484 C.2       20 UNK         0.5000 
    113 O         -2.2115  -25.8562  -51.5761 O.2       20 UNK        -0.5000 
    114 N         -1.8982  -25.4924  -49.3673 N.am      21 UNK        -0.5000 
    115 CA        -0.9380  -26.5623  -49.1195 C.3       21 UNK         0.1400 
    116 CB        -1.1310  -27.0682  -47.6780 C.3       21 UNK        -0.1800 
    117 C          0.4947  -26.0687  -49.3873 C.2       21 UNK         0.5000 
    118 O          1.2410  -25.8084  -48.4426 O.2       21 UNK        -0.5000 
    119 N          0.8487  -25.9404  -50.6731 N.am      22 UNK        -0.5000 
    120 CA         2.1729  -25.4871  -51.1410 C.3       22 UNK         0.1400 
    121 C          3.3757  -26.3934  -50.7356 C.2       22 UNK         0.5000 
    122 N          3.1703  -27.6500  -50.3588 N.am      22 UNK        -0.7600 
    123 O          4.5192  -25.9482  -50.7745 O.2       22 UNK        -0.5000 
    124 C124        2.2069  -25.2531  -52.6752 C.3       23 UNK        -0.0398 
    125 S125        1.0146  -24.0057  -53.2696 S.3       23 UNK        -0.2404 
    126 C126        2.0952  -22.6842  -53.9226 C.3       23 UNK        -0.0205 
    127 H127        1.7528   -9.9440  -52.1160 H         1 UNK         0.0600 
    128 H128        2.6877  -10.3899  -53.5475 H         1 UNK         0.0600 
    129 H129        3.4028  -10.5491  -51.9407 H         1 UNK         0.0600 
    130 H130        3.4379  -12.6364  -51.2219 H         1 UNK         0.3000 
    131 H131        3.1676  -14.7453  -50.9268 H         1 UNK         0.0600 
    132 H132        1.1600  -15.3493  -53.1143 H         1 UNK         0.0800 
    133 H133        2.6572  -14.6468  -53.6213 H         1 UNK         0.0800 
    134 H134        1.3372  -17.5545  -51.2841 H         1 UNK         0.0800 
    135 H135        0.9349  -17.8739  -52.9563 H         1 UNK         0.0800 
    136 H136        1.3583  -20.0496  -53.8870 H         1 UNK         0.1150 
    137 H137        3.5961  -22.9476  -51.6602 H         1 UNK         0.1150 
    138 H138        3.1792  -18.9576  -50.1626 H         1 UNK         0.1150 
    139 H139        5.2294  -21.7902  -49.8766 H         1 UNK         0.0800 
    140 H140        4.4868  -20.5363  -48.9177 H         1 UNK         0.0800 
    141 H141        2.2873  -20.6652  -47.8525 H         1 UNK         0.0800 
    142 H142        2.3962  -21.8548  -46.5971 H         1 UNK         0.0800 
    143 H143        0.7327  -23.2717  -48.1782 H         1 UNK         0.0600 
    144 H144        0.1231  -21.2756  -46.1390 H         1 UNK         0.3000 
    145 H145       -3.1032  -22.4401  -45.4553 H         1 UNK         0.0600 
    146 H146       -2.2811  -22.9305  -43.1749 H         1 UNK         0.0600 
    147 H147       -1.8342  -24.2298  -44.2708 H         1 UNK         0.0600 
    148 H148       -0.6251  -23.0533  -43.7673 H         1 UNK         0.0600 
    149 H149       -1.2819  -20.6989  -44.0733 H         1 UNK         0.3000 
    150 H150       -1.8575  -17.8087  -46.0375 H         1 UNK         0.0600 
    151 H151       -3.8593  -17.7996  -44.5362 H         1 UNK         0.0600 
    152 H152       -2.5589  -16.8401  -43.8502 H         1 UNK         0.0600 
    153 H153       -2.8935  -18.4542  -43.2273 H         1 UNK         0.0600 
    154 H154       -0.4389  -18.0796  -43.6383 H         1 UNK         0.3000 
    155 H155        2.5953  -19.5123  -44.8753 H         1 UNK         0.0600 
    156 H156        1.9098  -16.7065  -43.8650 H         1 UNK         0.0600 
    157 H157        2.8039  -17.0938  -45.3375 H         1 UNK         0.0600 
    158 H158        3.4899  -17.4779  -43.7691 H         1 UNK         0.0600 
    159 H159        1.4076  -18.5806  -42.3454 H         1 UNK         0.3000 
    160 H160        0.7533  -21.8480  -41.1481 H         1 UNK         0.0600 
    161 H161        3.0045  -19.9330  -40.3298 H         1 UNK         0.0600 
    162 H162        3.2078  -21.6330  -40.7357 H         1 UNK         0.0600 
    163 H163        2.2816  -21.1807  -39.3136 H         1 UNK         0.0600 
    164 H164        0.6514  -19.2639  -39.9130 H         1 UNK         0.3000 
    165 H165       -2.7028  -18.5032  -40.9000 H         1 UNK         0.0600 
    166 H166       -3.0144  -18.4643  -38.4664 H         1 UNK         0.0600 
    167 H167       -2.8294  -20.1267  -38.9985 H         1 UNK         0.0600 
    168 H168       -1.4856  -19.3065  -38.2122 H         1 UNK         0.0600 
    169 H169       -1.3085  -16.9224  -39.2326 H         1 UNK         0.3000 
    170 H170       -0.6310  -14.9192  -39.8428 H         1 UNK         0.0600 
    171 H171        1.7409  -15.7212  -39.8514 H         1 UNK         0.0600 
    172 H172        1.8726  -15.3606  -41.5684 H         1 UNK         0.0600 
    173 H173        1.6370  -14.0572  -40.4042 H         1 UNK         0.0600 
    174 H174        0.0555  -13.9915  -42.4892 H         1 UNK         0.3000 
    175 H175       -3.1667  -13.5347  -43.7570 H         1 UNK         0.0600 
    176 H176       -1.6509  -11.2798  -42.3393 H         1 UNK         0.0600 
    177 H177       -2.8178  -11.0770  -43.6467 H         1 UNK         0.0600 
    178 H178       -3.3412  -11.7006  -42.0910 H         1 UNK         0.0600 
    179 H179       -0.4731  -12.4071  -44.1674 H         1 UNK         0.3000 
    180 H180        0.4279  -12.6746  -46.2154 H         1 UNK         0.0600 
    181 H181        0.9829  -15.6729  -45.9452 H         1 UNK         0.0600 
    182 H182        1.5434  -14.4388  -44.8172 H         1 UNK         0.0600 
    183 H183        2.1477  -14.4563  -46.4680 H         1 UNK         0.0600 
    184 H184        0.2369  -14.8206  -48.0926 H         1 UNK         0.3000 
    185 H185       -1.5609  -14.8382  -49.8312 H         1 UNK         0.0600 
    186 H186       -2.4206  -13.4342  -51.6838 H         1 UNK         0.0600 
    187 H187       -3.2242  -13.0231  -50.1744 H         1 UNK         0.0600 
    188 H188       -1.9690  -11.9692  -50.8176 H         1 UNK         0.0600 
    189 H189        0.1000  -13.1027  -51.4195 H         1 UNK         0.3000 
    190 H190       -0.4029  -19.9686  -47.9093 H         1 UNK         0.3000 
    191 H191       -0.0210  -19.0411  -50.4427 H         1 UNK         0.0600 
    192 H192       -1.4161  -17.1333  -49.7020 H         1 UNK         0.0600 
    193 H193       -0.3309  -17.6424  -48.4234 H         1 UNK         0.0600 
    194 H194       -2.0397  -18.0870  -48.3639 H         1 UNK         0.0600 
    195 H195       -0.9332  -21.1274  -51.5077 H         1 UNK         0.3000 
    196 H196       -3.5887  -21.4095  -52.2663 H         1 UNK         0.0600 
    197 H197       -1.0678  -21.8707  -53.9546 H         1 UNK         0.0600 
    198 H198       -1.7350  -23.0096  -52.7887 H         1 UNK         0.0600 
    199 H199       -2.6362  -22.6127  -54.2438 H         1 UNK         0.0600 
    200 H200       -1.4697  -18.8490  -53.2470 H         1 UNK         0.3000 
    201 H201       -2.7018  -17.9858  -55.6604 H         1 UNK         0.0600 
    202 H202       -0.4648  -17.2033  -54.9189 H         1 UNK         0.0600 
    203 H203       -1.1778  -16.4079  -53.5122 H         1 UNK         0.0600 
    204 H204       -1.5352  -15.8295  -55.1338 H         1 UNK         0.0600 
    205 H205       -3.6180  -17.5728  -52.2811 H         1 UNK         0.3000 
    206 H206       -6.0153  -15.9474  -53.0775 H         1 UNK         0.0600 
    207 H207       -4.5182  -14.6167  -51.6591 H         1 UNK         0.0600 
    208 H208       -5.9245  -15.0776  -50.7169 H         1 UNK         0.0600 
    209 H209       -4.3958  -15.9174  -50.4729 H         1 UNK         0.0600 
    210 H210       -4.7411  -18.7519  -51.3789 H         1 UNK         0.3000 
    211 H211       -5.5384  -20.4760  -50.3190 H         1 UNK         0.0600 
    212 H212       -7.7930  -21.3814  -50.6973 H         1 UNK         0.0600 
    213 H213       -7.0941  -20.8763  -52.2279 H         1 UNK         0.0600 
    214 H214       -8.3235  -19.8824  -51.4462 H         1 UNK         0.0600 
    215 H215       -4.9833  -18.3108  -48.9525 H         1 UNK         0.3000 
    216 H216       -6.9720  -16.9180  -47.6014 H         1 UNK         0.0600 
    217 H217       -4.0183  -17.3197  -46.9340 H         1 UNK         0.0600 
    218 H218       -5.0459  -16.1255  -46.1496 H         1 UNK         0.0600 
    219 H219       -4.7313  -16.0155  -47.8732 H         1 UNK         0.0600 
    220 H220       -5.1234  -19.7351  -46.4143 H         1 UNK         0.3000 
    221 H221       -7.3895  -20.3081  -44.5523 H         1 UNK         0.0600 
    222 H222       -5.4019  -19.5548  -43.1985 H         1 UNK         0.0600 
    223 H223       -4.4474  -20.8587  -43.9026 H         1 UNK         0.0600 
    224 H224       -5.8374  -21.2305  -42.9017 H         1 UNK         0.0600 
    225 H225       -4.8648  -21.4786  -46.8025 H         1 UNK         0.3000 
    226 H226       -6.4914  -23.5977  -47.7074 H         1 UNK         0.0600 
    227 H227       -3.9665  -24.4676  -46.1671 H         1 UNK         0.0600 
    228 H228       -5.6122  -24.7596  -45.6260 H         1 UNK         0.0600 
    229 H229       -5.0285  -25.5169  -47.0875 H         1 UNK         0.0600 
    230 H230       -4.6804  -25.0617  -49.0967 H         1 UNK         0.3000 
    231 H231       -2.9559  -23.1658  -50.6106 H         1 UNK         0.0600 
    232 H232       -5.0514  -25.0898  -51.7752 H         1 UNK         0.0600 
    233 H233       -3.9037  -24.1600  -52.7233 H         1 UNK         0.0600 
    234 H234       -5.1478  -23.3309  -51.8020 H         1 UNK         0.0600 
    235 H235       -2.0648  -24.8605  -48.5866 H         1 UNK         0.3000 
    236 H236       -1.1354  -27.4012  -49.7903 H         1 UNK         0.0600 
    237 H237       -2.1387  -27.4564  -47.5293 H         1 UNK         0.0600 
    238 H238       -0.4342  -27.8760  -47.4515 H         1 UNK         0.0600 
    239 H239       -0.9676  -26.2776  -46.9446 H         1 UNK         0.0600 
    240 H240        0.1551  -26.1170  -51.3879 H         1 UNK         0.3000 
    241 H241        2.3451  -24.5281  -50.6527 H         1 UNK         0.0600 
    242 H242        3.9569  -28.2242  -50.0991 H         1 UNK         0.3800 
    243 H243        2.2389  -28.0314  -50.3232 H         1 UNK         0.3800 
    244 H244        1.9962  -26.1878  -53.1973 H         1 UNK         0.0800 
    245 H245        3.2079  -24.9592  -52.9947 H         1 UNK         0.0800 
    246 H246        1.5849  -22.2253  -54.7705 H         1 UNK         0.0800 
    247 H247        3.0187  -23.1027  -54.3240 H         1 UNK         0.0800 
@<TRIPOS>BOND
     1    1    2 1    
     2    1  127 1    
     3    1  128 1    
     4    1  129 1    
     5    2    3 2    
     6    2    4 am   BACKBONE|DICT|INTERRES
     7    4    5 1    
     8    4  130 1    
     9    5    6 1    
    10    5   65 1    
    11    5  131 1    
    12    6    7 1    
    13    6  132 1    
    14    6  133 1    
    15    7    8 1    
    16    8    9 1    
    17    8  134 1    
    18    8  135 1    
    19    9   10 ar   
    20    9   14 ar   
    21   10   11 ar   
    22   10  136 1    
    23   11   12 ar   
    24   11  126 1    
    25   12   13 ar   
    26   12  137 1    
    27   13   14 ar   
    28   13   15 1    
    29   14  138 1    
    30   15   16 1    
    31   15  139 1    
    32   15  140 1    
    33   16   17 1    
    34   17   18 1    
    35   17  141 1    
    36   17  142 1    
    37   18   19 1    
    38   18   67 1    
    39   18  143 1    
    40   19   20 am   BACKBONE|DICT|INTERRES
    41   19  144 1    
    42   20   21 2    
    43   20   22 1    
    44   22   23 1    
    45   22   24 1    
    46   22  145 1    
    47   23  146 1    
    48   23  147 1    
    49   23  148 1    
    50   24   25 am   BACKBONE|DICT|INTERRES
    51   24  149 1    
    52   25   26 2    
    53   25   27 1    
    54   27   28 1    
    55   27   29 1    
    56   27  150 1    
    57   28  151 1    
    58   28  152 1    
    59   28  153 1    
    60   29   30 am   BACKBONE|DICT|INTERRES
    61   29  154 1    
    62   30   31 2    
    63   30   32 1    
    64   32   33 1    
    65   32   34 1    
    66   32  155 1    
    67   33  156 1    
    68   33  157 1    
    69   33  158 1    
    70   34   35 am   BACKBONE|DICT|INTERRES
    71   34  159 1    
    72   35   36 2    
    73   35   37 1    
    74   37   38 1    
    75   37   39 1    
    76   37  160 1    
    77   38  161 1    
    78   38  162 1    
    79   38  163 1    
    80   39   40 am   BACKBONE|DICT|INTERRES
    81   39  164 1    
    82   40   41 2    
    83   40   42 1    
    84   42   43 1    
    85   42   44 1    
    86   42  165 1    
    87   43  166 1    
    88   43  167 1    
    89   43  168 1    
    90   44   45 am   BACKBONE|DICT|INTERRES
    91   44  169 1    
    92   45   46 2    
    93   45   47 1    
    94   47   48 1    
    95   47   49 1    
    96   47  170 1    
    97   48  171 1    
    98   48  172 1    
    99   48  173 1    
   100   49   50 am   BACKBONE|DICT|INTERRES
   101   49  174 1    
   102   50   51 2    
   103   50   52 1    
   104   52   53 1    
   105   52   54 1    
   106   52  175 1    
   107   53  176 1    
   108   53  177 1    
   109   53  178 1    
   110   54   55 am   BACKBONE|DICT|INTERRES
   111   54  179 1    
   112   55   56 2    
   113   55   57 1    
   114   57   58 1    
   115   57   59 1    
   116   57  180 1    
   117   58  181 1    
   118   58  182 1    
   119   58  183 1    
   120   59   60 am   BACKBONE|DICT|INTERRES
   121   59  184 1    
   122   60   61 2    
   123   60   62 1    
   124   62   63 1    
   125   62   64 1    
   126   62  185 1    
   127   63  186 1    
   128   63  187 1    
   129   63  188 1    
   130   64   65 am   BACKBONE|DICT|INTERRES
   131   64  189 1    
   132   65   66 2    
   133   67   68 2    
   134   67   69 am   BACKBONE|DICT|INTERRES
   135   69   70 1    
   136   69  190 1    
   137   70   71 1    
   138   70   72 1    
   139   70  191 1    
   140   71  192 1    
   141   71  193 1    
   142   71  194 1    
   143   72   73 2    
   144   72   74 am   BACKBONE|DICT|INTERRES
   145   74   75 1    
   146   74  195 1    
   147   75   76 1    
   148   75   77 1    
   149   75  196 1    
   150   76  197 1    
   151   76  198 1    
   152   76  199 1    
   153   77   78 2    
   154   77   79 am   BACKBONE|DICT|INTERRES
   155   79   80 1    
   156   79  200 1    
   157   80   81 1    
   158   80   82 1    
   159   80  201 1    
   160   81  202 1    
   161   81  203 1    
   162   81  204 1    
   163   82   83 2    
   164   82   84 am   BACKBONE|DICT|INTERRES
   165   84   85 1    
   166   84  205 1    
   167   85   86 1    
   168   85   87 1    
   169   85  206 1    
   170   86  207 1    
   171   86  208 1    
   172   86  209 1    
   173   87   88 2    
   174   87   89 am   BACKBONE|DICT|INTERRES
   175   89   90 1    
   176   89  210 1    
   177   90   91 1    
   178   90   92 1    
   179   90  211 1    
   180   91  212 1    
   181   91  213 1    
   182   91  214 1    
   183   92   93 2    
   184   92   94 am   BACKBONE|DICT|INTERRES
   185   94   95 1    
   186   94  215 1    
   187   95   96 1    
   188   95   97 1    
   189   95  216 1    
   190   96  217 1    
   191   96  218 1    
   192   96  219 1    
   193   97   98 2    
   194   97   99 am   BACKBONE|DICT|INTERRES
   195   99  100 1    
   196   99  220 1    
   197  100  101 1    
   198  100  102 1    
   199  100  221 1    
   200  101  222 1    
   201  101  223 1    
   202  101  224 1    
   203  102  103 2    
   204  102  104 am   BACKBONE|DICT|INTERRES
   205  104  105 1    
   206  104  225 1    
   207  105  106 1    
   208  105  107 1    
   209  105  226 1    
   210  106  227 1    
   211  106  228 1    
   212  106  229 1    
   213  107  108 2    
   214  107  109 am   BACKBONE|DICT|INTERRES
   215  109  110 1    
   216  109  230 1    
   217  110  111 1    
   218  110  112 1    
   219  110  231 1    
   220  111  232 1    
   221  111  233 1    
   222  111  234 1    
   223  112  113 2    
   224  112  114 am   BACKBONE|DICT|INTERRES
   225  114  115 1    
   226  114  235 1    
   227  115  116 1    
   228  115  117 1    
   229  115  236 1    
   230  116  237 1    
   231  116  238 1    
   232  116  239 1    
   233  117  118 2    
   234  117  119 am   BACKBONE|DICT|INTERRES
   235  119  120 1    
   236  119  240 1    
   237  120  121 1    
   238  120  124 1    
   239  120  241 1    
   240  121  122 am   BACKBONE|DICT|INTERRES
   241  121  123 2    
   242  122  242 1    
   243  122  243 1    
   244  124  125 1    
   245  124  244 1    
   246  124  245 1    
   247  125  126 1    
   248  126  246 1    
   249  126  247 1    
@<TRIPOS>SUBSTRUCTURE
     1 UNK         1 GROUP             0       ****    0 ROOT    
