@<TRIPOS>MOLECULE
3R540
247   249    1
SMALL
USER_CHARGES


@<TRIPOS>ATOM
      1 CA         -3.1986  -14.3631  -47.8281 C.3       0 UNK        -0.1800 
      2 C          -1.6807  -14.4129  -47.8903 C.2       0 UNK         0.5000 
      3 O          -1.0492  -13.4162  -48.2415 O.2       0 UNK        -0.5000 
      4 N          -1.0883  -15.5695  -47.5623 N.am      1 UNK        -0.5000 
      5 CA          0.3632  -15.7922  -47.5988 C.3       1 UNK         0.1400 
      6 C6          0.7248  -17.2945  -47.5779 C.3       23 UNK        -0.0398 
      7 S7          0.1158  -18.1769  -49.0568 S.3       23 UNK        -0.2404 
      8 C8          1.5360  -18.0203  -50.1859 C.3       23 UNK        -0.0205 
      9 C9          1.9394  -19.3555  -50.7939 C.ar      23 UNK        -0.0193 
     10 C10         1.2993  -19.8236  -51.9447 C.ar      23 UNK        -0.1150 
     11 C11         1.7246  -21.0013  -52.5691 C.ar      23 UNK        -0.0193 
     12 C12         2.7804  -21.7291  -52.0109 C.ar      23 UNK        -0.1150 
     13 C13         3.4212  -21.2801  -50.8523 C.ar      23 UNK        -0.0193 
     14 C14         2.9936  -20.0938  -50.2464 C.ar      23 UNK        -0.1150 
     15 C15         4.6205  -22.0360  -50.2957 C.3       23 UNK        -0.0205 
     16 S16         4.2529  -22.8995  -48.7376 S.3       23 UNK        -0.2404 
     17 C17         3.3679  -24.3955  -49.3150 C.3       23 UNK        -0.0398 
     18 CA          2.3967  -24.9989  -48.2644 C.3       11 UNK         0.1400 
     19 N           3.0303  -25.1642  -46.9519 N.am      11 UNK        -0.5000 
     20 C           2.4835  -25.7758  -45.8927 C.2       10 UNK         0.5000 
     21 O           1.4006  -26.3607  -45.9232 O.2       10 UNK        -0.5000 
     22 CA          3.2574  -25.6778  -44.5614 C.3       10 UNK         0.1400 
     23 CB          4.2398  -26.8506  -44.4272 C.3       10 UNK        -0.1800 
     24 N           3.9836  -24.4155  -44.3637 N.am      10 UNK        -0.5000 
     25 C           3.4358  -23.1921  -44.3901 C.2       9 UNK         0.5000 
     26 O           2.2484  -22.9902  -44.6532 O.2       9 UNK        -0.5000 
     27 CA          4.3786  -22.0035  -44.1018 C.3       9 UNK         0.1400 
     28 CB          5.4642  -21.8804  -45.1838 C.3       9 UNK        -0.1800 
     29 N           3.6540  -20.7328  -44.0396 N.am      9 UNK        -0.5000 
     30 C           2.8352  -20.3537  -43.0505 C.2       8 UNK         0.5000 
     31 O           2.6960  -20.9784  -41.9978 O.2       8 UNK        -0.5000 
     32 CA          1.9891  -19.0943  -43.2939 C.3       8 UNK         0.1400 
     33 CB          2.5165  -18.1777  -44.4202 C.3       8 UNK        -0.1800 
     34 N           0.6411  -19.5469  -43.6119 N.am      8 UNK        -0.5000 
     35 C          -0.4807  -18.8462  -43.4308 C.2       7 UNK         0.5000 
     36 O          -0.5157  -17.7168  -42.9394 O.2       7 UNK        -0.5000 
     37 CA         -1.7831  -19.5595  -43.8357 C.3       7 UNK         0.1400 
     38 CB         -2.1883  -20.5903  -42.7702 C.3       7 UNK        -0.1800 
     39 N          -2.8856  -18.6208  -44.0194 N.am      7 UNK        -0.5000 
     40 C          -3.0649  -17.8413  -45.0930 C.2       6 UNK         0.5000 
     41 O          -2.3329  -17.8261  -46.0829 O.2       6 UNK        -0.5000 
     42 CA         -4.2781  -16.9006  -45.0314 C.3       6 UNK         0.1400 
     43 CB         -5.5960  -17.6917  -45.0720 C.3       6 UNK        -0.1800 
     44 N          -4.2546  -16.0464  -43.8453 N.am      6 UNK        -0.5000 
     45 C          -3.3604  -15.0735  -43.6271 C.2       5 UNK         0.5000 
     46 O          -2.4515  -14.7829  -44.4095 O.2       5 UNK        -0.5000 
     47 CA         -3.5211  -14.2946  -42.3119 C.3       5 UNK         0.1400 
     48 CB         -2.4708  -14.7135  -41.2731 C.3       5 UNK        -0.1800 
     49 N          -3.4007  -12.8637  -42.5685 N.am      5 UNK        -0.5000 
     50 C          -4.4363  -12.0497  -42.8107 C.2       4 UNK         0.5000 
     51 O          -5.6145  -12.4048  -42.7512 O.2       4 UNK        -0.5000 
     52 CA         -4.1093  -10.5921  -43.1881 C.3       4 UNK         0.1400 
     53 CB         -4.1205   -9.6958  -41.9403 C.3       4 UNK        -0.1800 
     54 N          -2.8191  -10.4536  -43.8624 N.am      4 UNK        -0.5000 
     55 C          -2.5562  -10.8838  -45.1030 C.2       3 UNK         0.5000 
     56 O          -3.3989  -11.3912  -45.8432 O.2       3 UNK        -0.5000 
     57 CA         -1.1098  -10.7192  -45.6054 C.3       3 UNK         0.1400 
     58 CB         -0.3934   -9.4779  -45.0288 C.3       3 UNK        -0.1800 
     59 N          -0.3084  -11.9264  -45.3935 N.am      3 UNK        -0.5000 
     60 C          -0.0140  -12.5355  -44.2339 C.2       2 UNK         0.5000 
     61 O          -0.4285  -12.1639  -43.1336 O.2       2 UNK        -0.5000 
     62 CA          0.8984  -13.7701  -44.3509 C.3       2 UNK         0.1400 
     63 CB          1.0232  -14.5848  -43.0528 C.3       2 UNK        -0.1800 
     64 N           0.4041  -14.6317  -45.4206 N.am      2 UNK        -0.5000 
     65 C           1.1133  -15.0323  -46.4830 C.2       1 UNK         0.5000 
     66 O           2.3145  -14.8008  -46.6244 O.2       1 UNK        -0.5000 
     67 C           1.0860  -24.1920  -48.1665 C.2       11 UNK         0.5000 
     68 O           0.0429  -24.6521  -48.6280 O.2       11 UNK        -0.5000 
     69 N           1.1627  -23.0280  -47.5147 N.am      12 UNK        -0.5000 
     70 CA          0.0523  -22.1110  -47.2856 C.3       12 UNK         0.1400 
     71 CB          0.6304  -20.7761  -46.8115 C.3       12 UNK        -0.1800 
     72 C          -0.9658  -22.6552  -46.2700 C.2       12 UNK         0.5000 
     73 O          -2.1595  -22.4058  -46.4105 O.2       12 UNK        -0.5000 
     74 N          -0.4939  -23.4124  -45.2718 N.am      13 UNK        -0.5000 
     75 CA         -1.3425  -24.1074  -44.3026 C.3       13 UNK         0.1400 
     76 CB         -0.4681  -24.7128  -43.1958 C.3       13 UNK        -0.1800 
     77 C          -2.2333  -25.1829  -44.9559 C.2       13 UNK         0.5000 
     78 O          -3.3753  -25.3617  -44.5313 O.2       13 UNK        -0.5000 
     79 N          -1.7066  -25.8574  -45.9866 N.am      14 UNK        -0.5000 
     80 CA         -2.4337  -26.8387  -46.7861 C.3       14 UNK         0.1400 
     81 CB         -1.4304  -27.8074  -47.4326 C.3       14 UNK        -0.1800 
     82 C          -3.3235  -26.1773  -47.8551 C.2       14 UNK         0.5000 
     83 O          -4.4972  -26.5318  -47.9711 O.2       14 UNK        -0.5000 
     84 N          -2.7459  -25.2539  -48.6352 N.am      15 UNK        -0.5000 
     85 CA         -3.3636  -24.6803  -49.8344 C.3       15 UNK         0.1400 
     86 CB         -2.2484  -24.3293  -50.8298 C.3       15 UNK        -0.1800 
     87 C          -4.2705  -23.4599  -49.5736 C.2       15 UNK         0.5000 
     88 O          -4.9706  -23.0397  -50.4954 O.2       15 UNK        -0.5000 
     89 N          -4.2516  -22.9236  -48.3462 N.am      16 UNK        -0.5000 
     90 CA         -4.9392  -21.7137  -47.8840 C.3       16 UNK         0.1400 
     91 CB         -6.4696  -21.8021  -48.0899 C.3       16 UNK        -0.1800 
     92 C          -4.2924  -20.4261  -48.4409 C.2       16 UNK         0.5000 
     93 O          -3.0850  -20.4071  -48.6856 O.2       16 UNK        -0.5000 
     94 N          -5.0908  -19.3561  -48.5701 N.am      17 UNK        -0.5000 
     95 CA         -4.6613  -18.0226  -48.9950 C.3       17 UNK         0.1400 
     96 CB         -5.8615  -17.0656  -48.9195 C.3       17 UNK        -0.1800 
     97 C          -4.0642  -18.0059  -50.4119 C.2       17 UNK         0.5000 
     98 O          -4.5761  -18.7030  -51.2883 O.2       17 UNK        -0.5000 
     99 N          -3.0297  -17.1759  -50.6087 N.am      18 UNK        -0.5000 
    100 CA        -2.1787  -17.0833  -51.8008 C.3       18 UNK         0.1400 
    101 CB        -1.2967  -15.8293  -51.6865 C.3       18 UNK        -0.1800 
    102 C         -2.9217  -17.0823  -53.1488 C.2       18 UNK         0.5000 
    103 O         -2.5434  -17.8293  -54.0527 O.2       18 UNK        -0.5000 
    104 N         -3.9824  -16.2693  -53.2417 N.am      19 UNK        -0.5000 
    105 CA        -4.8142  -16.1059  -54.4359 C.3       19 UNK         0.1400 
    106 CB        -5.7589  -14.9131  -54.2238 C.3       19 UNK        -0.1800 
    107 C         -5.6155  -17.3649  -54.8216 C.2       19 UNK         0.5000 
    108 O         -5.8909  -17.5617  -56.0056 O.2       19 UNK        -0.5000 
    109 N         -5.9699  -18.1902  -53.8287 N.am      20 UNK        -0.5000 
    110 CA        -6.6253  -19.4821  -54.0267 C.3       20 UNK         0.1400 
    111 CB        -7.5443  -19.7723  -52.8288 C.3       20 UNK        -0.1800 
    112 C         -5.5892  -20.6058  -54.1979 C.2       20 UNK         0.5000 
    113 O         -5.8135  -21.5249  -54.9862 O.2       20 UNK        -0.5000 
    114 N         -4.4831  -20.5090  -53.4493 N.am      21 UNK        -0.5000 
    115 CA        -3.4008  -21.4839  -53.3897 C.3       21 UNK         0.1400 
    116 CB        -2.4441  -21.0966  -52.2519 C.3       21 UNK        -0.1800 
    117 C         -2.6407  -21.6354  -54.7173 C.2       21 UNK         0.5000 
    118 O         -2.4543  -22.7631  -55.1768 O.2       21 UNK        -0.5000 
    119 N         -2.2124  -20.5114  -55.3049 N.am      22 UNK        -0.5000 
    120 CA        -1.4435  -20.4810  -56.5615 C.3       22 UNK         0.1400 
    121 C         -1.4665  -19.1224  -57.3182 C.2       22 UNK         0.5000 
    122 N         -1.9347  -18.0241  -56.7402 N.am      22 UNK        -0.7600 
    123 O         -1.0737  -19.0676  -58.4807 O.2       22 UNK        -0.5000 
    124 C124       -0.0024  -21.0543  -56.4205 C.3       23 UNK        -0.0398 
    125 S125        1.0206  -20.2206  -55.1545 S.3       23 UNK        -0.2404 
    126 C126        1.0499  -21.4895  -53.8451 C.3       23 UNK        -0.0205 
    127 H127       -3.5922  -13.7419  -48.6327 H         1 UNK         0.0600 
    128 H128       -3.5219  -13.9381  -46.8781 H         1 UNK         0.0600 
    129 H129       -3.6304  -15.3556  -47.9286 H         1 UNK         0.0600 
    130 H130       -1.6327  -16.3521  -47.2094 H         1 UNK         0.3000 
    131 H131        0.7329  -15.3823  -48.5415 H         1 UNK         0.0600 
    132 H132        0.2962  -17.7650  -46.6925 H         1 UNK         0.0800 
    133 H133        1.8029  -17.4425  -47.4974 H         1 UNK         0.0800 
    134 H134        2.3922  -17.5767  -49.6767 H         1 UNK         0.0800 
    135 H135        1.2754  -17.3220  -50.9820 H         1 UNK         0.0800 
    136 H136        0.4880  -19.2541  -52.3751 H         1 UNK         0.1150 
    137 H137        3.1182  -22.6372  -52.4902 H         1 UNK         0.1150 
    138 H138        3.4999  -19.7338  -49.3617 H         1 UNK         0.1150 
    139 H139        5.0068  -22.7504  -51.0244 H         1 UNK         0.0800 
    140 H140        5.4284  -21.3257  -50.1144 H         1 UNK         0.0800 
    141 H141        4.1216  -25.1398  -49.5748 H         1 UNK         0.0800 
    142 H142        2.8397  -24.1768  -50.2448 H         1 UNK         0.0800 
    143 H143        2.1210  -25.9969  -48.6120 H         1 UNK         0.0600 
    144 H144        3.9160  -24.6955  -46.8296 H         1 UNK         0.3000 
    145 H145        2.5268  -25.7575  -43.7549 H         1 UNK         0.0600 
    146 H146        4.7140  -26.8588  -43.4456 H         1 UNK         0.0600 
    147 H147        3.7266  -27.8060  -44.5458 H         1 UNK         0.0600 
    148 H148        5.0267  -26.8047  -45.1811 H         1 UNK         0.0600 
    149 H149        4.9669  -24.5002  -44.1505 H         1 UNK         0.3000 
    150 H150        4.8590  -22.1818  -43.1377 H         1 UNK         0.0600 
    151 H151        6.0506  -22.7952  -45.2748 H         1 UNK         0.0600 
    152 H152        6.1620  -21.0767  -44.9476 H         1 UNK         0.0600 
    153 H153        5.0326  -21.6666  -46.1615 H         1 UNK         0.0600 
    154 H154        3.6845  -20.1662  -44.8735 H         1 UNK         0.3000 
    155 H155        1.9732  -18.5297  -42.3592 H         1 UNK         0.0600 
    156 H156        2.5030  -18.6700  -45.3927 H         1 UNK         0.0600 
    157 H157        3.5386  -17.8549  -44.2190 H         1 UNK         0.0600 
    158 H158        1.9081  -17.2781  -44.5052 H         1 UNK         0.0600 
    159 H159        0.5814  -20.5030  -43.9342 H         1 UNK         0.3000 
    160 H160       -1.6157  -20.0817  -44.7788 H         1 UNK         0.0600 
    161 H161       -2.3937  -20.1162  -41.8096 H         1 UNK         0.0600 
    162 H162       -1.3975  -21.3239  -42.6093 H         1 UNK         0.0600 
    163 H163       -3.0811  -21.1380  -43.0730 H         1 UNK         0.0600 
    164 H164       -3.5082  -18.5060  -43.2345 H         1 UNK         0.3000 
    165 H165       -4.2486  -16.2584  -45.9111 H         1 UNK         0.0600 
    166 H166       -6.4511  -17.0241  -45.1790 H         1 UNK         0.0600 
    167 H167       -5.6145  -18.3807  -45.9166 H         1 UNK         0.0600 
    168 H168       -5.7455  -18.2830  -44.1680 H         1 UNK         0.0600 
    169 H169       -4.9729  -16.2134  -43.1557 H         1 UNK         0.3000 
    170 H170       -4.5041  -14.5186  -41.8920 H         1 UNK         0.0600 
    171 H171       -1.4857  -14.3189  -41.5144 H         1 UNK         0.0600 
    172 H172       -2.7356  -14.3417  -40.2833 H         1 UNK         0.0600 
    173 H173       -2.3884  -15.7993  -41.2035 H         1 UNK         0.0600 
    174 H174       -2.4589  -12.5144  -42.7120 H         1 UNK         0.3000 
    175 H175       -4.8899  -10.2424  -43.8671 H         1 UNK         0.0600 
    176 H176       -3.3470   -9.9875  -41.2286 H         1 UNK         0.0600 
    177 H177       -3.9587   -8.6504  -42.2037 H         1 UNK         0.0600 
    178 H178       -5.0802   -9.7557  -41.4253 H         1 UNK         0.0600 
    179 H179       -2.0543  -10.0902  -43.3118 H         1 UNK         0.3000 
    180 H180       -1.1758  -10.5831  -46.6861 H         1 UNK         0.0600 
    181 H181       -0.1993   -9.5645  -43.9594 H         1 UNK         0.0600 
    182 H182       -0.9871   -8.5764  -45.1851 H         1 UNK         0.0600 
    183 H183        0.5653   -9.3205  -45.5230 H         1 UNK         0.0600 
    184 H184        0.0169  -12.3693  -46.2426 H         1 UNK         0.3000 
    185 H185        1.8891  -13.3807  -44.5926 H         1 UNK         0.0600 
    186 H186        0.1027  -15.1228  -42.8346 H         1 UNK         0.0600 
    187 H187        1.8211  -15.3222  -43.1321 H         1 UNK         0.0600 
    188 H188        1.2568  -13.9501  -42.1974 H         1 UNK         0.0600 
    189 H189       -0.5887  -14.8442  -45.3745 H         1 UNK         0.3000 
    190 H190        2.0534  -22.7603  -47.1216 H         1 UNK         0.3000 
    191 H191       -0.4677  -21.9482  -48.2325 H         1 UNK         0.0600 
    192 H192       -0.1649  -20.0486  -46.6515 H         1 UNK         0.0600 
    193 H193        1.3152  -20.3640  -47.5521 H         1 UNK         0.0600 
    194 H194        1.1845  -20.8863  -45.8821 H         1 UNK         0.0600 
    195 H195        0.5130  -23.5105  -45.1685 H         1 UNK         0.3000 
    196 H196       -2.0030  -23.3680  -43.8471 H         1 UNK         0.0600 
    197 H197       -1.0847  -25.1493  -42.4093 H         1 UNK         0.0600 
    198 H198        0.1662  -23.9565  -42.7325 H         1 UNK         0.0600 
    199 H199        0.1753  -25.5026  -43.5817 H         1 UNK         0.0600 
    200 H200       -0.7456  -25.6751  -46.2488 H         1 UNK         0.3000 
    201 H201       -3.0798  -27.4230  -46.1273 H         1 UNK         0.0600 
    202 H202       -0.8522  -28.3363  -46.6747 H         1 UNK         0.0600 
    203 H203       -0.7259  -27.2881  -48.0834 H         1 UNK         0.0600 
    204 H204       -1.9435  -28.5583  -48.0346 H         1 UNK         0.0600 
    205 H205       -1.7634  -25.0290  -48.4921 H         1 UNK         0.3000 
    206 H206       -3.9884  -25.4443  -50.3020 H         1 UNK         0.0600 
    207 H207       -1.6000  -25.1855  -51.0173 H         1 UNK         0.0600 
    208 H208       -2.6641  -24.0269  -51.7902 H         1 UNK         0.0600 
    209 H209       -1.6267  -23.5137  -50.4588 H         1 UNK         0.0600 
    210 H210       -3.5608  -23.2758  -47.6938 H         1 UNK         0.3000 
    211 H211       -4.7665  -21.6823  -46.8075 H         1 UNK         0.0600 
    212 H212       -6.7506  -21.6754  -49.1360 H         1 UNK         0.0600 
    213 H213       -6.9908  -21.0372  -47.5135 H         1 UNK         0.0600 
    214 H214       -6.8546  -22.7659  -47.7565 H         1 UNK         0.0600 
    215 H215       -6.0763  -19.4706  -48.3891 H         1 UNK         0.3000 
    216 H216       -3.8957  -17.6902  -48.2930 H         1 UNK         0.0600 
    217 H217       -6.6778  -17.3976  -49.5625 H         1 UNK         0.0600 
    218 H218       -5.5865  -16.0597  -49.2389 H         1 UNK         0.0600 
    219 H219       -6.2466  -16.9870  -47.9033 H         1 UNK         0.0600 
    220 H220       -2.6950  -16.6521  -49.8153 H         1 UNK         0.3000 
    221 H221       -1.5239  -17.9550  -51.7875 H         1 UNK         0.0600 
    222 H222       -0.7013  -15.8394  -50.7743 H         1 UNK         0.0600 
    223 H223       -0.6022  -15.7624  -52.5250 H         1 UNK         0.0600 
    224 H224       -1.8925  -14.9158  -51.6788 H         1 UNK         0.0600 
    225 H225       -4.2307  -15.7127  -52.4373 H         1 UNK         0.3000 
    226 H226       -4.1527  -15.8722  -55.2728 H         1 UNK         0.0600 
    227 H227       -6.4294  -15.0766  -53.3792 H         1 UNK         0.0600 
    228 H228       -5.2009  -13.9952  -54.0384 H         1 UNK         0.0600 
    229 H229       -6.3777  -14.7428  -55.1060 H         1 UNK         0.0600 
    230 H230       -5.6431  -17.9937  -52.8895 H         1 UNK         0.3000 
    231 H231       -7.2444  -19.4506  -54.9258 H         1 UNK         0.0600 
    232 H232       -6.9860  -19.8346  -51.8937 H         1 UNK         0.0600 
    233 H233       -8.0672  -20.7203  -52.9607 H         1 UNK         0.0600 
    234 H234       -8.3010  -18.9959  -52.7159 H         1 UNK         0.0600 
    235 H235       -4.4294  -19.7476  -52.7773 H         1 UNK         0.3000 
    236 H236       -3.8478  -22.4495  -53.1465 H         1 UNK         0.0600 
    237 H237       -1.9686  -20.1342  -52.4338 H         1 UNK         0.0600 
    238 H238       -2.9709  -21.0355  -51.3005 H         1 UNK         0.0600 
    239 H239       -1.6519  -21.8326  -52.1314 H         1 UNK         0.0600 
    240 H240       -2.3982  -19.6178  -54.8626 H         1 UNK         0.3000 
    241 H241       -1.9738  -21.1493  -57.2429 H         1 UNK         0.0600 
    242 H242       -1.9442  -17.1692  -57.2722 H         1 UNK         0.3800 
    243 H243       -2.2031  -17.9987  -55.7589 H         1 UNK         0.3800 
    244 H244       -0.0513  -22.1197  -56.1942 H         1 UNK         0.0800 
    245 H245        0.5259  -20.9976  -57.3736 H         1 UNK         0.0800 
    246 H246        1.5563  -22.3749  -54.2323 H         1 UNK         0.0800 
    247 H247        0.0341  -21.7974  -53.6117 H         1 UNK         0.0800 
@<TRIPOS>BOND
     1    1    2 1    
     2    1  127 1    
     3    1  128 1    
     4    1  129 1    
     5    2    3 2    
     6    2    4 am   BACKBONE|DICT|INTERRES
     7    4    5 1    
     8    4  130 1    
     9    5    6 1    
    10    5   65 1    
    11    5  131 1    
    12    6    7 1    
    13    6  132 1    
    14    6  133 1    
    15    7    8 1    
    16    8    9 1    
    17    8  134 1    
    18    8  135 1    
    19    9   10 ar   
    20    9   14 ar   
    21   10   11 ar   
    22   10  136 1    
    23   11   12 ar   
    24   11  126 1    
    25   12   13 ar   
    26   12  137 1    
    27   13   14 ar   
    28   13   15 1    
    29   14  138 1    
    30   15   16 1    
    31   15  139 1    
    32   15  140 1    
    33   16   17 1    
    34   17   18 1    
    35   17  141 1    
    36   17  142 1    
    37   18   19 1    
    38   18   67 1    
    39   18  143 1    
    40   19   20 am   BACKBONE|DICT|INTERRES
    41   19  144 1    
    42   20   21 2    
    43   20   22 1    
    44   22   23 1    
    45   22   24 1    
    46   22  145 1    
    47   23  146 1    
    48   23  147 1    
    49   23  148 1    
    50   24   25 am   BACKBONE|DICT|INTERRES
    51   24  149 1    
    52   25   26 2    
    53   25   27 1    
    54   27   28 1    
    55   27   29 1    
    56   27  150 1    
    57   28  151 1    
    58   28  152 1    
    59   28  153 1    
    60   29   30 am   BACKBONE|DICT|INTERRES
    61   29  154 1    
    62   30   31 2    
    63   30   32 1    
    64   32   33 1    
    65   32   34 1    
    66   32  155 1    
    67   33  156 1    
    68   33  157 1    
    69   33  158 1    
    70   34   35 am   BACKBONE|DICT|INTERRES
    71   34  159 1    
    72   35   36 2    
    73   35   37 1    
    74   37   38 1    
    75   37   39 1    
    76   37  160 1    
    77   38  161 1    
    78   38  162 1    
    79   38  163 1    
    80   39   40 am   BACKBONE|DICT|INTERRES
    81   39  164 1    
    82   40   41 2    
    83   40   42 1    
    84   42   43 1    
    85   42   44 1    
    86   42  165 1    
    87   43  166 1    
    88   43  167 1    
    89   43  168 1    
    90   44   45 am   BACKBONE|DICT|INTERRES
    91   44  169 1    
    92   45   46 2    
    93   45   47 1    
    94   47   48 1    
    95   47   49 1    
    96   47  170 1    
    97   48  171 1    
    98   48  172 1    
    99   48  173 1    
   100   49   50 am   BACKBONE|DICT|INTERRES
   101   49  174 1    
   102   50   51 2    
   103   50   52 1    
   104   52   53 1    
   105   52   54 1    
   106   52  175 1    
   107   53  176 1    
   108   53  177 1    
   109   53  178 1    
   110   54   55 am   BACKBONE|DICT|INTERRES
   111   54  179 1    
   112   55   56 2    
   113   55   57 1    
   114   57   58 1    
   115   57   59 1    
   116   57  180 1    
   117   58  181 1    
   118   58  182 1    
   119   58  183 1    
   120   59   60 am   BACKBONE|DICT|INTERRES
   121   59  184 1    
   122   60   61 2    
   123   60   62 1    
   124   62   63 1    
   125   62   64 1    
   126   62  185 1    
   127   63  186 1    
   128   63  187 1    
   129   63  188 1    
   130   64   65 am   BACKBONE|DICT|INTERRES
   131   64  189 1    
   132   65   66 2    
   133   67   68 2    
   134   67   69 am   BACKBONE|DICT|INTERRES
   135   69   70 1    
   136   69  190 1    
   137   70   71 1    
   138   70   72 1    
   139   70  191 1    
   140   71  192 1    
   141   71  193 1    
   142   71  194 1    
   143   72   73 2    
   144   72   74 am   BACKBONE|DICT|INTERRES
   145   74   75 1    
   146   74  195 1    
   147   75   76 1    
   148   75   77 1    
   149   75  196 1    
   150   76  197 1    
   151   76  198 1    
   152   76  199 1    
   153   77   78 2    
   154   77   79 am   BACKBONE|DICT|INTERRES
   155   79   80 1    
   156   79  200 1    
   157   80   81 1    
   158   80   82 1    
   159   80  201 1    
   160   81  202 1    
   161   81  203 1    
   162   81  204 1    
   163   82   83 2    
   164   82   84 am   BACKBONE|DICT|INTERRES
   165   84   85 1    
   166   84  205 1    
   167   85   86 1    
   168   85   87 1    
   169   85  206 1    
   170   86  207 1    
   171   86  208 1    
   172   86  209 1    
   173   87   88 2    
   174   87   89 am   BACKBONE|DICT|INTERRES
   175   89   90 1    
   176   89  210 1    
   177   90   91 1    
   178   90   92 1    
   179   90  211 1    
   180   91  212 1    
   181   91  213 1    
   182   91  214 1    
   183   92   93 2    
   184   92   94 am   BACKBONE|DICT|INTERRES
   185   94   95 1    
   186   94  215 1    
   187   95   96 1    
   188   95   97 1    
   189   95  216 1    
   190   96  217 1    
   191   96  218 1    
   192   96  219 1    
   193   97   98 2    
   194   97   99 am   BACKBONE|DICT|INTERRES
   195   99  100 1    
   196   99  220 1    
   197  100  101 1    
   198  100  102 1    
   199  100  221 1    
   200  101  222 1    
   201  101  223 1    
   202  101  224 1    
   203  102  103 2    
   204  102  104 am   BACKBONE|DICT|INTERRES
   205  104  105 1    
   206  104  225 1    
   207  105  106 1    
   208  105  107 1    
   209  105  226 1    
   210  106  227 1    
   211  106  228 1    
   212  106  229 1    
   213  107  108 2    
   214  107  109 am   BACKBONE|DICT|INTERRES
   215  109  110 1    
   216  109  230 1    
   217  110  111 1    
   218  110  112 1    
   219  110  231 1    
   220  111  232 1    
   221  111  233 1    
   222  111  234 1    
   223  112  113 2    
   224  112  114 am   BACKBONE|DICT|INTERRES
   225  114  115 1    
   226  114  235 1    
   227  115  116 1    
   228  115  117 1    
   229  115  236 1    
   230  116  237 1    
   231  116  238 1    
   232  116  239 1    
   233  117  118 2    
   234  117  119 am   BACKBONE|DICT|INTERRES
   235  119  120 1    
   236  119  240 1    
   237  120  121 1    
   238  120  124 1    
   239  120  241 1    
   240  121  122 am   BACKBONE|DICT|INTERRES
   241  121  123 2    
   242  122  242 1    
   243  122  243 1    
   244  124  125 1    
   245  124  244 1    
   246  124  245 1    
   247  125  126 1    
   248  126  246 1    
   249  126  247 1    
@<TRIPOS>SUBSTRUCTURE
     1 UNK         1 GROUP             0       ****    0 ROOT    
