@<TRIPOS>MOLECULE
3R540
247   249    1
SMALL
USER_CHARGES


@<TRIPOS>ATOM
      1 CA          2.0064  -10.1585  -48.4372 C.3       0 UNK        -0.1800 
      2 C           1.2611  -11.4838  -48.3781 C.2       0 UNK         0.5000 
      3 O           1.8930  -12.5377  -48.3256 O.2       0 UNK        -0.5000 
      4 N          -0.0771  -11.4331  -48.3650 N.am      1 UNK        -0.5000 
      5 CA         -0.9891  -12.5878  -48.3567 C.3       1 UNK         0.1400 
      6 C6         -2.4582  -12.1360  -48.5522 C.3       23 UNK        -0.0398 
      7 S7         -2.7817  -11.6469  -50.2820 S.3       23 UNK        -0.2404 
      8 C8         -3.8867  -12.9796  -50.8608 C.3       23 UNK        -0.0205 
      9 C9         -3.2157  -14.3467  -50.8381 C.ar      23 UNK        -0.0193 
     10 C10        -2.3889  -14.7502  -51.8911 C.ar      23 UNK        -0.1150 
     11 C11        -1.7636  -16.0015  -51.8628 C.ar      23 UNK        -0.0193 
     12 C12        -1.9651  -16.8487  -50.7690 C.ar      23 UNK        -0.1150 
     13 C13        -2.7872  -16.4534  -49.7104 C.ar      23 UNK        -0.0193 
     14 C14        -3.4220  -15.2111  -49.7594 C.ar      23 UNK        -0.1150 
     15 C15        -2.9604  -17.3427  -48.4918 C.3       23 UNK        -0.0205 
     16 S16        -4.4865  -18.3206  -48.5819 S.3       23 UNK        -0.2404 
     17 C17        -4.3941  -19.2421  -47.0128 C.3       23 UNK        -0.0398 
     18 CA         -3.8470  -20.6795  -47.1894 C.3       11 UNK         0.1400 
     19 N          -2.4636  -20.6934  -47.6808 N.am      11 UNK        -0.5000 
     20 C          -1.7402  -21.7817  -47.9759 C.2       10 UNK         0.5000 
     21 O          -2.1782  -22.9291  -47.8947 O.2       10 UNK        -0.5000 
     22 CA         -0.2677  -21.5640  -48.3732 C.3       10 UNK         0.1400 
     23 CB         -0.1228  -21.5997  -49.9023 C.3       10 UNK        -0.1800 
     24 N           0.3483  -20.3293  -47.8705 N.am      10 UNK        -0.5000 
     25 C           0.4105  -19.9235  -46.5932 C.2       9 UNK         0.5000 
     26 O          -0.1630  -20.4923  -45.6607 O.2       9 UNK        -0.5000 
     27 CA          1.2087  -18.6257  -46.3540 C.3       9 UNK         0.1400 
     28 CB          0.3836  -17.4110  -46.7985 C.3       9 UNK        -0.1800 
     29 N           1.6339  -18.4300  -44.9663 N.am      9 UNK        -0.5000 
     30 C           2.4690  -19.2346  -44.2940 C.2       8 UNK         0.5000 
     31 O           2.9892  -20.2380  -44.7852 O.2       8 UNK        -0.5000 
     32 CA          2.8270  -18.8475  -42.8442 C.3       8 UNK         0.1400 
     33 CB          4.2981  -18.4099  -42.7502 C.3       8 UNK        -0.1800 
     34 N           1.9992  -17.7828  -42.2779 N.am      8 UNK        -0.5000 
     35 C           0.7471  -17.9216  -41.8261 C.2       7 UNK         0.5000 
     36 O           0.1075  -18.9726  -41.8817 O.2       7 UNK        -0.5000 
     37 CA          0.1559  -16.6657  -41.1546 C.3       7 UNK         0.1400 
     38 CB         -1.3070  -16.8376  -40.6943 C.3       7 UNK        -0.1800 
     39 N           1.0213  -16.2037  -40.0618 N.am      7 UNK        -0.5000 
     40 C           1.3106  -16.8532  -38.9205 C.2       6 UNK         0.5000 
     41 O           0.7832  -17.9146  -38.5860 O.2       6 UNK        -0.5000 
     42 CA          2.3902  -16.2481  -37.9943 C.3       6 UNK         0.1400 
     43 CB          3.6029  -17.1896  -37.9008 C.3       6 UNK        -0.1800 
     44 N           2.8692  -14.9331  -38.4184 N.am      6 UNK        -0.5000 
     45 C           2.2128  -13.7750  -38.2716 C.2       5 UNK         0.5000 
     46 O           1.1421  -13.6678  -37.6732 O.2       5 UNK        -0.5000 
     47 CA          2.8479  -12.5310  -38.9321 C.3       5 UNK         0.1400 
     48 CB          3.5621  -11.6705  -37.8785 C.3       5 UNK        -0.1800 
     49 N           3.7907  -12.8307  -40.0203 N.am      5 UNK        -0.5000 
     50 C           3.4817  -13.4840  -41.1480 C.2       4 UNK         0.5000 
     51 O           2.3618  -13.9480  -41.3786 O.2       4 UNK        -0.5000 
     52 CA          4.6199  -13.7072  -42.1533 C.3       4 UNK         0.1400 
     53 CB          5.5741  -14.8124  -41.6671 C.3       4 UNK        -0.1800 
     54 N           4.0249  -14.0951  -43.4244 N.am      4 UNK        -0.5000 
     55 C           4.5421  -13.9298  -44.6431 C.2       3 UNK         0.5000 
     56 O           5.6667  -13.4709  -44.8469 O.2       3 UNK        -0.5000 
     57 CA          3.6500  -14.3102  -45.8447 C.3       3 UNK         0.1400 
     58 CB          3.8326  -15.7921  -46.2194 C.3       3 UNK        -0.1800 
     59 N           2.2299  -13.9507  -45.6921 N.am      3 UNK        -0.5000 
     60 C           1.3175  -14.4267  -44.8300 C.2       2 UNK         0.5000 
     61 O           1.5316  -15.3670  -44.0651 O.2       2 UNK        -0.5000 
     62 CA         -0.0514  -13.7202  -44.7813 C.3       2 UNK         0.1400 
     63 CB         -0.1160  -12.7780  -43.5698 C.3       2 UNK        -0.1800 
     64 N          -0.3401  -12.9525  -45.9951 N.am      2 UNK        -0.5000 
     65 C          -0.8542  -13.4905  -47.1094 C.2       1 UNK         0.5000 
     66 O          -1.2124  -14.6643  -47.1831 O.2       1 UNK        -0.5000 
     67 C          -4.0528  -21.4839  -45.8879 C.2       11 UNK         0.5000 
     68 O          -5.1722  -21.9283  -45.6324 O.2       11 UNK        -0.5000 
     69 N          -2.9792  -21.6802  -45.1098 N.am      12 UNK        -0.5000 
     70 CA         -2.9655  -22.4720  -43.8830 C.3       12 UNK         0.1400 
     71 CB         -1.6402  -22.2127  -43.1493 C.3       12 UNK        -0.1800 
     72 C          -3.1740  -23.9874  -44.0930 C.2       12 UNK         0.5000 
     73 O          -3.4932  -24.6682  -43.1166 O.2       12 UNK        -0.5000 
     74 N          -2.9826  -24.5040  -45.3189 N.am      13 UNK        -0.5000 
     75 CA         -3.0642  -25.9418  -45.5971 C.3       13 UNK         0.1400 
     76 CB         -1.6948  -26.5962  -45.3417 C.3       13 UNK        -0.1800 
     77 C          -3.5678  -26.2893  -47.0068 C.2       13 UNK         0.5000 
     78 O          -4.3104  -27.2612  -47.1512 O.2       13 UNK        -0.5000 
     79 N          -3.1652  -25.5274  -48.0313 N.am      14 UNK        -0.5000 
     80 CA         -3.3587  -25.8620  -49.4458 C.3       14 UNK         0.1400 
     81 CB         -2.1839  -25.2842  -50.2541 C.3       14 UNK        -0.1800 
     82 C          -4.7281  -25.4150  -49.9961 C.2       14 UNK         0.5000 
     83 O          -4.7921  -24.8586  -51.0948 O.2       14 UNK        -0.5000 
     84 N          -5.7960  -25.6676  -49.2253 N.am      15 UNK        -0.5000 
     85 CA         -7.2068  -25.4182  -49.5470 C.3       15 UNK         0.1400 
     86 CB         -7.6747  -26.3919  -50.6498 C.3       15 UNK        -0.1800 
     87 C          -7.4792  -23.9431  -49.9049 C.2       15 UNK         0.5000 
     88 O          -7.9379  -23.6490  -51.0085 O.2       15 UNK        -0.5000 
     89 N          -7.1214  -23.0324  -48.9858 N.am      16 UNK        -0.5000 
     90 CA         -7.1646  -21.5702  -49.1571 C.3       16 UNK         0.1400 
     91 CB         -8.6188  -21.0669  -49.2727 C.3       16 UNK        -0.1800 
     92 C          -6.2619  -21.0860  -50.3169 C.2       16 UNK         0.5000 
     93 O          -6.6106  -20.1448  -51.0299 O.2       16 UNK        -0.5000 
     94 N          -5.1284  -21.7842  -50.4858 N.am      17 UNK        -0.5000 
     95 CA         -4.1109  -21.6442  -51.5303 C.3       17 UNK         0.1400 
     96 CB         -3.4438  -20.2543  -51.5012 C.3       17 UNK        -0.1800 
     97 C          -4.5854  -22.0407  -52.9426 C.2       17 UNK         0.5000 
     98 O          -3.8294  -21.8466  -53.8938 O.2       17 UNK        -0.5000 
     99 N          -5.7814  -22.6333  -53.0770 N.am      18 UNK        -0.5000 
    100 CA        -6.3268  -23.0945  -54.3547 C.3       18 UNK         0.1400 
    101 CB        -7.8232  -23.4022  -54.2037 C.3       18 UNK        -0.1800 
    102 C         -5.5821  -24.3181  -54.9170 C.2       18 UNK         0.5000 
    103 O         -5.4759  -24.4445  -56.1373 O.2       18 UNK        -0.5000 
    104 N         -5.0627  -25.1830  -54.0323 N.am      19 UNK        -0.5000 
    105 CA        -4.2614  -26.3471  -54.4170 C.3       19 UNK         0.1400 
    106 CB        -4.2940  -27.3924  -53.2917 C.3       19 UNK        -0.1800 
    107 C         -2.8123  -25.9593  -54.7656 C.2       19 UNK         0.5000 
    108 O         -2.1958  -26.6119  -55.6085 O.2       19 UNK        -0.5000 
    109 N         -2.3005  -24.9011  -54.1212 N.am      20 UNK        -0.5000 
    110 CA        -0.9744  -24.3369  -54.3782 C.3       20 UNK         0.1400 
    111 CB        -0.5144  -23.5482  -53.1414 C.3       20 UNK        -0.1800 
    112 C         -0.9486  -23.4284  -55.6203 C.2       20 UNK         0.5000 
    113 O          0.0984  -23.3029  -56.2570 O.2       20 UNK        -0.5000 
    114 N         -2.0818  -22.7673  -55.9030 N.am      21 UNK        -0.5000 
    115 CA        -2.2980  -21.7515  -56.9409 C.3       21 UNK         0.1400 
    116 CB        -2.2222  -22.3873  -58.3440 C.3       21 UNK        -0.1800 
    117 C         -1.3723  -20.5235  -56.7846 C.2       21 UNK         0.5000 
    118 O         -1.0386  -19.8730  -57.7765 O.2       21 UNK        -0.5000 
    119 N         -0.9488  -20.2578  -55.5396 N.am      22 UNK        -0.5000 
    120 CA         0.0926  -19.2895  -55.1527 C.3       22 UNK         0.1400 
    121 C          1.5136  -19.6038  -55.7229 C.2       22 UNK         0.5000 
    122 N          1.7991  -20.8197  -56.1770 N.am      22 UNK        -0.7600 
    123 O          2.3915  -18.7449  -55.7226 O.2       22 UNK        -0.5000 
    124 C124       -0.3416  -17.8115  -55.3685 C.3       23 UNK        -0.0398 
    125 S125       -1.7372  -17.3438  -54.2874 S.3       23 UNK        -0.2404 
    126 C126       -0.8428  -16.4267  -52.9949 C.3       23 UNK        -0.0205 
    127 H127        1.3232   -9.3092  -48.4645 H         1 UNK         0.0600 
    128 H128        2.6319  -10.1205  -49.3290 H         1 UNK         0.0600 
    129 H129        2.6494  -10.0504  -47.5637 H         1 UNK         0.0600 
    130 H130       -0.5290  -10.5311  -48.4176 H         1 UNK         0.3000 
    131 H131       -0.7115  -13.2213  -49.2025 H         1 UNK         0.0600 
    132 H132       -2.6890  -11.2917  -47.9007 H         1 UNK         0.0800 
    133 H133       -3.1637  -12.9156  -48.2662 H         1 UNK         0.0800 
    134 H134       -4.2099  -12.7512  -51.8775 H         1 UNK         0.0800 
    135 H135       -4.7921  -12.9884  -50.2518 H         1 UNK         0.0800 
    136 H136       -2.2265  -14.0867  -52.7290 H         1 UNK         0.1150 
    137 H137       -1.4738  -17.8110  -50.7383 H         1 UNK         0.1150 
    138 H138       -4.0630  -14.9138  -48.9418 H         1 UNK         0.1150 
    139 H139       -2.1078  -18.0132  -48.4019 H         1 UNK         0.0800 
    140 H140       -2.9708  -16.7298  -47.5891 H         1 UNK         0.0800 
    141 H141       -5.4077  -19.2669  -46.6075 H         1 UNK         0.0800 
    142 H142       -3.7963  -18.6854  -46.2887 H         1 UNK         0.0800 
    143 H143       -4.4432  -21.1839  -47.9464 H         1 UNK         0.0600 
    144 H144       -2.0082  -19.7979  -47.7518 H         1 UNK         0.3000 
    145 H145        0.2981  -22.3993  -47.9561 H         1 UNK         0.0600 
    146 H146        0.9254  -21.5782  -50.2008 H         1 UNK         0.0600 
    147 H147       -0.5535  -22.5108  -50.3164 H         1 UNK         0.0600 
    148 H148       -0.6233  -20.7543  -50.3755 H         1 UNK         0.0600 
    149 H149        0.8373  -19.7812  -48.5633 H         1 UNK         0.3000 
    150 H150        2.1122  -18.6708  -46.9655 H         1 UNK         0.0600 
    151 H151        0.0900  -17.4902  -47.8450 H         1 UNK         0.0600 
    152 H152        0.9579  -16.4917  -46.7135 H         1 UNK         0.0600 
    153 H153       -0.5235  -17.2967  -46.2036 H         1 UNK         0.0600 
    154 H154        1.2850  -17.6070  -44.4928 H         1 UNK         0.3000 
    155 H155        2.6986  -19.7430  -42.2326 H         1 UNK         0.0600 
    156 H156        4.4841  -17.4989  -43.3205 H         1 UNK         0.0600 
    157 H157        4.9646  -19.1814  -43.1378 H         1 UNK         0.0600 
    158 H158        4.5881  -18.2252  -41.7157 H         1 UNK         0.0600 
    159 H159        2.4138  -16.8625  -42.2418 H         1 UNK         0.3000 
    160 H160        0.1623  -15.8740  -41.9038 H         1 UNK         0.0600 
    161 H161       -1.4222  -17.6516  -39.9786 H         1 UNK         0.0600 
    162 H162       -1.9538  -17.0603  -41.5436 H         1 UNK         0.0600 
    163 H163       -1.6823  -15.9259  -40.2296 H         1 UNK         0.0600 
    164 H164        1.5231  -15.3437  -40.2611 H         1 UNK         0.3000 
    165 H165        1.9505  -16.1545  -36.9992 H         1 UNK         0.0600 
    166 H166        4.0784  -17.3299  -38.8726 H         1 UNK         0.0600 
    167 H167        4.3530  -16.8009  -37.2118 H         1 UNK         0.0600 
    168 H168        3.3094  -18.1743  -37.5345 H         1 UNK         0.0600 
    169 H169        3.7450  -14.9155  -38.9188 H         1 UNK         0.3000 
    170 H170        2.0317  -11.9433  -39.3573 H         1 UNK         0.0600 
    171 H171        4.4093  -12.1970  -37.4371 H         1 UNK         0.0600 
    172 H172        3.9316  -10.7408  -38.3117 H         1 UNK         0.0600 
    173 H173        2.8841  -11.4013  -37.0673 H         1 UNK         0.0600 
    174 H174        4.7353  -12.4956  -39.8944 H         1 UNK         0.3000 
    175 H175        5.1646  -12.7690  -42.2772 H         1 UNK         0.0600 
    176 H176        5.0442  -15.7476  -41.4850 H         1 UNK         0.0600 
    177 H177        6.3578  -15.0098  -42.3987 H         1 UNK         0.0600 
    178 H178        6.0663  -14.5270  -40.7369 H         1 UNK         0.0600 
    179 H179        3.0765  -14.4567  -43.3503 H         1 UNK         0.3000 
    180 H180        4.0056  -13.7186  -46.6898 H         1 UNK         0.0600 
    181 H181        3.2679  -16.0456  -47.1159 H         1 UNK         0.0600 
    182 H182        3.5166  -16.4562  -45.4169 H         1 UNK         0.0600 
    183 H183        4.8806  -16.0130  -46.4250 H         1 UNK         0.0600 
    184 H184        1.9259  -13.2250  -46.3300 H         1 UNK         0.3000 
    185 H185       -0.8139  -14.4908  -44.6478 H         1 UNK         0.0600 
    186 H186        0.0292  -13.3289  -42.6397 H         1 UNK         0.0600 
    187 H187        0.6528  -12.0058  -43.6162 H         1 UNK         0.0600 
    188 H188       -1.0860  -12.2851  -43.5036 H         1 UNK         0.0600 
    189 H189       -0.0815  -11.9766  -45.9993 H         1 UNK         0.3000 
    190 H190       -2.0895  -21.2796  -45.3904 H         1 UNK         0.3000 
    191 H191       -3.7802  -22.1184  -43.2477 H         1 UNK         0.0600 
    192 H192       -1.6061  -22.7439  -42.1973 H         1 UNK         0.0600 
    193 H193       -1.5083  -21.1521  -42.9332 H         1 UNK         0.0600 
    194 H194       -0.7842  -22.5409  -43.7404 H         1 UNK         0.0600 
    195 H195       -2.7421  -23.8887  -46.0869 H         1 UNK         0.3000 
    196 H196       -3.7845  -26.3966  -44.9134 H         1 UNK         0.0600 
    197 H197       -0.9181  -26.1550  -45.9675 H         1 UNK         0.0600 
    198 H198       -1.3902  -26.4837  -44.3011 H         1 UNK         0.0600 
    199 H199       -1.7233  -27.6654  -45.5558 H         1 UNK         0.0600 
    200 H200       -2.6313  -24.6792  -47.8596 H         1 UNK         0.3000 
    201 H201       -3.3199  -26.9475  -49.5585 H         1 UNK         0.0600 
    202 H202       -2.2024  -24.1959  -50.2630 H         1 UNK         0.0600 
    203 H203       -2.2146  -25.6223  -51.2894 H         1 UNK         0.0600 
    204 H204       -1.2254  -25.5996  -49.8419 H         1 UNK         0.0600 
    205 H205       -5.6178  -26.1464  -48.3496 H         1 UNK         0.3000 
    206 H206       -7.7821  -25.6343  -48.6457 H         1 UNK         0.0600 
    207 H207       -7.5082  -27.4283  -50.3566 H         1 UNK         0.0600 
    208 H208       -8.7415  -26.2771  -50.8451 H         1 UNK         0.0600 
    209 H209       -7.1507  -26.2230  -51.5914 H         1 UNK         0.0600 
    210 H210       -6.7447  -23.3633  -48.1081 H         1 UNK         0.3000 
    211 H211       -6.7520  -21.1400  -48.2444 H         1 UNK         0.0600 
    212 H212       -8.6560  -19.9772  -49.2498 H         1 UNK         0.0600 
    213 H213       -9.2283  -21.4287  -48.4448 H         1 UNK         0.0600 
    214 H214       -9.0896  -21.3883  -50.2022 H         1 UNK         0.0600 
    215 H215       -4.9964  -22.5844  -49.8847 H         1 UNK         0.3000 
    216 H216       -3.3375  -22.3692  -51.2775 H         1 UNK         0.0600 
    217 H217       -4.1430  -19.4583  -51.7575 H         1 UNK         0.0600 
    218 H218       -2.6156  -20.1962  -52.2084 H         1 UNK         0.0600 
    219 H219       -3.0359  -20.0375  -50.5154 H         1 UNK         0.0600 
    220 H220       -6.3418  -22.8137  -52.2523 H         1 UNK         0.3000 
    221 H221       -6.2222  -22.2809  -55.0757 H         1 UNK         0.0600 
    222 H222       -8.3623  -22.5553  -53.7784 H         1 UNK         0.0600 
    223 H223       -7.9931  -24.2670  -53.5615 H         1 UNK         0.0600 
    224 H224       -8.2734  -23.6235  -55.1720 H         1 UNK         0.0600 
    225 H225       -5.1693  -25.0041  -53.0374 H         1 UNK         0.3000 
    226 H226       -4.7074  -26.8018  -55.3042 H         1 UNK         0.0600 
    227 H227       -3.7966  -27.0359  -52.3913 H         1 UNK         0.0600 
    228 H228       -5.3177  -27.6580  -53.0273 H         1 UNK         0.0600 
    229 H229       -3.7889  -28.3085  -53.6000 H         1 UNK         0.0600 
    230 H230       -2.8844  -24.4223  -53.4525 H         1 UNK         0.3000 
    231 H231       -0.2654  -25.1504  -54.5465 H         1 UNK         0.0600 
    232 H232       -1.2190  -22.7588  -52.8775 H         1 UNK         0.0600 
    233 H233        0.4547  -23.0778  -53.3140 H         1 UNK         0.0600 
    234 H234       -0.4010  -24.2031  -52.2784 H         1 UNK         0.0600 
    235 H235       -2.8506  -22.8554  -55.2465 H         1 UNK         0.3000 
    236 H236       -3.3150  -21.3838  -56.7975 H         1 UNK         0.0600 
    237 H237       -2.8879  -23.2471  -58.4216 H         1 UNK         0.0600 
    238 H238       -2.5222  -21.6756  -59.1138 H         1 UNK         0.0600 
    239 H239       -1.2123  -22.7217  -58.5830 H         1 UNK         0.0600 
    240 H240       -1.3120  -20.8330  -54.7940 H         1 UNK         0.3000 
    241 H241        0.2191  -19.4267  -54.0782 H         1 UNK         0.0600 
    242 H242        2.7248  -21.0049  -56.5293 H         1 UNK         0.3800 
    243 H243        1.1065  -21.5607  -56.1902 H         1 UNK         0.3800 
    244 H244        0.4844  -17.1255  -55.1755 H         1 UNK         0.0800 
    245 H245       -0.6276  -17.6391  -56.4063 H         1 UNK         0.0800 
    246 H246       -0.0373  -17.0485  -52.6008 H         1 UNK         0.0800 
    247 H247       -0.3667  -15.5497  -53.4364 H         1 UNK         0.0800 
@<TRIPOS>BOND
     1    1    2 1    
     2    1  127 1    
     3    1  128 1    
     4    1  129 1    
     5    2    3 2    
     6    2    4 am   BACKBONE|DICT|INTERRES
     7    4    5 1    
     8    4  130 1    
     9    5    6 1    
    10    5   65 1    
    11    5  131 1    
    12    6    7 1    
    13    6  132 1    
    14    6  133 1    
    15    7    8 1    
    16    8    9 1    
    17    8  134 1    
    18    8  135 1    
    19    9   10 ar   
    20    9   14 ar   
    21   10   11 ar   
    22   10  136 1    
    23   11   12 ar   
    24   11  126 1    
    25   12   13 ar   
    26   12  137 1    
    27   13   14 ar   
    28   13   15 1    
    29   14  138 1    
    30   15   16 1    
    31   15  139 1    
    32   15  140 1    
    33   16   17 1    
    34   17   18 1    
    35   17  141 1    
    36   17  142 1    
    37   18   19 1    
    38   18   67 1    
    39   18  143 1    
    40   19   20 am   BACKBONE|DICT|INTERRES
    41   19  144 1    
    42   20   21 2    
    43   20   22 1    
    44   22   23 1    
    45   22   24 1    
    46   22  145 1    
    47   23  146 1    
    48   23  147 1    
    49   23  148 1    
    50   24   25 am   BACKBONE|DICT|INTERRES
    51   24  149 1    
    52   25   26 2    
    53   25   27 1    
    54   27   28 1    
    55   27   29 1    
    56   27  150 1    
    57   28  151 1    
    58   28  152 1    
    59   28  153 1    
    60   29   30 am   BACKBONE|DICT|INTERRES
    61   29  154 1    
    62   30   31 2    
    63   30   32 1    
    64   32   33 1    
    65   32   34 1    
    66   32  155 1    
    67   33  156 1    
    68   33  157 1    
    69   33  158 1    
    70   34   35 am   BACKBONE|DICT|INTERRES
    71   34  159 1    
    72   35   36 2    
    73   35   37 1    
    74   37   38 1    
    75   37   39 1    
    76   37  160 1    
    77   38  161 1    
    78   38  162 1    
    79   38  163 1    
    80   39   40 am   BACKBONE|DICT|INTERRES
    81   39  164 1    
    82   40   41 2    
    83   40   42 1    
    84   42   43 1    
    85   42   44 1    
    86   42  165 1    
    87   43  166 1    
    88   43  167 1    
    89   43  168 1    
    90   44   45 am   BACKBONE|DICT|INTERRES
    91   44  169 1    
    92   45   46 2    
    93   45   47 1    
    94   47   48 1    
    95   47   49 1    
    96   47  170 1    
    97   48  171 1    
    98   48  172 1    
    99   48  173 1    
   100   49   50 am   BACKBONE|DICT|INTERRES
   101   49  174 1    
   102   50   51 2    
   103   50   52 1    
   104   52   53 1    
   105   52   54 1    
   106   52  175 1    
   107   53  176 1    
   108   53  177 1    
   109   53  178 1    
   110   54   55 am   BACKBONE|DICT|INTERRES
   111   54  179 1    
   112   55   56 2    
   113   55   57 1    
   114   57   58 1    
   115   57   59 1    
   116   57  180 1    
   117   58  181 1    
   118   58  182 1    
   119   58  183 1    
   120   59   60 am   BACKBONE|DICT|INTERRES
   121   59  184 1    
   122   60   61 2    
   123   60   62 1    
   124   62   63 1    
   125   62   64 1    
   126   62  185 1    
   127   63  186 1    
   128   63  187 1    
   129   63  188 1    
   130   64   65 am   BACKBONE|DICT|INTERRES
   131   64  189 1    
   132   65   66 2    
   133   67   68 2    
   134   67   69 am   BACKBONE|DICT|INTERRES
   135   69   70 1    
   136   69  190 1    
   137   70   71 1    
   138   70   72 1    
   139   70  191 1    
   140   71  192 1    
   141   71  193 1    
   142   71  194 1    
   143   72   73 2    
   144   72   74 am   BACKBONE|DICT|INTERRES
   145   74   75 1    
   146   74  195 1    
   147   75   76 1    
   148   75   77 1    
   149   75  196 1    
   150   76  197 1    
   151   76  198 1    
   152   76  199 1    
   153   77   78 2    
   154   77   79 am   BACKBONE|DICT|INTERRES
   155   79   80 1    
   156   79  200 1    
   157   80   81 1    
   158   80   82 1    
   159   80  201 1    
   160   81  202 1    
   161   81  203 1    
   162   81  204 1    
   163   82   83 2    
   164   82   84 am   BACKBONE|DICT|INTERRES
   165   84   85 1    
   166   84  205 1    
   167   85   86 1    
   168   85   87 1    
   169   85  206 1    
   170   86  207 1    
   171   86  208 1    
   172   86  209 1    
   173   87   88 2    
   174   87   89 am   BACKBONE|DICT|INTERRES
   175   89   90 1    
   176   89  210 1    
   177   90   91 1    
   178   90   92 1    
   179   90  211 1    
   180   91  212 1    
   181   91  213 1    
   182   91  214 1    
   183   92   93 2    
   184   92   94 am   BACKBONE|DICT|INTERRES
   185   94   95 1    
   186   94  215 1    
   187   95   96 1    
   188   95   97 1    
   189   95  216 1    
   190   96  217 1    
   191   96  218 1    
   192   96  219 1    
   193   97   98 2    
   194   97   99 am   BACKBONE|DICT|INTERRES
   195   99  100 1    
   196   99  220 1    
   197  100  101 1    
   198  100  102 1    
   199  100  221 1    
   200  101  222 1    
   201  101  223 1    
   202  101  224 1    
   203  102  103 2    
   204  102  104 am   BACKBONE|DICT|INTERRES
   205  104  105 1    
   206  104  225 1    
   207  105  106 1    
   208  105  107 1    
   209  105  226 1    
   210  106  227 1    
   211  106  228 1    
   212  106  229 1    
   213  107  108 2    
   214  107  109 am   BACKBONE|DICT|INTERRES
   215  109  110 1    
   216  109  230 1    
   217  110  111 1    
   218  110  112 1    
   219  110  231 1    
   220  111  232 1    
   221  111  233 1    
   222  111  234 1    
   223  112  113 2    
   224  112  114 am   BACKBONE|DICT|INTERRES
   225  114  115 1    
   226  114  235 1    
   227  115  116 1    
   228  115  117 1    
   229  115  236 1    
   230  116  237 1    
   231  116  238 1    
   232  116  239 1    
   233  117  118 2    
   234  117  119 am   BACKBONE|DICT|INTERRES
   235  119  120 1    
   236  119  240 1    
   237  120  121 1    
   238  120  124 1    
   239  120  241 1    
   240  121  122 am   BACKBONE|DICT|INTERRES
   241  121  123 2    
   242  122  242 1    
   243  122  243 1    
   244  124  125 1    
   245  124  244 1    
   246  124  245 1    
   247  125  126 1    
   248  126  246 1    
   249  126  247 1    
@<TRIPOS>SUBSTRUCTURE
     1 UNK         1 GROUP             0       ****    0 ROOT    
