@<TRIPOS>MOLECULE
3R540
247   249    1
SMALL
USER_CHARGES


@<TRIPOS>ATOM
      1 CA          2.3425  -17.4751  -44.4605 C.3       0 UNK        -0.1800 
      2 C           2.9337  -16.5110  -45.4799 C.2       0 UNK         0.5000 
      3 O           3.8265  -16.8910  -46.2351 O.2       0 UNK        -0.5000 
      4 N           2.4582  -15.2584  -45.4805 N.am      1 UNK        -0.5000 
      5 CA          2.8631  -14.1573  -46.3686 C.3       1 UNK         0.1400 
      6 C6          2.6516  -14.4398  -47.8807 C.3       23 UNK        -0.0398 
      7 S7          0.9018  -14.7696  -48.2816 S.3       23 UNK        -0.2404 
      8 C8          0.9647  -14.8364  -50.1052 C.3       23 UNK        -0.0205 
      9 C9          0.9550  -16.2521  -50.6779 C.ar      23 UNK        -0.0193 
     10 C10         0.1998  -16.5238  -51.8236 C.ar      23 UNK        -0.1150 
     11 C11         0.2018  -17.7998  -52.3936 C.ar      23 UNK        -0.0193 
     12 C12         0.9423  -18.8198  -51.7922 C.ar      23 UNK        -0.1150 
     13 C13         1.6940  -18.5732  -50.6413 C.ar      23 UNK        -0.0193 
     14 C14         1.7149  -17.2793  -50.1065 C.ar      23 UNK        -0.1150 
     15 C15         2.4775  -19.7210  -50.0069 C.3       23 UNK        -0.0205 
     16 S16         2.5761  -19.6651  -48.1841 S.3       23 UNK        -0.2404 
     17 C17         0.8201  -19.5488  -47.7050 C.3       23 UNK        -0.0398 
     18 CA          0.2496  -20.8884  -47.1913 C.3       11 UNK         0.1400 
     19 N          -0.8163  -20.6785  -46.2094 N.am      11 UNK        -0.5000 
     20 C          -1.3742  -21.6520  -45.4766 C.2       10 UNK         0.5000 
     21 O          -1.0626  -22.8386  -45.5613 O.2       10 UNK        -0.5000 
     22 CA         -2.4789  -21.2325  -44.4958 C.3       10 UNK         0.1400 
     23 CB         -1.8614  -20.7383  -43.1844 C.3       10 UNK        -0.1800 
     24 N          -3.3386  -20.1891  -45.0476 N.am      10 UNK        -0.5000 
     25 C          -4.2244  -20.3943  -46.0307 C.2       9 UNK         0.5000 
     26 O          -4.4169  -21.4831  -46.5729 O.2       9 UNK        -0.5000 
     27 CA         -4.9762  -19.1510  -46.5312 C.3       9 UNK         0.1400 
     28 CB         -5.9574  -18.6241  -45.4733 C.3       9 UNK        -0.1800 
     29 N          -4.0687  -18.0791  -46.9345 N.am      9 UNK        -0.5000 
     30 C          -3.1256  -18.1780  -47.8828 C.2       8 UNK         0.5000 
     31 O          -2.9551  -19.1794  -48.5748 O.2       8 UNK        -0.5000 
     32 CA         -2.2025  -16.9632  -48.0806 C.3       8 UNK         0.1400 
     33 CB         -2.6949  -16.1129  -49.2611 C.3       8 UNK        -0.1800 
     34 N          -2.0834  -16.1190  -46.8893 N.am      8 UNK        -0.5000 
     35 C          -1.5697  -16.5030  -45.7117 C.2       7 UNK         0.5000 
     36 O          -1.1360  -17.6393  -45.4967 O.2       7 UNK        -0.5000 
     37 CA         -1.5487  -15.4127  -44.6196 C.3       7 UNK         0.1400 
     38 CB         -2.9455  -14.7965  -44.3863 C.3       7 UNK        -0.1800 
     39 N          -0.9598  -15.8422  -43.3475 N.am      7 UNK        -0.5000 
     40 C          -1.4183  -16.7611  -42.4821 C.2       6 UNK         0.5000 
     41 O          -2.4579  -17.4013  -42.6482 O.2       6 UNK        -0.5000 
     42 CA         -0.5830  -17.0070  -41.2030 C.3       6 UNK         0.1400 
     43 CB         -0.1403  -18.4738  -41.0926 C.3       6 UNK        -0.1800 
     44 N           0.6125  -16.1656  -41.1129 N.am      6 UNK        -0.5000 
     45 C           0.6383  -14.9068  -40.6593 C.2       5 UNK         0.5000 
     46 O          -0.3536  -14.3178  -40.2262 O.2       5 UNK        -0.5000 
     47 CA          1.9903  -14.1617  -40.7218 C.3       5 UNK         0.1400 
     48 CB          3.1646  -15.0098  -41.2628 C.3       5 UNK        -0.1800 
     49 N           1.8808  -12.9132  -41.4813 N.am      5 UNK        -0.5000 
     50 C           1.4423  -12.7772  -42.7415 C.2       4 UNK         0.5000 
     51 O           1.1150  -13.7197  -43.4653 O.2       4 UNK        -0.5000 
     52 CA          1.4362  -11.3504  -43.2986 C.3       4 UNK         0.1400 
     53 CB          0.5173  -10.4122  -42.4938 C.3       4 UNK        -0.1800 
     54 N           2.8116  -10.8699  -43.3075 N.am      4 UNK        -0.5000 
     55 C           3.3030   -9.8794  -44.0572 C.2       3 UNK         0.5000 
     56 O           2.6097   -9.1391  -44.7553 O.2       3 UNK        -0.5000 
     57 CA          4.8387   -9.7325  -44.0825 C.3       3 UNK         0.1400 
     58 CB          5.3744   -9.0557  -42.8057 C.3       3 UNK        -0.1800 
     59 N           5.5167  -11.0052  -44.3741 N.am      3 UNK        -0.5000 
     60 C           5.6124  -12.0997  -43.6062 C.2       2 UNK         0.5000 
     61 O           5.2387  -12.1554  -42.4333 O.2       2 UNK        -0.5000 
     62 CA          6.0500  -13.3848  -44.3288 C.3       2 UNK         0.1400 
     63 CB          6.7164  -14.3979  -43.3824 C.3       2 UNK        -0.1800 
     64 N           4.8585  -13.9936  -44.9177 N.am      2 UNK        -0.5000 
     65 C           4.2718  -13.5987  -46.0567 C.2       1 UNK         0.5000 
     66 O           4.7796  -12.7710  -46.8155 O.2       1 UNK        -0.5000 
     67 C          -0.1965  -21.8007  -48.3536 C.2       11 UNK         0.5000 
     68 O           0.5178  -22.7431  -48.6970 O.2       11 UNK        -0.5000 
     69 N          -1.3894  -21.5379  -48.9073 N.am      12 UNK        -0.5000 
     70 CA         -1.9993  -22.3561  -49.9530 C.3       12 UNK         0.1400 
     71 CB         -3.2112  -21.6275  -50.5428 C.3       12 UNK        -0.1800 
     72 C          -2.3985  -23.7490  -49.4399 C.2       12 UNK         0.5000 
     73 O          -2.1772  -24.7297  -50.1475 O.2       12 UNK        -0.5000 
     74 N          -2.9252  -23.8244  -48.2077 N.am      13 UNK        -0.5000 
     75 CA         -3.2705  -25.0830  -47.5426 C.3       13 UNK         0.1400 
     76 CB         -4.0149  -24.7963  -46.2308 C.3       13 UNK        -0.1800 
     77 C          -2.0439  -25.9838  -47.3023 C.2       13 UNK         0.5000 
     78 O          -2.1171  -27.1861  -47.5562 O.2       13 UNK        -0.5000 
     79 N          -0.9208  -25.3833  -46.8822 N.am      14 UNK        -0.5000 
     80 CA          0.3777  -26.0462  -46.7309 C.3       14 UNK         0.1400 
     81 CB          1.3569  -25.0953  -46.0264 C.3       14 UNK        -0.1800 
     82 C           0.9652  -26.5410  -48.0683 C.2       14 UNK         0.5000 
     83 O           1.6374  -27.5723  -48.0916 O.2       14 UNK        -0.5000 
     84 N           0.6673  -25.8240  -49.1601 N.am      15 UNK        -0.5000 
     85 CA          1.0032  -26.1945  -50.5370 C.3       15 UNK         0.1400 
     86 CB          1.0737  -24.9160  -51.3896 C.3       15 UNK        -0.1800 
     87 C           0.0259  -27.2220  -51.1543 C.2       15 UNK         0.5000 
     88 O           0.2205  -27.6093  -52.3073 O.2       15 UNK        -0.5000 
     89 N          -0.9964  -27.6427  -50.3925 N.am      16 UNK        -0.5000 
     90 CA         -2.0610  -28.5873  -50.7490 C.3       16 UNK         0.1400 
     91 CB         -1.4872  -29.9812  -51.0812 C.3       16 UNK        -0.1800 
     92 C          -3.0341  -28.0573  -51.8247 C.2       16 UNK         0.5000 
     93 O          -3.6506  -28.8506  -52.5392 O.2       16 UNK        -0.5000 
     94 N          -3.1819  -26.7306  -51.9002 N.am      17 UNK        -0.5000 
     95 CA         -4.1882  -26.0306  -52.6933 C.3       17 UNK         0.1400 
     96 CB         -3.5137  -24.8291  -53.3788 C.3       17 UNK        -0.1800 
     97 C          -5.3410  -25.5719  -51.7799 C.2       17 UNK         0.5000 
     98 O          -5.2604  -25.7033  -50.5554 O.2       17 UNK        -0.5000 
     99 N          -6.4036  -25.0306  -52.3878 N.am      18 UNK        -0.5000 
    100 CA        -7.5034  -24.3811  -51.6735 C.3       18 UNK         0.1400 
    101 CB        -8.6839  -24.1797  -52.6347 C.3       18 UNK        -0.1800 
    102 C         -7.0428  -23.0452  -51.0583 C.2       18 UNK         0.5000 
    103 O         -6.2775  -22.3161  -51.6942 O.2       18 UNK        -0.5000 
    104 N         -7.5100  -22.7619  -49.8352 N.am      19 UNK        -0.5000 
    105 CA        -7.1072  -21.6307  -48.9965 C.3       19 UNK         0.1400 
    106 CB        -7.9208  -21.6574  -47.6926 C.3       19 UNK        -0.1800 
    107 C         -7.2307  -20.2659  -49.7030 C.2       19 UNK         0.5000 
    108 O         -8.3460  -19.8115  -49.9621 O.2       19 UNK        -0.5000 
    109 N         -6.0720  -19.6641  -50.0104 N.am      20 UNK        -0.5000 
    110 CA        -5.8693  -18.3748  -50.6803 C.3       20 UNK         0.1400 
    111 CB        -6.4369  -17.2193  -49.8302 C.3       20 UNK        -0.1800 
    112 C         -6.3650  -18.3182  -52.1419 C.2       20 UNK         0.5000 
    113 O         -6.4011  -17.2306  -52.7210 O.2       20 UNK        -0.5000 
    114 N         -6.6995  -19.4715  -52.7423 N.am      21 UNK        -0.5000 
    115 CA        -7.2161  -19.5745  -54.1123 C.3       21 UNK         0.1400 
    116 CB        -7.7500  -20.9928  -54.3478 C.3       21 UNK        -0.1800 
    117 C         -6.1817  -19.1981  -55.1898 C.2       21 UNK         0.5000 
    118 O         -6.5652  -18.8341  -56.3022 O.2       21 UNK        -0.5000 
    119 N         -4.8956  -19.2684  -54.8295 N.am      22 UNK        -0.5000 
    120 CA        -3.7627  -18.7777  -55.6217 C.3       22 UNK         0.1400 
    121 C         -3.6263  -17.2249  -55.6805 C.2       22 UNK         0.5000 
    122 N         -4.3842  -16.4503  -54.9108 N.am      22 UNK        -0.7600 
    123 O         -2.8204  -16.7118  -56.4519 O.2       22 UNK        -0.5000 
    124 C124       -2.4451  -19.4686  -55.1893 C.3       23 UNK        -0.0398 
    125 S125       -1.9767  -19.1689  -53.4451 S.3       23 UNK        -0.2404 
    126 C126       -0.5469  -18.0708  -53.6887 C.3       23 UNK        -0.0205 
    127 H127        1.4373  -17.0757  -44.0062 H         1 UNK         0.0600 
    128 H128        3.0651  -17.6766  -43.6701 H         1 UNK         0.0600 
    129 H129        2.0878  -18.4210  -44.9376 H         1 UNK         0.0600 
    130 H130        1.7724  -14.9820  -44.7847 H         1 UNK         0.3000 
    131 H131        2.1930  -13.3358  -46.1099 H         1 UNK         0.0600 
    132 H132        2.9589  -13.5762  -48.4728 H         1 UNK         0.0800 
    133 H133        3.2715  -15.2710  -48.2154 H         1 UNK         0.0800 
    134 H134        0.1047  -14.2801  -50.4808 H         1 UNK         0.0800 
    135 H135        1.8467  -14.3124  -50.4746 H         1 UNK         0.0800 
    136 H136       -0.3732  -15.7335  -52.2882 H         1 UNK         0.1150 
    137 H137        0.9356  -19.8083  -52.2300 H         1 UNK         0.1150 
    138 H138        2.3124  -17.0781  -49.2303 H         1 UNK         0.1150 
    139 H139        2.0382  -20.6786  -50.2916 H         1 UNK         0.0800 
    140 H140        3.4904  -19.7141  -50.4107 H         1 UNK         0.0800 
    141 H141        0.2129  -19.1475  -48.5159 H         1 UNK         0.0800 
    142 H142        0.7790  -18.7961  -46.9180 H         1 UNK         0.0800 
    143 H143        1.0443  -21.4148  -46.6576 H         1 UNK         0.0600 
    144 H144       -1.1122  -19.7220  -46.0503 H         1 UNK         0.3000 
    145 H145       -3.0926  -22.1088  -44.2774 H         1 UNK         0.0600 
    146 H146       -1.2409  -21.5091  -42.7257 H         1 UNK         0.0600 
    147 H147       -1.2319  -19.8651  -43.3561 H         1 UNK         0.0600 
    148 H148       -2.6310  -20.4632  -42.4630 H         1 UNK         0.0600 
    149 H149       -3.2059  -19.2537  -44.6870 H         1 UNK         0.3000 
    150 H150       -5.5537  -19.4457  -47.4045 H         1 UNK         0.0600 
    151 H151       -6.5729  -17.8195  -45.8760 H         1 UNK         0.0600 
    152 H152       -5.4392  -18.2408  -44.5933 H         1 UNK         0.0600 
    153 H153       -6.6332  -19.4123  -45.1390 H         1 UNK         0.0600 
    154 H154       -4.1282  -17.2157  -46.4163 H         1 UNK         0.3000 
    155 H155       -1.2065  -17.3349  -48.3240 H         1 UNK         0.0600 
    156 H156       -2.7328  -16.7041  -50.1773 H         1 UNK         0.0600 
    157 H157       -2.0268  -15.2730  -49.4494 H         1 UNK         0.0600 
    158 H158       -3.6943  -15.7142  -49.0833 H         1 UNK         0.0600 
    159 H159       -2.3953  -15.1646  -46.9932 H         1 UNK         0.3000 
    160 H160       -0.8967  -14.6229  -44.9950 H         1 UNK         0.0600 
    161 H161       -3.3084  -14.2775  -45.2736 H         1 UNK         0.0600 
    162 H162       -2.9201  -14.0634  -43.5798 H         1 UNK         0.0600 
    163 H163       -3.6862  -15.5531  -44.1254 H         1 UNK         0.0600 
    164 H164       -0.1096  -15.3514  -43.0991 H         1 UNK         0.3000 
    165 H165       -1.2316  -16.7898  -40.3517 H         1 UNK         0.0600 
    166 H166        0.4602  -18.6393  -40.1980 H         1 UNK         0.0600 
    167 H167       -1.0038  -19.1347  -41.0203 H         1 UNK         0.0600 
    168 H168        0.4505  -18.7833  -41.9556 H         1 UNK         0.0600 
    169 H169        1.4730  -16.5733  -41.4471 H         1 UNK         0.3000 
    170 H170        2.2299  -13.8829  -39.6947 H         1 UNK         0.0600 
    171 H171        4.0942  -14.4431  -41.2170 H         1 UNK         0.0600 
    172 H172        3.3154  -15.9095  -40.6651 H         1 UNK         0.0600 
    173 H173        3.0165  -15.3127  -42.2992 H         1 UNK         0.0600 
    174 H174        2.1098  -12.0749  -40.9665 H         1 UNK         0.3000 
    175 H175        1.0726  -11.4005  -44.3272 H         1 UNK         0.0600 
    176 H176        0.8856  -10.2497  -41.4805 H         1 UNK         0.0600 
    177 H177        0.4316   -9.4377  -42.9744 H         1 UNK         0.0600 
    178 H178       -0.4898  -10.8243  -42.4177 H         1 UNK         0.0600 
    179 H179        3.4836  -11.4384  -42.7969 H         1 UNK         0.3000 
    180 H180        5.0781   -9.0755  -44.9202 H         1 UNK         0.0600 
    181 H181        6.4587   -8.9504  -42.8410 H         1 UNK         0.0600 
    182 H182        5.1199   -9.6112  -41.9031 H         1 UNK         0.0600 
    183 H183        4.9538   -8.0555  -42.6960 H         1 UNK         0.0600 
    184 H184        5.7769  -11.1179  -45.3460 H         1 UNK         0.3000 
    185 H185        6.7663  -13.1280  -45.1123 H         1 UNK         0.0600 
    186 H186        7.0523  -15.2800  -43.9277 H         1 UNK         0.0600 
    187 H187        7.5912  -13.9610  -42.8993 H         1 UNK         0.0600 
    188 H188        6.0395  -14.7320  -42.5960 H         1 UNK         0.0600 
    189 H189        4.3659  -14.6616  -44.3443 H         1 UNK         0.3000 
    190 H190       -1.9250  -20.7291  -48.6005 H         1 UNK         0.3000 
    191 H191       -1.2647  -22.4863  -50.7504 H         1 UNK         0.0600 
    192 H192       -3.9911  -21.5004  -49.7949 H         1 UNK         0.0600 
    193 H193       -3.6374  -22.1876  -51.3748 H         1 UNK         0.0600 
    194 H194       -2.9376  -20.6425  -50.9204 H         1 UNK         0.0600 
    195 H195       -3.0901  -22.9730  -47.6858 H         1 UNK         0.3000 
    196 H196       -3.9510  -25.6271  -48.2002 H         1 UNK         0.0600 
    197 H197       -4.3040  -25.7242  -45.7361 H         1 UNK         0.0600 
    198 H198       -4.9269  -24.2273  -46.4127 H         1 UNK         0.0600 
    199 H199       -3.4000  -24.2300  -45.5320 H         1 UNK         0.0600 
    200 H200       -0.9563  -24.3969  -46.6365 H         1 UNK         0.3000 
    201 H201        0.2332  -26.9197  -46.0919 H         1 UNK         0.0600 
    202 H202        0.9847  -24.8040  -45.0440 H         1 UNK         0.0600 
    203 H203        1.5206  -24.1853  -46.6043 H         1 UNK         0.0600 
    204 H204        2.3272  -25.5709  -45.8791 H         1 UNK         0.0600 
    205 H205        0.1400  -24.9672  -49.0436 H         1 UNK         0.3000 
    206 H206        1.9941  -26.6528  -50.5415 H         1 UNK         0.0600 
    207 H207        1.7643  -24.1907  -50.9588 H         1 UNK         0.0600 
    208 H208        1.4234  -25.1369  -52.3987 H         1 UNK         0.0600 
    209 H209        0.0996  -24.4368  -51.4807 H         1 UNK         0.0600 
    210 H210       -1.0845  -27.2406  -49.4673 H         1 UNK         0.3000 
    211 H211       -2.6632  -28.6978  -49.8464 H         1 UNK         0.0600 
    212 H212       -0.9413  -29.9825  -52.0248 H         1 UNK         0.0600 
    213 H213       -2.2838  -30.7211  -51.1662 H         1 UNK         0.0600 
    214 H214       -0.8099  -30.3253  -50.2995 H         1 UNK         0.0600 
    215 H215       -2.6939  -26.1468  -51.2233 H         1 UNK         0.3000 
    216 H216       -4.6006  -26.6877  -53.4614 H         1 UNK         0.0600 
    217 H217       -4.2178  -24.2769  -54.0021 H         1 UNK         0.0600 
    218 H218       -2.6978  -25.1550  -54.0241 H         1 UNK         0.0600 
    219 H219       -3.1010  -24.1297  -52.6523 H         1 UNK         0.0600 
    220 H220       -6.3954  -24.9243  -53.3913 H         1 UNK         0.3000 
    221 H221       -7.8308  -25.0419  -50.8677 H         1 UNK         0.0600 
    222 H222       -8.3860  -23.6429  -53.5343 H         1 UNK         0.0600 
    223 H223       -9.1011  -25.1376  -52.9456 H         1 UNK         0.0600 
    224 H224       -9.4873  -23.6142  -52.1608 H         1 UNK         0.0600 
    225 H225       -8.1580  -23.4087  -49.4103 H         1 UNK         0.3000 
    226 H226       -6.0617  -21.7911  -48.7293 H         1 UNK         0.0600 
    227 H227       -7.7288  -22.5696  -47.1272 H         1 UNK         0.0600 
    228 H228       -7.6578  -20.8183  -47.0482 H         1 UNK         0.0600 
    229 H229       -8.9928  -21.5987  -47.8850 H         1 UNK         0.0600 
    230 H230       -5.2148  -20.1503  -49.7869 H         1 UNK         0.3000 
    231 H231       -4.7880  -18.2400  -50.7332 H         1 UNK         0.0600 
    232 H232       -7.5266  -17.2370  -49.7994 H         1 UNK         0.0600 
    233 H233       -6.0731  -17.2627  -48.8046 H         1 UNK         0.0600 
    234 H234       -6.1390  -16.2517  -50.2358 H         1 UNK         0.0600 
    235 H235       -6.6061  -20.3409  -52.2268 H         1 UNK         0.3000 
    236 H236       -8.0518  -18.8781  -54.2068 H         1 UNK         0.0600 
    237 H237       -6.9560  -21.7367  -54.2731 H         1 UNK         0.0600 
    238 H238       -8.5220  -21.2434  -53.6203 H         1 UNK         0.0600 
    239 H239       -8.1947  -21.0853  -55.3394 H         1 UNK         0.0600 
    240 H240       -4.6772  -19.5756  -53.8933 H         1 UNK         0.3000 
    241 H241       -3.9466  -19.0831  -56.6535 H         1 UNK         0.0600 
    242 H242       -4.2832  -15.4498  -54.9711 H         1 UNK         0.3800 
    243 H243       -5.0566  -16.8438  -54.2631 H         1 UNK         0.3800 
    244 H244       -1.6303  -19.1778  -55.8543 H         1 UNK         0.0800 
    245 H245       -2.5464  -20.5468  -55.3195 H         1 UNK         0.0800 
    246 H246       -0.8858  -17.1377  -54.1417 H         1 UNK         0.0800 
    247 H247        0.1446  -18.5258  -54.3993 H         1 UNK         0.0800 
@<TRIPOS>BOND
     1    1    2 1    
     2    1  127 1    
     3    1  128 1    
     4    1  129 1    
     5    2    3 2    
     6    2    4 am   BACKBONE|DICT|INTERRES
     7    4    5 1    
     8    4  130 1    
     9    5    6 1    
    10    5   65 1    
    11    5  131 1    
    12    6    7 1    
    13    6  132 1    
    14    6  133 1    
    15    7    8 1    
    16    8    9 1    
    17    8  134 1    
    18    8  135 1    
    19    9   10 ar   
    20    9   14 ar   
    21   10   11 ar   
    22   10  136 1    
    23   11   12 ar   
    24   11  126 1    
    25   12   13 ar   
    26   12  137 1    
    27   13   14 ar   
    28   13   15 1    
    29   14  138 1    
    30   15   16 1    
    31   15  139 1    
    32   15  140 1    
    33   16   17 1    
    34   17   18 1    
    35   17  141 1    
    36   17  142 1    
    37   18   19 1    
    38   18   67 1    
    39   18  143 1    
    40   19   20 am   BACKBONE|DICT|INTERRES
    41   19  144 1    
    42   20   21 2    
    43   20   22 1    
    44   22   23 1    
    45   22   24 1    
    46   22  145 1    
    47   23  146 1    
    48   23  147 1    
    49   23  148 1    
    50   24   25 am   BACKBONE|DICT|INTERRES
    51   24  149 1    
    52   25   26 2    
    53   25   27 1    
    54   27   28 1    
    55   27   29 1    
    56   27  150 1    
    57   28  151 1    
    58   28  152 1    
    59   28  153 1    
    60   29   30 am   BACKBONE|DICT|INTERRES
    61   29  154 1    
    62   30   31 2    
    63   30   32 1    
    64   32   33 1    
    65   32   34 1    
    66   32  155 1    
    67   33  156 1    
    68   33  157 1    
    69   33  158 1    
    70   34   35 am   BACKBONE|DICT|INTERRES
    71   34  159 1    
    72   35   36 2    
    73   35   37 1    
    74   37   38 1    
    75   37   39 1    
    76   37  160 1    
    77   38  161 1    
    78   38  162 1    
    79   38  163 1    
    80   39   40 am   BACKBONE|DICT|INTERRES
    81   39  164 1    
    82   40   41 2    
    83   40   42 1    
    84   42   43 1    
    85   42   44 1    
    86   42  165 1    
    87   43  166 1    
    88   43  167 1    
    89   43  168 1    
    90   44   45 am   BACKBONE|DICT|INTERRES
    91   44  169 1    
    92   45   46 2    
    93   45   47 1    
    94   47   48 1    
    95   47   49 1    
    96   47  170 1    
    97   48  171 1    
    98   48  172 1    
    99   48  173 1    
   100   49   50 am   BACKBONE|DICT|INTERRES
   101   49  174 1    
   102   50   51 2    
   103   50   52 1    
   104   52   53 1    
   105   52   54 1    
   106   52  175 1    
   107   53  176 1    
   108   53  177 1    
   109   53  178 1    
   110   54   55 am   BACKBONE|DICT|INTERRES
   111   54  179 1    
   112   55   56 2    
   113   55   57 1    
   114   57   58 1    
   115   57   59 1    
   116   57  180 1    
   117   58  181 1    
   118   58  182 1    
   119   58  183 1    
   120   59   60 am   BACKBONE|DICT|INTERRES
   121   59  184 1    
   122   60   61 2    
   123   60   62 1    
   124   62   63 1    
   125   62   64 1    
   126   62  185 1    
   127   63  186 1    
   128   63  187 1    
   129   63  188 1    
   130   64   65 am   BACKBONE|DICT|INTERRES
   131   64  189 1    
   132   65   66 2    
   133   67   68 2    
   134   67   69 am   BACKBONE|DICT|INTERRES
   135   69   70 1    
   136   69  190 1    
   137   70   71 1    
   138   70   72 1    
   139   70  191 1    
   140   71  192 1    
   141   71  193 1    
   142   71  194 1    
   143   72   73 2    
   144   72   74 am   BACKBONE|DICT|INTERRES
   145   74   75 1    
   146   74  195 1    
   147   75   76 1    
   148   75   77 1    
   149   75  196 1    
   150   76  197 1    
   151   76  198 1    
   152   76  199 1    
   153   77   78 2    
   154   77   79 am   BACKBONE|DICT|INTERRES
   155   79   80 1    
   156   79  200 1    
   157   80   81 1    
   158   80   82 1    
   159   80  201 1    
   160   81  202 1    
   161   81  203 1    
   162   81  204 1    
   163   82   83 2    
   164   82   84 am   BACKBONE|DICT|INTERRES
   165   84   85 1    
   166   84  205 1    
   167   85   86 1    
   168   85   87 1    
   169   85  206 1    
   170   86  207 1    
   171   86  208 1    
   172   86  209 1    
   173   87   88 2    
   174   87   89 am   BACKBONE|DICT|INTERRES
   175   89   90 1    
   176   89  210 1    
   177   90   91 1    
   178   90   92 1    
   179   90  211 1    
   180   91  212 1    
   181   91  213 1    
   182   91  214 1    
   183   92   93 2    
   184   92   94 am   BACKBONE|DICT|INTERRES
   185   94   95 1    
   186   94  215 1    
   187   95   96 1    
   188   95   97 1    
   189   95  216 1    
   190   96  217 1    
   191   96  218 1    
   192   96  219 1    
   193   97   98 2    
   194   97   99 am   BACKBONE|DICT|INTERRES
   195   99  100 1    
   196   99  220 1    
   197  100  101 1    
   198  100  102 1    
   199  100  221 1    
   200  101  222 1    
   201  101  223 1    
   202  101  224 1    
   203  102  103 2    
   204  102  104 am   BACKBONE|DICT|INTERRES
   205  104  105 1    
   206  104  225 1    
   207  105  106 1    
   208  105  107 1    
   209  105  226 1    
   210  106  227 1    
   211  106  228 1    
   212  106  229 1    
   213  107  108 2    
   214  107  109 am   BACKBONE|DICT|INTERRES
   215  109  110 1    
   216  109  230 1    
   217  110  111 1    
   218  110  112 1    
   219  110  231 1    
   220  111  232 1    
   221  111  233 1    
   222  111  234 1    
   223  112  113 2    
   224  112  114 am   BACKBONE|DICT|INTERRES
   225  114  115 1    
   226  114  235 1    
   227  115  116 1    
   228  115  117 1    
   229  115  236 1    
   230  116  237 1    
   231  116  238 1    
   232  116  239 1    
   233  117  118 2    
   234  117  119 am   BACKBONE|DICT|INTERRES
   235  119  120 1    
   236  119  240 1    
   237  120  121 1    
   238  120  124 1    
   239  120  241 1    
   240  121  122 am   BACKBONE|DICT|INTERRES
   241  121  123 2    
   242  122  242 1    
   243  122  243 1    
   244  124  125 1    
   245  124  244 1    
   246  124  245 1    
   247  125  126 1    
   248  126  246 1    
   249  126  247 1    
@<TRIPOS>SUBSTRUCTURE
     1 UNK         1 GROUP             0       ****    0 ROOT    
