@<TRIPOS>MOLECULE
3R540
247   249    1
SMALL
USER_CHARGES


@<TRIPOS>ATOM
      1 CA          4.3065  -17.0228  -49.2770 C.3       0 UNK        -0.1800 
      2 C           3.4150  -16.6713  -48.0947 C.2       0 UNK         0.5000 
      3 O           3.8444  -16.7906  -46.9484 O.2       0 UNK        -0.5000 
      4 N           2.1795  -16.2344  -48.3728 N.am      1 UNK        -0.5000 
      5 CA          1.1840  -15.8088  -47.3799 C.3       1 UNK         0.1400 
      6 C6         -0.2538  -15.7399  -47.9625 C.3       23 UNK        -0.0398 
      7 S7         -0.3608  -14.9284  -49.6000 S.3       23 UNK        -0.2404 
      8 C8         -1.8609  -15.6905  -50.3220 C.3       23 UNK        -0.0205 
      9 C9         -1.8429  -17.2163  -50.4362 C.ar      23 UNK        -0.0193 
     10 C10        -3.0545  -17.9134  -50.3788 C.ar      23 UNK        -0.1150 
     11 C11        -3.0861  -19.3099  -50.4542 C.ar      23 UNK        -0.0193 
     12 C12        -1.8859  -20.0125  -50.5683 C.ar      23 UNK        -0.1150 
     13 C13        -0.6676  -19.3350  -50.6372 C.ar      23 UNK        -0.0193 
     14 C14        -0.6543  -17.9380  -50.6017 C.ar      23 UNK        -0.1150 
     15 C15         0.6277  -20.1245  -50.7489 C.3       23 UNK        -0.0205 
     16 S16         1.8512  -19.7150  -49.4586 S.3       23 UNK        -0.2404 
     17 C17         0.8947  -19.7228  -47.8998 C.3       23 UNK        -0.0398 
     18 CA          0.7376  -21.1400  -47.2969 C.3       11 UNK         0.1400 
     19 N           0.9420  -21.1705  -45.8469 N.am      11 UNK        -0.5000 
     20 C           1.1285  -22.2983  -45.1463 C.2       10 UNK         0.5000 
     21 O           1.1669  -23.4196  -45.6553 O.2       10 UNK        -0.5000 
     22 CA          1.2458  -22.1558  -43.6187 C.3       10 UNK         0.1400 
     23 CB          2.6446  -21.6645  -43.2173 C.3       10 UNK        -0.1800 
     24 N           0.2267  -21.2674  -43.0586 N.am      10 UNK        -0.5000 
     25 C          -1.0912  -21.5101  -43.1064 C.2       9 UNK         0.5000 
     26 O          -1.5807  -22.5271  -43.5981 O.2       9 UNK        -0.5000 
     27 CA         -2.0233  -20.4209  -42.5469 C.3       9 UNK         0.1400 
     28 CB         -2.1023  -20.5098  -41.0157 C.3       9 UNK        -0.1800 
     29 N          -1.6305  -19.0684  -42.9455 N.am      9 UNK        -0.5000 
     30 C          -1.5815  -18.6315  -44.2123 C.2       8 UNK         0.5000 
     31 O          -1.8763  -19.3194  -45.1872 O.2       8 UNK        -0.5000 
     32 CA         -1.0524  -17.2074  -44.4426 C.3       8 UNK         0.1400 
     33 CB         -2.1102  -16.1504  -44.0971 C.3       8 UNK        -0.1800 
     34 N           0.1792  -16.9400  -43.7045 N.am      8 UNK        -0.5000 
     35 C           1.3232  -17.6232  -43.8532 C.2       7 UNK         0.5000 
     36 O           1.4762  -18.5380  -44.6632 O.2       7 UNK        -0.5000 
     37 CA          2.4644  -17.2640  -42.8883 C.3       7 UNK         0.1400 
     38 CB          3.1749  -15.9718  -43.3179 C.3       7 UNK        -0.1800 
     39 N           1.9830  -17.1273  -41.5140 N.am      7 UNK        -0.5000 
     40 C           1.5115  -18.1398  -40.7724 C.2       6 UNK         0.5000 
     41 O           1.4693  -19.3095  -41.1537 O.2       6 UNK        -0.5000 
     42 CA          0.9557  -17.7711  -39.3856 C.3       6 UNK         0.1400 
     43 CB          2.0930  -17.6315  -38.3626 C.3       6 UNK        -0.1800 
     44 N           0.1671  -16.5380  -39.4093 N.am      6 UNK        -0.5000 
     45 C          -1.0084  -16.4075  -40.0402 C.2       5 UNK         0.5000 
     46 O          -1.5600  -17.3190  -40.6547 O.2       5 UNK        -0.5000 
     47 CA         -1.6587  -15.0134  -40.0129 C.3       5 UNK         0.1400 
     48 CB         -2.4821  -14.8263  -38.7299 C.3       5 UNK        -0.1800 
     49 N          -0.6945  -13.9170  -40.1381 N.am      5 UNK        -0.5000 
     50 C           0.0807  -13.7067  -41.2093 C.2       4 UNK         0.5000 
     51 O           0.1207  -14.4563  -42.1870 O.2       4 UNK        -0.5000 
     52 CA          0.9828  -12.4694  -41.1703 C.3       4 UNK         0.1400 
     53 CB          2.3986  -12.8395  -40.6984 C.3       4 UNK        -0.1800 
     54 N           1.0483  -11.8948  -42.5106 N.am      4 UNK        -0.5000 
     55 C           1.0307  -10.5844  -42.7861 C.2       3 UNK         0.5000 
     56 O           1.0018   -9.7087  -41.9193 O.2       3 UNK        -0.5000 
     57 CA          1.0800  -10.1946  -44.2746 C.3       3 UNK         0.1400 
     58 CB          1.4404   -8.7141  -44.5086 C.3       3 UNK        -0.1800 
     59 N           2.0301  -11.0543  -44.9740 N.am      3 UNK        -0.5000 
     60 C           1.9318  -11.4507  -46.2467 C.2       2 UNK         0.5000 
     61 O           1.0414  -11.0774  -47.0133 O.2       2 UNK        -0.5000 
     62 CA          3.0021  -12.4401  -46.7594 C.3       2 UNK         0.1400 
     63 CB          4.0939  -12.7901  -45.7213 C.3       2 UNK        -0.1800 
     64 N           2.4099  -13.6730  -47.2850 N.am      2 UNK        -0.5000 
     65 C           1.5706  -14.5055  -46.6476 C.2       1 UNK         0.5000 
     66 O           1.1243  -14.3019  -45.5184 O.2       1 UNK        -0.5000 
     67 C          -0.6021  -21.7890  -47.6984 C.2       11 UNK         0.5000 
     68 O          -0.6319  -22.5439  -48.6664 O.2       11 UNK        -0.5000 
     69 N          -1.6728  -21.5386  -46.9305 N.am      12 UNK        -0.5000 
     70 CA         -2.9904  -22.1502  -47.1181 C.3       12 UNK         0.1400 
     71 CB         -3.9985  -21.5251  -46.1427 C.3       12 UNK        -0.1800 
     72 C          -2.9721  -23.6809  -46.9592 C.2       12 UNK         0.5000 
     73 O          -3.6250  -24.3752  -47.7381 O.2       12 UNK        -0.5000 
     74 N          -2.2064  -24.1770  -45.9763 N.am      13 UNK        -0.5000 
     75 CA         -1.9822  -25.6033  -45.7387 C.3       13 UNK         0.1400 
     76 CB         -1.2916  -25.7962  -44.3802 C.3       13 UNK        -0.1800 
     77 C          -1.1741  -26.2740  -46.8657 C.2       13 UNK         0.5000 
     78 O          -1.4924  -27.4000  -47.2503 O.2       13 UNK        -0.5000 
     79 N          -0.1595  -25.5690  -47.3862 N.am      14 UNK        -0.5000 
     80 CA          0.6433  -26.0003  -48.5332 C.3       14 UNK         0.1400 
     81 CB          1.9162  -25.1427  -48.6065 C.3       14 UNK        -0.1800 
     82 C          -0.1261  -25.9274  -49.8674 C.2       14 UNK         0.5000 
     83 O           0.1473  -26.7181  -50.7716 O.2       14 UNK        -0.5000 
     84 N          -1.0463  -24.9593  -49.9712 N.am      15 UNK        -0.5000 
     85 CA         -1.8795  -24.5567  -51.1085 C.3       15 UNK         0.1400 
     86 CB         -2.7652  -25.7100  -51.6136 C.3       15 UNK        -0.1800 
     87 C          -1.0800  -23.9087  -52.2529 C.2       15 UNK         0.5000 
     88 O          -1.4773  -22.8519  -52.7437 O.2       15 UNK        -0.5000 
     89 N           0.0245  -24.5525  -52.6589 N.am      16 UNK        -0.5000 
     90 CA          1.0364  -24.1085  -53.6290 C.3       16 UNK         0.1400 
     91 CB          1.8108  -22.9050  -53.0545 C.3       16 UNK        -0.1800 
     92 C           0.5000  -23.8131  -55.0487 C.2       16 UNK         0.5000 
     93 O           1.1922  -23.1628  -55.8337 O.2       16 UNK        -0.5000 
     94 N          -0.7244  -24.2763  -55.3448 N.am      17 UNK        -0.5000 
     95 CA         -1.5315  -23.9669  -56.5304 C.3       17 UNK         0.1400 
     96 CB         -0.9098  -24.5925  -57.7968 C.3       17 UNK        -0.1800 
     97 C          -1.8302  -22.4563  -56.6834 C.2       17 UNK         0.5000 
     98 O          -1.9471  -21.9651  -57.8083 O.2       17 UNK        -0.5000 
     99 N          -1.9369  -21.7413  -55.5524 N.am      18 UNK        -0.5000 
    100 CA        -2.2196  -20.3078  -55.4931 C.3       18 UNK         0.1400 
    101 CB        -2.0464  -19.8235  -54.0460 C.3       18 UNK        -0.1800 
    102 C         -3.6349  -19.9758  -55.9975 C.2       18 UNK         0.5000 
    103 O         -4.5822  -20.7034  -55.6898 O.2       18 UNK        -0.5000 
    104 N         -3.7604  -18.8536  -56.7190 N.am      19 UNK        -0.5000 
    105 CA        -5.0101  -18.3656  -57.3163 C.3       19 UNK         0.1400 
    106 CB        -4.6935  -17.1666  -58.2234 C.3       19 UNK        -0.1800 
    107 C         -6.0992  -17.9919  -56.2901 C.2       19 UNK         0.5000 
    108 O         -7.2824  -17.9963  -56.6314 O.2       19 UNK        -0.5000 
    109 N         -5.6835  -17.6982  -55.0505 N.am      20 UNK        -0.5000 
    110 CA        -6.5570  -17.4557  -53.9021 C.3       20 UNK         0.1400 
    111 CB        -5.7133  -16.8598  -52.7661 C.3       20 UNK        -0.1800 
    112 C         -7.2957  -18.7191  -53.4134 C.2       20 UNK         0.5000 
    113 O         -8.3218  -18.5876  -52.7451 O.2       20 UNK        -0.5000 
    114 N         -6.7617  -19.9075  -53.7401 N.am      21 UNK        -0.5000 
    115 CA        -7.2486  -21.2641  -53.4539 C.3       21 UNK         0.1400 
    116 CB        -8.6194  -21.5115  -54.1111 C.3       21 UNK        -0.1800 
    117 C         -7.2696  -21.6654  -51.9646 C.2       21 UNK         0.5000 
    118 O         -6.8675  -22.7839  -51.6442 O.2       21 UNK        -0.5000 
    119 N         -7.7281  -20.7619  -51.0897 N.am      22 UNK        -0.5000 
    120 CA        -7.8801  -20.9339  -49.6326 C.3       22 UNK         0.1400 
    121 C         -8.9560  -21.9859  -49.2133 C.2       22 UNK         0.5000 
    122 N         -9.8767  -22.3758  -50.0870 N.am      22 UNK        -0.7600 
    123 O         -8.9863  -22.4333  -48.0699 O.2       22 UNK        -0.5000 
    124 C124       -6.5237  -21.1354  -48.8977 C.3       23 UNK        -0.0398 
    125 S125       -5.4278  -19.6780  -48.9928 S.3       23 UNK        -0.2404 
    126 C126       -4.4060  -20.0692  -50.4467 C.3       23 UNK        -0.0205 
    127 H127        4.6577  -18.0508  -49.1878 H         1 UNK         0.0600 
    128 H128        5.1749  -16.3647  -49.3018 H         1 UNK         0.0600 
    129 H129        3.7773  -16.9279  -50.2255 H         1 UNK         0.0600 
    130 H130        1.8833  -16.1545  -49.3352 H         1 UNK         0.3000 
    131 H131        1.1764  -16.5805  -46.6099 H         1 UNK         0.0600 
    132 H132       -0.6353  -16.7566  -48.0500 H         1 UNK         0.0800 
    133 H133       -0.9384  -15.2384  -47.2756 H         1 UNK         0.0800 
    134 H134       -2.0142  -15.2749  -51.3185 H         1 UNK         0.0800 
    135 H135       -2.7169  -15.3762  -49.7227 H         1 UNK         0.0800 
    136 H136       -3.9813  -17.3677  -50.2716 H         1 UNK         0.1150 
    137 H137       -1.8990  -21.0923  -50.6187 H         1 UNK         0.1150 
    138 H138        0.2914  -17.4213  -50.6704 H         1 UNK         0.1150 
    139 H139        0.4319  -21.1972  -50.7156 H         1 UNK         0.0800 
    140 H140        1.0719  -19.9271  -51.7249 H         1 UNK         0.0800 
    141 H141       -0.0613  -19.2106  -48.0171 H         1 UNK         0.0800 
    142 H142        1.4647  -19.0928  -47.2172 H         1 UNK         0.0800 
    143 H143        1.5249  -21.7714  -47.7150 H         1 UNK         0.0600 
    144 H144        0.9488  -20.2778  -45.3602 H         1 UNK         0.3000 
    145 H145        1.0986  -23.1463  -43.1831 H         1 UNK         0.0600 
    146 H146        2.7604  -21.6513  -42.1335 H         1 UNK         0.0600 
    147 H147        3.4189  -22.3191  -43.6193 H         1 UNK         0.0600 
    148 H148        2.8411  -20.6575  -43.5857 H         1 UNK         0.0600 
    149 H149        0.5577  -20.4229  -42.6033 H         1 UNK         0.3000 
    150 H150       -3.0223  -20.6044  -42.9469 H         1 UNK         0.0600 
    151 H151       -2.3946  -21.5108  -40.6959 H         1 UNK         0.0600 
    152 H152       -2.8413  -19.8136  -40.6190 H         1 UNK         0.0600 
    153 H153       -1.1435  -20.2813  -40.5492 H         1 UNK         0.0600 
    154 H154       -1.4045  -18.4234  -42.1926 H         1 UNK         0.3000 
    155 H155       -0.8263  -17.1176  -45.5046 H         1 UNK         0.0600 
    156 H156       -3.0254  -16.3131  -44.6675 H         1 UNK         0.0600 
    157 H157       -1.7524  -15.1474  -44.3317 H         1 UNK         0.0600 
    158 H158       -2.3725  -16.1726  -43.0396 H         1 UNK         0.0600 
    159 H159        0.1566  -16.1607  -43.0518 H         1 UNK         0.3000 
    160 H160        3.1930  -18.0771  -42.9153 H         1 UNK         0.0600 
    161 H161        2.5045  -15.1130  -43.2914 H         1 UNK         0.0600 
    162 H162        3.5531  -16.0561  -44.3371 H         1 UNK         0.0600 
    163 H163        4.0255  -15.7541  -42.6723 H         1 UNK         0.0600 
    164 H164        1.9316  -16.1914  -41.1420 H         1 UNK         0.3000 
    165 H165        0.3039  -18.5853  -39.0615 H         1 UNK         0.0600 
    166 H166        1.7020  -17.4485  -37.3616 H         1 UNK         0.0600 
    167 H167        2.6889  -18.5440  -38.3157 H         1 UNK         0.0600 
    168 H168        2.7667  -16.8118  -38.6153 H         1 UNK         0.0600 
    169 H169        0.5494  -15.7370  -38.9289 H         1 UNK         0.3000 
    170 H170       -2.3404  -14.9533  -40.8637 H         1 UNK         0.0600 
    171 H171       -3.2215  -15.6211  -38.6215 H         1 UNK         0.0600 
    172 H172       -1.8521  -14.8404  -37.8396 H         1 UNK         0.0600 
    173 H173       -3.0242  -13.8806  -38.7433 H         1 UNK         0.0600 
    174 H174       -0.6591  -13.2617  -39.3704 H         1 UNK         0.3000 
    175 H175        0.5488  -11.7510  -40.4715 H         1 UNK         0.0600 
    176 H176        2.8762  -13.5504  -41.3732 H         1 UNK         0.0600 
    177 H177        3.0353  -11.9566  -40.6403 H         1 UNK         0.0600 
    178 H178        2.3766  -13.2899  -39.7054 H         1 UNK         0.0600 
    179 H179        1.0012  -12.5694  -43.2660 H         1 UNK         0.3000 
    180 H180        0.0767  -10.3712  -44.6678 H         1 UNK         0.0600 
    181 H181        2.4299   -8.4768  -44.1164 H         1 UNK         0.0600 
    182 H182        0.7232   -8.0528  -44.0211 H         1 UNK         0.0600 
    183 H183        1.4335   -8.4685  -45.5706 H         1 UNK         0.0600 
    184 H184        2.7819  -11.4240  -44.4087 H         1 UNK         0.3000 
    185 H185        3.4917  -11.9478  -47.6007 H         1 UNK         0.0600 
    186 H186        4.6259  -11.8984  -45.3877 H         1 UNK         0.0600 
    187 H187        3.6820  -13.2870  -44.8421 H         1 UNK         0.0600 
    188 H188        4.8378  -13.4598  -46.1534 H         1 UNK         0.0600 
    189 H189        2.6836  -13.9232  -48.2240 H         1 UNK         0.3000 
    190 H190       -1.5975  -20.8596  -46.1761 H         1 UNK         0.3000 
    191 H191       -3.3158  -21.9264  -48.1358 H         1 UNK         0.0600 
    192 H192       -3.6954  -21.6648  -45.1055 H         1 UNK         0.0600 
    193 H193       -4.9850  -21.9747  -46.2570 H         1 UNK         0.0600 
    194 H194       -4.1055  -20.4549  -46.3185 H         1 UNK         0.0600 
    195 H195       -1.7532  -23.5319  -45.3364 H         1 UNK         0.3000 
    196 H196       -2.9573  -26.0927  -45.6939 H         1 UNK         0.0600 
    197 H197       -1.1283  -26.8541  -44.1712 H         1 UNK         0.0600 
    198 H198       -1.8994  -25.3943  -43.5694 H         1 UNK         0.0600 
    199 H199       -0.3211  -25.3005  -44.3461 H         1 UNK         0.0600 
    200 H200        0.0739  -24.6722  -46.9742 H         1 UNK         0.3000 
    201 H201        0.9400  -27.0392  -48.3755 H         1 UNK         0.0600 
    202 H202        2.4971  -25.2192  -47.6871 H         1 UNK         0.0600 
    203 H203        1.6838  -24.0895  -48.7679 H         1 UNK         0.0600 
    204 H204        2.5587  -25.4658  -49.4265 H         1 UNK         0.0600 
    205 H205       -1.0723  -24.2920  -49.2046 H         1 UNK         0.3000 
    206 H206       -2.5435  -23.7841  -50.7168 H         1 UNK         0.0600 
    207 H207       -3.3643  -26.1259  -50.8033 H         1 UNK         0.0600 
    208 H208       -3.4560  -25.3591  -52.3813 H         1 UNK         0.0600 
    209 H209       -2.1797  -26.5203  -52.0483 H         1 UNK         0.0600 
    210 H210        0.2259  -25.4309  -52.1878 H         1 UNK         0.3000 
    211 H211        1.7375  -24.9372  -53.7350 H         1 UNK         0.0600 
    212 H212        1.1892  -22.0100  -53.0276 H         1 UNK         0.0600 
    213 H213        2.6877  -22.6748  -53.6605 H         1 UNK         0.0600 
    214 H214        2.1605  -23.1031  -52.0411 H         1 UNK         0.0600 
    215 H215       -1.1981  -24.7961  -54.6203 H         1 UNK         0.3000 
    216 H216       -2.4985  -24.4458  -56.3706 H         1 UNK         0.0600 
    217 H217       -1.5811  -24.4957  -58.6508 H         1 UNK         0.0600 
    218 H218       -0.7169  -25.6561  -57.6573 H         1 UNK         0.0600 
    219 H219        0.0316  -24.1131  -58.0665 H         1 UNK         0.0600 
    220 H220       -1.8284  -22.2119  -54.6596 H         1 UNK         0.3000 
    221 H221       -1.4878  -19.7957  -56.1211 H         1 UNK         0.0600 
    222 H222       -2.7535  -20.3130  -53.3750 H         1 UNK         0.0600 
    223 H223       -1.0416  -20.0312  -53.6772 H         1 UNK         0.0600 
    224 H224       -2.2065  -18.7478  -53.9638 H         1 UNK         0.0600 
    225 H225       -2.9342  -18.3061  -56.9136 H         1 UNK         0.3000 
    226 H226       -5.4146  -19.1671  -57.9378 H         1 UNK         0.0600 
    227 H227       -4.2596  -16.3395  -57.6601 H         1 UNK         0.0600 
    228 H228       -3.9927  -17.4417  -59.0119 H         1 UNK         0.0600 
    229 H229       -5.5963  -16.7945  -58.7097 H         1 UNK         0.0600 
    230 H230       -4.6905  -17.7003  -54.8720 H         1 UNK         0.3000 
    231 H231       -7.3139  -16.7238  -54.1916 H         1 UNK         0.0600 
    232 H232       -6.3147  -16.6906  -51.8717 H         1 UNK         0.0600 
    233 H233       -5.2827  -15.9007  -53.0544 H         1 UNK         0.0600 
    234 H234       -4.8951  -17.5254  -52.4932 H         1 UNK         0.0600 
    235 H235       -5.9207  -19.8945  -54.3067 H         1 UNK         0.3000 
    236 H236       -6.5339  -21.9306  -53.9397 H         1 UNK         0.0600 
    237 H237       -8.9303  -22.5492  -53.9836 H         1 UNK         0.0600 
    238 H238       -9.3992  -20.8825  -53.6812 H         1 UNK         0.0600 
    239 H239       -8.5820  -21.3131  -55.1824 H         1 UNK         0.0600 
    240 H240       -8.0488  -19.8751  -51.4714 H         1 UNK         0.3000 
    241 H241       -8.2929  -19.9886  -49.2791 H         1 UNK         0.0600 
    242 H242       -9.8829  -22.0069  -51.0240 H         1 UNK         0.3800 
    243 H243      -10.5754  -23.0457  -49.8057 H         1 UNK         0.3800 
    244 H244       -6.6956  -21.3039  -47.8341 H         1 UNK         0.0800 
    245 H245       -6.0063  -22.0269  -49.2534 H         1 UNK         0.0800 
    246 H246       -4.9593  -19.8181  -51.3511 H         1 UNK         0.0800 
    247 H247       -4.2233  -21.1442  -50.4843 H         1 UNK         0.0800 
@<TRIPOS>BOND
     1    1    2 1    
     2    1  127 1    
     3    1  128 1    
     4    1  129 1    
     5    2    3 2    
     6    2    4 am   BACKBONE|DICT|INTERRES
     7    4    5 1    
     8    4  130 1    
     9    5    6 1    
    10    5   65 1    
    11    5  131 1    
    12    6    7 1    
    13    6  132 1    
    14    6  133 1    
    15    7    8 1    
    16    8    9 1    
    17    8  134 1    
    18    8  135 1    
    19    9   10 ar   
    20    9   14 ar   
    21   10   11 ar   
    22   10  136 1    
    23   11   12 ar   
    24   11  126 1    
    25   12   13 ar   
    26   12  137 1    
    27   13   14 ar   
    28   13   15 1    
    29   14  138 1    
    30   15   16 1    
    31   15  139 1    
    32   15  140 1    
    33   16   17 1    
    34   17   18 1    
    35   17  141 1    
    36   17  142 1    
    37   18   19 1    
    38   18   67 1    
    39   18  143 1    
    40   19   20 am   BACKBONE|DICT|INTERRES
    41   19  144 1    
    42   20   21 2    
    43   20   22 1    
    44   22   23 1    
    45   22   24 1    
    46   22  145 1    
    47   23  146 1    
    48   23  147 1    
    49   23  148 1    
    50   24   25 am   BACKBONE|DICT|INTERRES
    51   24  149 1    
    52   25   26 2    
    53   25   27 1    
    54   27   28 1    
    55   27   29 1    
    56   27  150 1    
    57   28  151 1    
    58   28  152 1    
    59   28  153 1    
    60   29   30 am   BACKBONE|DICT|INTERRES
    61   29  154 1    
    62   30   31 2    
    63   30   32 1    
    64   32   33 1    
    65   32   34 1    
    66   32  155 1    
    67   33  156 1    
    68   33  157 1    
    69   33  158 1    
    70   34   35 am   BACKBONE|DICT|INTERRES
    71   34  159 1    
    72   35   36 2    
    73   35   37 1    
    74   37   38 1    
    75   37   39 1    
    76   37  160 1    
    77   38  161 1    
    78   38  162 1    
    79   38  163 1    
    80   39   40 am   BACKBONE|DICT|INTERRES
    81   39  164 1    
    82   40   41 2    
    83   40   42 1    
    84   42   43 1    
    85   42   44 1    
    86   42  165 1    
    87   43  166 1    
    88   43  167 1    
    89   43  168 1    
    90   44   45 am   BACKBONE|DICT|INTERRES
    91   44  169 1    
    92   45   46 2    
    93   45   47 1    
    94   47   48 1    
    95   47   49 1    
    96   47  170 1    
    97   48  171 1    
    98   48  172 1    
    99   48  173 1    
   100   49   50 am   BACKBONE|DICT|INTERRES
   101   49  174 1    
   102   50   51 2    
   103   50   52 1    
   104   52   53 1    
   105   52   54 1    
   106   52  175 1    
   107   53  176 1    
   108   53  177 1    
   109   53  178 1    
   110   54   55 am   BACKBONE|DICT|INTERRES
   111   54  179 1    
   112   55   56 2    
   113   55   57 1    
   114   57   58 1    
   115   57   59 1    
   116   57  180 1    
   117   58  181 1    
   118   58  182 1    
   119   58  183 1    
   120   59   60 am   BACKBONE|DICT|INTERRES
   121   59  184 1    
   122   60   61 2    
   123   60   62 1    
   124   62   63 1    
   125   62   64 1    
   126   62  185 1    
   127   63  186 1    
   128   63  187 1    
   129   63  188 1    
   130   64   65 am   BACKBONE|DICT|INTERRES
   131   64  189 1    
   132   65   66 2    
   133   67   68 2    
   134   67   69 am   BACKBONE|DICT|INTERRES
   135   69   70 1    
   136   69  190 1    
   137   70   71 1    
   138   70   72 1    
   139   70  191 1    
   140   71  192 1    
   141   71  193 1    
   142   71  194 1    
   143   72   73 2    
   144   72   74 am   BACKBONE|DICT|INTERRES
   145   74   75 1    
   146   74  195 1    
   147   75   76 1    
   148   75   77 1    
   149   75  196 1    
   150   76  197 1    
   151   76  198 1    
   152   76  199 1    
   153   77   78 2    
   154   77   79 am   BACKBONE|DICT|INTERRES
   155   79   80 1    
   156   79  200 1    
   157   80   81 1    
   158   80   82 1    
   159   80  201 1    
   160   81  202 1    
   161   81  203 1    
   162   81  204 1    
   163   82   83 2    
   164   82   84 am   BACKBONE|DICT|INTERRES
   165   84   85 1    
   166   84  205 1    
   167   85   86 1    
   168   85   87 1    
   169   85  206 1    
   170   86  207 1    
   171   86  208 1    
   172   86  209 1    
   173   87   88 2    
   174   87   89 am   BACKBONE|DICT|INTERRES
   175   89   90 1    
   176   89  210 1    
   177   90   91 1    
   178   90   92 1    
   179   90  211 1    
   180   91  212 1    
   181   91  213 1    
   182   91  214 1    
   183   92   93 2    
   184   92   94 am   BACKBONE|DICT|INTERRES
   185   94   95 1    
   186   94  215 1    
   187   95   96 1    
   188   95   97 1    
   189   95  216 1    
   190   96  217 1    
   191   96  218 1    
   192   96  219 1    
   193   97   98 2    
   194   97   99 am   BACKBONE|DICT|INTERRES
   195   99  100 1    
   196   99  220 1    
   197  100  101 1    
   198  100  102 1    
   199  100  221 1    
   200  101  222 1    
   201  101  223 1    
   202  101  224 1    
   203  102  103 2    
   204  102  104 am   BACKBONE|DICT|INTERRES
   205  104  105 1    
   206  104  225 1    
   207  105  106 1    
   208  105  107 1    
   209  105  226 1    
   210  106  227 1    
   211  106  228 1    
   212  106  229 1    
   213  107  108 2    
   214  107  109 am   BACKBONE|DICT|INTERRES
   215  109  110 1    
   216  109  230 1    
   217  110  111 1    
   218  110  112 1    
   219  110  231 1    
   220  111  232 1    
   221  111  233 1    
   222  111  234 1    
   223  112  113 2    
   224  112  114 am   BACKBONE|DICT|INTERRES
   225  114  115 1    
   226  114  235 1    
   227  115  116 1    
   228  115  117 1    
   229  115  236 1    
   230  116  237 1    
   231  116  238 1    
   232  116  239 1    
   233  117  118 2    
   234  117  119 am   BACKBONE|DICT|INTERRES
   235  119  120 1    
   236  119  240 1    
   237  120  121 1    
   238  120  124 1    
   239  120  241 1    
   240  121  122 am   BACKBONE|DICT|INTERRES
   241  121  123 2    
   242  122  242 1    
   243  122  243 1    
   244  124  125 1    
   245  124  244 1    
   246  124  245 1    
   247  125  126 1    
   248  126  246 1    
   249  126  247 1    
@<TRIPOS>SUBSTRUCTURE
     1 UNK         1 GROUP             0       ****    0 ROOT    
