@<TRIPOS>MOLECULE
3R540
247   249    1
SMALL
USER_CHARGES


@<TRIPOS>ATOM
      1 CA          1.8229  -14.5745  -47.0383 C.3       0 UNK        -0.1800 
      2 C           3.1941  -15.1033  -46.6488 C.2       0 UNK         0.5000 
      3 O           4.1947  -14.4281  -46.8887 O.2       0 UNK        -0.5000 
      4 N           3.2374  -16.2999  -46.0548 N.am      1 UNK        -0.5000 
      5 CA          4.4622  -16.9769  -45.6092 C.3       1 UNK         0.1400 
      6 C6          4.8092  -18.1952  -46.5107 C.3       23 UNK        -0.0398 
      7 S7          6.3901  -17.9988  -47.3943 S.3       23 UNK        -0.2404 
      8 C8          5.8643  -17.1370  -48.9170 C.3       23 UNK        -0.0205 
      9 C9          4.9474  -17.9606  -49.8179 C.ar      23 UNK        -0.0193 
     10 C10         3.7747  -17.3936  -50.3290 C.ar      23 UNK        -0.1150 
     11 C11         2.9373  -18.1206  -51.1841 C.ar      23 UNK        -0.0193 
     12 C12         3.2929  -19.4291  -51.5320 C.ar      23 UNK        -0.1150 
     13 C13         4.4579  -20.0112  -51.0247 C.ar      23 UNK        -0.0193 
     14 C14         5.2826  -19.2700  -50.1748 C.ar      23 UNK        -0.1150 
     15 C15         4.8497  -21.4287  -51.4141 C.3       23 UNK        -0.0205 
     16 S16         4.3539  -22.6494  -50.1563 S.3       23 UNK        -0.2404 
     17 C17         2.5931  -22.9189  -50.5566 C.3       23 UNK        -0.0398 
     18 CA          1.6800  -22.8758  -49.3083 C.3       11 UNK         0.1400 
     19 N           1.7682  -21.5979  -48.5961 N.am      11 UNK        -0.5000 
     20 C           1.1479  -21.2954  -47.4476 C.2       10 UNK         0.5000 
     21 O           0.4122  -22.0835  -46.8447 O.2       10 UNK        -0.5000 
     22 CA          1.3467  -19.8652  -46.9097 C.3       10 UNK         0.1400 
     23 CB          1.5120  -18.8491  -48.0618 C.3       10 UNK        -0.1800 
     24 N           0.1644  -19.5262  -46.1379 N.am      10 UNK        -0.5000 
     25 C          -0.0860  -18.3884  -45.4925 C.2       9 UNK         0.5000 
     26 O           0.7718  -17.5430  -45.2199 O.2       9 UNK        -0.5000 
     27 CA         -1.5788  -18.1333  -45.2035 C.3       9 UNK         0.1400 
     28 CB         -1.7912  -17.1413  -44.0503 C.3       9 UNK        -0.1800 
     29 N          -2.2518  -17.6242  -46.4026 N.am      9 UNK        -0.5000 
     30 C          -2.4335  -18.2881  -47.5574 C.2       8 UNK         0.5000 
     31 O          -2.1874  -19.4862  -47.7079 O.2       8 UNK        -0.5000 
     32 CA         -2.9776  -17.4939  -48.7600 C.3       8 UNK         0.1400 
     33 CB         -4.4536  -17.8390  -48.9980 C.3       8 UNK        -0.1800 
     34 N          -2.8446  -16.0447  -48.6197 N.am      8 UNK        -0.5000 
     35 C          -1.6898  -15.3655  -48.6351 C.2       7 UNK         0.5000 
     36 O          -0.5940  -15.8873  -48.8321 O.2       7 UNK        -0.5000 
     37 CA         -1.7761  -13.8453  -48.3865 C.3       7 UNK         0.1400 
     38 CB         -3.0012  -13.2035  -49.0716 C.3       7 UNK        -0.1800 
     39 N          -1.7354  -13.4629  -46.9687 N.am      7 UNK        -0.5000 
     40 C          -2.5160  -13.8856  -45.9639 C.2       6 UNK         0.5000 
     41 O          -3.3403  -14.7952  -46.0650 O.2       6 UNK        -0.5000 
     42 CA         -2.3435  -13.1535  -44.6172 C.3       6 UNK         0.1400 
     43 CB         -3.3490  -13.6150  -43.5463 C.3       6 UNK        -0.1800 
     44 N          -0.9938  -13.2851  -44.0722 N.am      6 UNK        -0.5000 
     45 C           0.0669  -12.5503  -44.4288 C.2       5 UNK         0.5000 
     46 O           0.0465  -11.7555  -45.3707 O.2       5 UNK        -0.5000 
     47 CA          1.3564  -12.7398  -43.5966 C.3       5 UNK         0.1400 
     48 CB          2.2529  -11.4857  -43.5989 C.3       5 UNK        -0.1800 
     49 N           1.1202  -13.1996  -42.2206 N.am      5 UNK        -0.5000 
     50 C           0.3853  -12.6036  -41.2657 C.2       4 UNK         0.5000 
     51 O          -0.1993  -11.5308  -41.4180 O.2       4 UNK        -0.5000 
     52 CA          0.2454  -13.3446  -39.9194 C.3       4 UNK         0.1400 
     53 CB         -1.0952  -14.0954  -39.8698 C.3       4 UNK        -0.1800 
     54 N           1.3258  -14.2989  -39.6651 N.am      4 UNK        -0.5000 
     55 C           2.5764  -13.9638  -39.3187 C.2       3 UNK         0.5000 
     56 O           2.9352  -12.8078  -39.0913 O.2       3 UNK        -0.5000 
     57 CA          3.6078  -15.1099  -39.2344 C.3       3 UNK         0.1400 
     58 CB          3.7581  -15.5892  -37.7825 C.3       3 UNK        -0.1800 
     59 N           3.3124  -16.2669  -40.0912 N.am      3 UNK        -0.5000 
     60 C           3.1886  -16.2258  -41.4245 C.2       2 UNK         0.5000 
     61 O           3.2420  -15.1817  -42.0789 O.2       2 UNK        -0.5000 
     62 CA          2.8950  -17.5621  -42.1336 C.3       2 UNK         0.1400 
     63 CB          1.4249  -17.9572  -41.9272 C.3       2 UNK        -0.1800 
     64 N           3.1506  -17.4609  -43.5701 N.am      2 UNK        -0.5000 
     65 C           4.3712  -17.3623  -44.1186 C.2       1 UNK         0.5000 
     66 O           5.4114  -17.5371  -43.4814 O.2       1 UNK        -0.5000 
     67 C           0.2353  -23.2509  -49.7008 C.2       11 UNK         0.5000 
     68 O          -0.0941  -24.4360  -49.6951 O.2       11 UNK        -0.5000 
     69 N          -0.6073  -22.2520  -50.0086 N.am      12 UNK        -0.5000 
     70 CA         -2.0159  -22.4581  -50.3458 C.3       12 UNK         0.1400 
     71 CB         -2.6231  -21.1715  -50.9120 C.3       12 UNK        -0.1800 
     72 C          -2.8354  -22.9849  -49.1580 C.2       12 UNK         0.5000 
     73 O          -3.5663  -23.9589  -49.3232 O.2       12 UNK        -0.5000 
     74 N          -2.6709  -22.3782  -47.9750 N.am      13 UNK        -0.5000 
     75 CA         -3.2788  -22.8433  -46.7257 C.3       13 UNK         0.1400 
     76 CB         -3.0409  -21.8186  -45.6077 C.3       13 UNK        -0.1800 
     77 C          -2.7866  -24.2384  -46.3034 C.2       13 UNK         0.5000 
     78 O          -3.5953  -25.0474  -45.8486 O.2       13 UNK        -0.5000 
     79 N          -1.4900  -24.5135  -46.5070 N.am      14 UNK        -0.5000 
     80 CA         -0.8766  -25.8219  -46.2624 C.3       14 UNK         0.1400 
     81 CB          0.6495  -25.7049  -46.3896 C.3       14 UNK        -0.1800 
     82 C          -1.4242  -26.9261  -47.1906 C.2       14 UNK         0.5000 
     83 O          -1.6367  -28.0515  -46.7382 O.2       14 UNK        -0.5000 
     84 N          -1.6698  -26.5772  -48.4605 N.am      15 UNK        -0.5000 
     85 CA         -2.2585  -27.4511  -49.4782 C.3       15 UNK         0.1400 
     86 CB         -1.8781  -26.9086  -50.8656 C.3       15 UNK        -0.1800 
     87 C          -3.7914  -27.5907  -49.3688 C.2       15 UNK         0.5000 
     88 O          -4.3601  -28.4411  -50.0546 O.2       15 UNK        -0.5000 
     89 N          -4.4299  -26.7457  -48.5447 N.am      16 UNK        -0.5000 
     90 CA         -5.8793  -26.5603  -48.4011 C.3       16 UNK         0.1400 
     91 CB         -6.5566  -27.8287  -47.8419 C.3       16 UNK        -0.1800 
     92 C          -6.5334  -26.0337  -49.6991 C.2       16 UNK         0.5000 
     93 O          -7.6404  -26.4407  -50.0554 O.2       16 UNK        -0.5000 
     94 N          -5.8208  -25.1262  -50.3758 N.am      17 UNK        -0.5000 
     95 CA         -6.1786  -24.4889  -51.6418 C.3       17 UNK         0.1400 
     96 CB         -5.0954  -24.8327  -52.6791 C.3       17 UNK        -0.1800 
     97 C          -6.3283  -22.9634  -51.4761 C.2       17 UNK         0.5000 
     98 O          -6.2740  -22.2306  -52.4652 O.2       17 UNK        -0.5000 
     99 N          -6.5161  -22.4923  -50.2342 N.am      18 UNK        -0.5000 
    100 CA        -6.6103  -21.0757  -49.8628 C.3       18 UNK         0.1400 
    101 CB        -6.6488  -20.9554  -48.3324 C.3       18 UNK        -0.1800 
    102 C         -7.7833  -20.3073  -50.5046 C.2       18 UNK         0.5000 
    103 O         -7.7177  -19.0819  -50.5961 O.2       18 UNK        -0.5000 
    104 N         -8.8128  -21.0323  -50.9647 N.am      19 UNK        -0.5000 
    105 CA        -9.9230  -20.4941  -51.7528 C.3       19 UNK         0.1400 
    106 CB       -11.0256  -21.5584  -51.8599 C.3       19 UNK        -0.1800 
    107 C         -9.4888  -20.0204  -53.1556 C.2       19 UNK         0.5000 
    108 O        -10.0610  -19.0589  -53.6704 O.2       19 UNK        -0.5000 
    109 N         -8.4844  -20.6901  -53.7392 N.am      20 UNK        -0.5000 
    110 CA        -7.8419  -20.2918  -54.9919 C.3       20 UNK         0.1400 
    111 CB        -7.3496  -21.5440  -55.7354 C.3       20 UNK        -0.1800 
    112 C         -6.6786  -19.3202  -54.7255 C.2       20 UNK         0.5000 
    113 O         -6.5316  -18.3421  -55.4596 O.2       20 UNK        -0.5000 
    114 N         -5.9089  -19.6054  -53.6629 N.am      21 UNK        -0.5000 
    115 CA        -4.7319  -18.8888  -53.1602 C.3       21 UNK         0.1400 
    116 CB        -5.0548  -17.4112  -52.8570 C.3       21 UNK        -0.1800 
    117 C         -3.4883  -19.0287  -54.0633 C.2       21 UNK         0.5000 
    118 O         -3.5856  -19.4225  -55.2276 O.2       21 UNK        -0.5000 
    119 N         -2.3242  -18.7119  -53.4855 N.am      22 UNK        -0.5000 
    120 CA        -1.0067  -18.7458  -54.1443 C.3       22 UNK         0.1400 
    121 C         -0.5843  -17.3964  -54.7983 C.2       22 UNK         0.5000 
    122 N         -1.3741  -16.3331  -54.7073 N.am      22 UNK        -0.7600 
    123 O          0.4726  -17.3164  -55.4182 O.2       22 UNK        -0.5000 
    124 C124        0.0908  -19.3162  -53.2037 C.3       23 UNK        -0.0398 
    125 S125        0.1749  -18.5000  -51.5680 S.3       23 UNK        -0.2404 
    126 C126        1.6713  -17.4671  -51.7358 C.3       23 UNK        -0.0205 
    127 H127        1.0187  -15.1223  -46.5461 H         1 UNK         0.0600 
    128 H128        1.6883  -14.6616  -48.1160 H         1 UNK         0.0600 
    129 H129        1.7339  -13.5222  -46.7718 H         1 UNK         0.0600 
    130 H130        2.3634  -16.7865  -45.8715 H         1 UNK         0.3000 
    131 H131        5.2894  -16.2650  -45.6455 H         1 UNK         0.0600 
    132 H132        4.8731  -19.1255  -45.9427 H         1 UNK         0.0800 
    133 H133        4.0315  -18.3722  -47.2475 H         1 UNK         0.0800 
    134 H134        5.3873  -16.1970  -48.6371 H         1 UNK         0.0800 
    135 H135        6.7540  -16.8685  -49.4876 H         1 UNK         0.0800 
    136 H136        3.5135  -16.3793  -50.0614 H         1 UNK         0.1150 
    137 H137        2.6653  -19.9982  -52.2002 H         1 UNK         0.1150 
    138 H138        6.1913  -19.7138  -49.7925 H         1 UNK         0.1150 
    139 H139        4.4248  -21.6972  -52.3826 H         1 UNK         0.0800 
    140 H140        5.9324  -21.4802  -51.5389 H         1 UNK         0.0800 
    141 H141        2.2630  -22.1849  -51.2927 H         1 UNK         0.0800 
    142 H142        2.5195  -23.8915  -51.0472 H         1 UNK         0.0800 
    143 H143        2.0272  -23.6443  -48.6151 H         1 UNK         0.0600 
    144 H144        2.3580  -20.9004  -49.0268 H         1 UNK         0.3000 
    145 H145        2.2211  -19.8545  -46.2576 H         1 UNK         0.0600 
    146 H146        1.6336  -17.8274  -47.7080 H         1 UNK         0.0600 
    147 H147        0.6428  -18.8553  -48.7193 H         1 UNK         0.0600 
    148 H148        2.3870  -19.0754  -48.6654 H         1 UNK         0.0600 
    149 H149       -0.6160  -20.1443  -46.3256 H         1 UNK         0.3000 
    150 H150       -2.0445  -19.0788  -44.9213 H         1 UNK         0.0600 
    151 H151       -1.3899  -17.5382  -43.1184 H         1 UNK         0.0600 
    152 H152       -2.8526  -16.9538  -43.8885 H         1 UNK         0.0600 
    153 H153       -1.3050  -16.1851  -44.2434 H         1 UNK         0.0600 
    154 H154       -2.5207  -16.6464  -46.3801 H         1 UNK         0.3000 
    155 H155       -2.4050  -17.8025  -49.6370 H         1 UNK         0.0600 
    156 H156       -4.8428  -17.3431  -49.8864 H         1 UNK         0.0600 
    157 H157       -5.0769  -17.5487  -48.1512 H         1 UNK         0.0600 
    158 H158       -4.5767  -18.9111  -49.1422 H         1 UNK         0.0600 
    159 H159       -3.6844  -15.5373  -48.3793 H         1 UNK         0.3000 
    160 H160       -0.8850  -13.4118  -48.8434 H         1 UNK         0.0600 
    161 H161       -3.9400  -13.4925  -48.5983 H         1 UNK         0.0600 
    162 H162       -3.0583  -13.4896  -50.1228 H         1 UNK         0.0600 
    163 H163       -2.9387  -12.1158  -49.0376 H         1 UNK         0.0600 
    164 H164       -1.0543  -12.7480  -46.7314 H         1 UNK         0.3000 
    165 H165       -2.5413  -12.0964  -44.8075 H         1 UNK         0.0600 
    166 H166       -3.2002  -14.6583  -43.2699 H         1 UNK         0.0600 
    167 H167       -3.2593  -13.0151  -42.6403 H         1 UNK         0.0600 
    168 H168       -4.3753  -13.5114  -43.9010 H         1 UNK         0.0600 
    169 H169       -0.8814  -13.9331  -43.3077 H         1 UNK         0.3000 
    170 H170        1.9129  -13.5401  -44.0862 H         1 UNK         0.0600 
    171 H171        2.5558  -11.2210  -44.6126 H         1 UNK         0.0600 
    172 H172        1.7410  -10.6224  -43.1729 H         1 UNK         0.0600 
    173 H173        3.1637  -11.6538  -43.0239 H         1 UNK         0.0600 
    174 H174        1.6268  -14.0436  -41.9734 H         1 UNK         0.3000 
    175 H175        0.2484  -12.5941  -39.1260 H         1 UNK         0.0600 
    176 H176       -1.1520  -14.8722  -40.6336 H         1 UNK         0.0600 
    177 H177       -1.2473  -14.5671  -38.8988 H         1 UNK         0.0600 
    178 H178       -1.9318  -13.4143  -40.0326 H         1 UNK         0.0600 
    179 H179        1.1171  -15.2749  -39.8131 H         1 UNK         0.3000 
    180 H180        4.5671  -14.7012  -39.5588 H         1 UNK         0.0600 
    181 H181        2.8377  -16.0419  -37.4114 H         1 UNK         0.0600 
    182 H182        4.0058  -14.7589  -37.1196 H         1 UNK         0.0600 
    183 H183        4.5569  -16.3252  -37.6896 H         1 UNK         0.0600 
    184 H184        3.2351  -17.1581  -39.6223 H         1 UNK         0.3000 
    185 H185        3.5384  -18.3372  -41.7121 H         1 UNK         0.0600 
    186 H186        1.2050  -18.1296  -40.8731 H         1 UNK         0.0600 
    187 H187        0.7532  -17.1741  -42.2794 H         1 UNK         0.0600 
    188 H188        1.1820  -18.8751  -42.4629 H         1 UNK         0.0600 
    189 H189        2.3308  -17.3184  -44.1502 H         1 UNK         0.3000 
    190 H190       -0.2760  -21.2993  -49.9695 H         1 UNK         0.3000 
    191 H191       -2.0616  -23.2154  -51.1316 H         1 UNK         0.0600 
    192 H192       -3.6679  -21.3277  -51.1777 H         1 UNK         0.0600 
    193 H193       -2.1032  -20.8715  -51.8188 H         1 UNK         0.0600 
    194 H194       -2.5746  -20.3459  -50.2030 H         1 UNK         0.0600 
    195 H195       -2.1081  -21.5369  -47.9234 H         1 UNK         0.3000 
    196 H196       -4.3554  -22.9214  -46.8863 H         1 UNK         0.0600 
    197 H197       -3.4584  -22.1668  -44.6621 H         1 UNK         0.0600 
    198 H198       -3.5224  -20.8690  -45.8397 H         1 UNK         0.0600 
    199 H199       -1.9783  -21.6345  -45.4495 H         1 UNK         0.0600 
    200 H200       -0.8857  -23.7755  -46.8520 H         1 UNK         0.3000 
    201 H201       -1.1080  -26.1085  -45.2344 H         1 UNK         0.0600 
    202 H202        1.0449  -24.9376  -45.7237 H         1 UNK         0.0600 
    203 H203        0.9514  -25.4546  -47.4060 H         1 UNK         0.0600 
    204 H204        1.1342  -26.6462  -46.1279 H         1 UNK         0.0600 
    205 H205       -1.3986  -25.6495  -48.7713 H         1 UNK         0.3000 
    206 H206       -1.8304  -28.4500  -49.3733 H         1 UNK         0.0600 
    207 H207       -0.7958  -26.8635  -50.9882 H         1 UNK         0.0600 
    208 H208       -2.2677  -27.5465  -51.6599 H         1 UNK         0.0600 
    209 H209       -2.2752  -25.9054  -51.0255 H         1 UNK         0.0600 
    210 H210       -3.8586  -26.0753  -48.0475 H         1 UNK         0.3000 
    211 H211       -6.0059  -25.7705  -47.6592 H         1 UNK         0.0600 
    212 H212       -6.5403  -28.6505  -48.5580 H         1 UNK         0.0600 
    213 H213       -7.6008  -27.6348  -47.5940 H         1 UNK         0.0600 
    214 H214       -6.0649  -28.1676  -46.9300 H         1 UNK         0.0600 
    215 H215       -4.9314  -24.8223  -49.9769 H         1 UNK         0.3000 
    216 H216       -7.1369  -24.8664  -52.0026 H         1 UNK         0.0600 
    217 H217       -5.3470  -24.4322  -53.6620 H         1 UNK         0.0600 
    218 H218       -4.9844  -25.9117  -52.7881 H         1 UNK         0.0600 
    219 H219       -4.1247  -24.4248  -52.3943 H         1 UNK         0.0600 
    220 H220       -6.5527  -23.1612  -49.4795 H         1 UNK         0.3000 
    221 H221       -5.6999  -20.5923  -50.2170 H         1 UNK         0.0600 
    222 H222       -7.4855  -21.5093  -47.9055 H         1 UNK         0.0600 
    223 H223       -5.7289  -21.3317  -47.8877 H         1 UNK         0.0600 
    224 H224       -6.7506  -19.9148  -48.0209 H         1 UNK         0.0600 
    225 H225       -8.7930  -22.0317  -50.8276 H         1 UNK         0.3000 
    226 H226      -10.3306  -19.6311  -51.2220 H         1 UNK         0.0600 
    227 H227      -11.3908  -21.8490  -50.8746 H         1 UNK         0.0600 
    228 H228      -11.8797  -21.1797  -52.4230 H         1 UNK         0.0600 
    229 H229      -10.6710  -22.4571  -52.3662 H         1 UNK         0.0600 
    230 H230       -8.0339  -21.4379  -53.2263 H         1 UNK         0.3000 
    231 H231       -8.5673  -19.7860  -55.6329 H         1 UNK         0.0600 
    232 H232       -6.8846  -21.2739  -56.6843 H         1 UNK         0.0600 
    233 H233       -8.1757  -22.2194  -55.9581 H         1 UNK         0.0600 
    234 H234       -6.6107  -22.0984  -55.1559 H         1 UNK         0.0600 
    235 H235       -6.0974  -20.4859  -53.1921 H         1 UNK         0.3000 
    236 H236       -4.4924  -19.3677  -52.2113 H         1 UNK         0.0600 
    237 H237       -5.9504  -17.3236  -52.2413 H         1 UNK         0.0600 
    238 H238       -4.2405  -16.9341  -52.3111 H         1 UNK         0.0600 
    239 H239       -5.2154  -16.8319  -53.7664 H         1 UNK         0.0600 
    240 H240       -2.3103  -18.3889  -52.5292 H         1 UNK         0.3000 
    241 H241       -1.0682  -19.4408  -54.9838 H         1 UNK         0.0600 
    242 H242       -2.2521  -16.3849  -54.2182 H         1 UNK         0.3800 
    243 H243       -1.0922  -15.4689  -55.1427 H         1 UNK         0.3800 
    244 H244       -0.1069  -20.3736  -53.0268 H         1 UNK         0.0800 
    245 H245        1.0665  -19.2905  -53.6909 H         1 UNK         0.0800 
    246 H246        1.4758  -16.5332  -51.2063 H         1 UNK         0.0800 
    247 H247        1.8307  -17.1940  -52.7794 H         1 UNK         0.0800 
@<TRIPOS>BOND
     1    1    2 1    
     2    1  127 1    
     3    1  128 1    
     4    1  129 1    
     5    2    3 2    
     6    2    4 am   BACKBONE|DICT|INTERRES
     7    4    5 1    
     8    4  130 1    
     9    5    6 1    
    10    5   65 1    
    11    5  131 1    
    12    6    7 1    
    13    6  132 1    
    14    6  133 1    
    15    7    8 1    
    16    8    9 1    
    17    8  134 1    
    18    8  135 1    
    19    9   10 ar   
    20    9   14 ar   
    21   10   11 ar   
    22   10  136 1    
    23   11   12 ar   
    24   11  126 1    
    25   12   13 ar   
    26   12  137 1    
    27   13   14 ar   
    28   13   15 1    
    29   14  138 1    
    30   15   16 1    
    31   15  139 1    
    32   15  140 1    
    33   16   17 1    
    34   17   18 1    
    35   17  141 1    
    36   17  142 1    
    37   18   19 1    
    38   18   67 1    
    39   18  143 1    
    40   19   20 am   BACKBONE|DICT|INTERRES
    41   19  144 1    
    42   20   21 2    
    43   20   22 1    
    44   22   23 1    
    45   22   24 1    
    46   22  145 1    
    47   23  146 1    
    48   23  147 1    
    49   23  148 1    
    50   24   25 am   BACKBONE|DICT|INTERRES
    51   24  149 1    
    52   25   26 2    
    53   25   27 1    
    54   27   28 1    
    55   27   29 1    
    56   27  150 1    
    57   28  151 1    
    58   28  152 1    
    59   28  153 1    
    60   29   30 am   BACKBONE|DICT|INTERRES
    61   29  154 1    
    62   30   31 2    
    63   30   32 1    
    64   32   33 1    
    65   32   34 1    
    66   32  155 1    
    67   33  156 1    
    68   33  157 1    
    69   33  158 1    
    70   34   35 am   BACKBONE|DICT|INTERRES
    71   34  159 1    
    72   35   36 2    
    73   35   37 1    
    74   37   38 1    
    75   37   39 1    
    76   37  160 1    
    77   38  161 1    
    78   38  162 1    
    79   38  163 1    
    80   39   40 am   BACKBONE|DICT|INTERRES
    81   39  164 1    
    82   40   41 2    
    83   40   42 1    
    84   42   43 1    
    85   42   44 1    
    86   42  165 1    
    87   43  166 1    
    88   43  167 1    
    89   43  168 1    
    90   44   45 am   BACKBONE|DICT|INTERRES
    91   44  169 1    
    92   45   46 2    
    93   45   47 1    
    94   47   48 1    
    95   47   49 1    
    96   47  170 1    
    97   48  171 1    
    98   48  172 1    
    99   48  173 1    
   100   49   50 am   BACKBONE|DICT|INTERRES
   101   49  174 1    
   102   50   51 2    
   103   50   52 1    
   104   52   53 1    
   105   52   54 1    
   106   52  175 1    
   107   53  176 1    
   108   53  177 1    
   109   53  178 1    
   110   54   55 am   BACKBONE|DICT|INTERRES
   111   54  179 1    
   112   55   56 2    
   113   55   57 1    
   114   57   58 1    
   115   57   59 1    
   116   57  180 1    
   117   58  181 1    
   118   58  182 1    
   119   58  183 1    
   120   59   60 am   BACKBONE|DICT|INTERRES
   121   59  184 1    
   122   60   61 2    
   123   60   62 1    
   124   62   63 1    
   125   62   64 1    
   126   62  185 1    
   127   63  186 1    
   128   63  187 1    
   129   63  188 1    
   130   64   65 am   BACKBONE|DICT|INTERRES
   131   64  189 1    
   132   65   66 2    
   133   67   68 2    
   134   67   69 am   BACKBONE|DICT|INTERRES
   135   69   70 1    
   136   69  190 1    
   137   70   71 1    
   138   70   72 1    
   139   70  191 1    
   140   71  192 1    
   141   71  193 1    
   142   71  194 1    
   143   72   73 2    
   144   72   74 am   BACKBONE|DICT|INTERRES
   145   74   75 1    
   146   74  195 1    
   147   75   76 1    
   148   75   77 1    
   149   75  196 1    
   150   76  197 1    
   151   76  198 1    
   152   76  199 1    
   153   77   78 2    
   154   77   79 am   BACKBONE|DICT|INTERRES
   155   79   80 1    
   156   79  200 1    
   157   80   81 1    
   158   80   82 1    
   159   80  201 1    
   160   81  202 1    
   161   81  203 1    
   162   81  204 1    
   163   82   83 2    
   164   82   84 am   BACKBONE|DICT|INTERRES
   165   84   85 1    
   166   84  205 1    
   167   85   86 1    
   168   85   87 1    
   169   85  206 1    
   170   86  207 1    
   171   86  208 1    
   172   86  209 1    
   173   87   88 2    
   174   87   89 am   BACKBONE|DICT|INTERRES
   175   89   90 1    
   176   89  210 1    
   177   90   91 1    
   178   90   92 1    
   179   90  211 1    
   180   91  212 1    
   181   91  213 1    
   182   91  214 1    
   183   92   93 2    
   184   92   94 am   BACKBONE|DICT|INTERRES
   185   94   95 1    
   186   94  215 1    
   187   95   96 1    
   188   95   97 1    
   189   95  216 1    
   190   96  217 1    
   191   96  218 1    
   192   96  219 1    
   193   97   98 2    
   194   97   99 am   BACKBONE|DICT|INTERRES
   195   99  100 1    
   196   99  220 1    
   197  100  101 1    
   198  100  102 1    
   199  100  221 1    
   200  101  222 1    
   201  101  223 1    
   202  101  224 1    
   203  102  103 2    
   204  102  104 am   BACKBONE|DICT|INTERRES
   205  104  105 1    
   206  104  225 1    
   207  105  106 1    
   208  105  107 1    
   209  105  226 1    
   210  106  227 1    
   211  106  228 1    
   212  106  229 1    
   213  107  108 2    
   214  107  109 am   BACKBONE|DICT|INTERRES
   215  109  110 1    
   216  109  230 1    
   217  110  111 1    
   218  110  112 1    
   219  110  231 1    
   220  111  232 1    
   221  111  233 1    
   222  111  234 1    
   223  112  113 2    
   224  112  114 am   BACKBONE|DICT|INTERRES
   225  114  115 1    
   226  114  235 1    
   227  115  116 1    
   228  115  117 1    
   229  115  236 1    
   230  116  237 1    
   231  116  238 1    
   232  116  239 1    
   233  117  118 2    
   234  117  119 am   BACKBONE|DICT|INTERRES
   235  119  120 1    
   236  119  240 1    
   237  120  121 1    
   238  120  124 1    
   239  120  241 1    
   240  121  122 am   BACKBONE|DICT|INTERRES
   241  121  123 2    
   242  122  242 1    
   243  122  243 1    
   244  124  125 1    
   245  124  244 1    
   246  124  245 1    
   247  125  126 1    
   248  126  246 1    
   249  126  247 1    
@<TRIPOS>SUBSTRUCTURE
     1 UNK         1 GROUP             0       ****    0 ROOT    
