@<TRIPOS>MOLECULE
3R540
247   249    1
SMALL
USER_CHARGES


@<TRIPOS>ATOM
      1 CA         -1.3044  -18.0014  -46.7108 C.3       0 UNK        -0.1800 
      2 C          -0.6829  -16.9809  -47.6424 C.2       0 UNK         0.5000 
      3 O          -0.5337  -15.8160  -47.2730 O.2       0 UNK        -0.5000 
      4 N          -0.3261  -17.4089  -48.8577 N.am      1 UNK        -0.5000 
      5 CA          0.1150  -16.5436  -49.9530 C.3       1 UNK         0.1400 
      6 C6          1.4479  -15.8013  -49.6308 C.3       23 UNK        -0.0398 
      7 S7          2.4194  -15.4647  -51.1377 S.3       23 UNK        -0.2404 
      8 C8          3.8586  -16.5760  -50.9310 C.3       23 UNK        -0.0205 
      9 C9          3.4822  -18.0189  -50.6051 C.ar      23 UNK        -0.0193 
     10 C10         2.5106  -18.6895  -51.3556 C.ar      23 UNK        -0.1150 
     11 C11         2.1221  -19.9864  -51.0160 C.ar      23 UNK        -0.0193 
     12 C12         2.7521  -20.6350  -49.9528 C.ar      23 UNK        -0.1150 
     13 C13         3.7339  -19.9867  -49.2004 C.ar      23 UNK        -0.0193 
     14 C14         4.0940  -18.6766  -49.5309 C.ar      23 UNK        -0.1150 
     15 C15         4.4030  -20.7122  -48.0390 C.3       23 UNK        -0.0205 
     16 S16         3.9068  -20.0851  -46.3967 S.3       23 UNK        -0.2404 
     17 C17         2.0827  -20.1108  -46.4511 C.3       23 UNK        -0.0398 
     18 CA          1.4616  -21.5196  -46.6028 C.3       11 UNK         0.1400 
     19 N           1.8317  -22.4519  -45.5374 N.am      11 UNK        -0.5000 
     20 C           1.6115  -23.7745  -45.5974 C.2       10 UNK         0.5000 
     21 O           1.1046  -24.3419  -46.5661 O.2       10 UNK        -0.5000 
     22 CA          1.9549  -24.5841  -44.3357 C.3       10 UNK         0.1400 
     23 CB          3.4553  -24.9074  -44.2889 C.3       10 UNK        -0.1800 
     24 N           1.5695  -23.8863  -43.1086 N.am      10 UNK        -0.5000 
     25 C           0.3201  -23.5463  -42.7707 C.2       9 UNK         0.5000 
     26 O          -0.6632  -23.8264  -43.4571 O.2       9 UNK        -0.5000 
     27 CA          0.1362  -22.7117  -41.4877 C.3       9 UNK         0.1400 
     28 CB          0.1673  -23.6017  -40.2317 C.3       9 UNK        -0.1800 
     29 N           1.0565  -21.5704  -41.3673 N.am      9 UNK        -0.5000 
     30 C           2.3901  -21.5660  -41.1998 C.2       8 UNK         0.5000 
     31 O           3.0725  -22.5887  -41.1270 O.2       8 UNK        -0.5000 
     32 CA          3.0982  -20.1972  -41.1397 C.3       8 UNK         0.1400 
     33 CB          3.8675  -19.9446  -42.4460 C.3       8 UNK        -0.1800 
     34 N           2.1817  -19.0805  -40.9006 N.am      8 UNK        -0.5000 
     35 C           1.6231  -18.8007  -39.7126 C.2       7 UNK         0.5000 
     36 O           1.8858  -19.4180  -38.6798 O.2       7 UNK        -0.5000 
     37 CA          0.5838  -17.6597  -39.6579 C.3       7 UNK         0.1400 
     38 CB          1.2173  -16.3854  -39.0788 C.3       7 UNK        -0.1800 
     39 N          -0.0274  -17.3346  -40.9486 N.am      7 UNK        -0.5000 
     40 C          -0.7544  -18.1698  -41.7036 C.2       6 UNK         0.5000 
     41 O          -1.0283  -19.3253  -41.3779 O.2       6 UNK        -0.5000 
     42 CA         -1.1911  -17.6501  -43.0870 C.3       6 UNK         0.1400 
     43 CB         -2.6199  -17.0924  -43.0218 C.3       6 UNK        -0.1800 
     44 N          -0.2944  -16.6506  -43.6838 N.am      6 UNK        -0.5000 
     45 C           1.0147  -16.8363  -43.9238 C.2       5 UNK         0.5000 
     46 O           1.6137  -17.8607  -43.5971 O.2       5 UNK        -0.5000 
     47 CA          1.7947  -15.7166  -44.6377 C.3       5 UNK         0.1400 
     48 CB          2.5722  -16.2665  -45.8467 C.3       5 UNK        -0.1800 
     49 N           0.9330  -14.6142  -45.0734 N.am      5 UNK        -0.5000 
     50 C           0.7347  -13.4911  -44.3701 C.2       4 UNK         0.5000 
     51 O           1.2365  -13.2870  -43.2639 O.2       4 UNK        -0.5000 
     52 CA         -0.1639  -12.4021  -44.9900 C.3       4 UNK         0.1400 
     53 CB          0.6991  -11.3317  -45.6760 C.3       4 UNK        -0.1800 
     54 N          -1.1613  -12.8810  -45.9490 N.am      4 UNK        -0.5000 
     55 C          -2.1908  -13.6918  -45.6658 C.2       3 UNK         0.5000 
     56 O          -2.3547  -14.2216  -44.5671 O.2       3 UNK        -0.5000 
     57 CA         -3.2018  -13.9540  -46.7986 C.3       3 UNK         0.1400 
     58 CB         -4.4255  -13.0374  -46.5858 C.3       3 UNK        -0.1800 
     59 N          -2.5441  -13.8013  -48.1093 N.am      3 UNK        -0.5000 
     60 C          -2.9996  -13.3317  -49.2836 C.2       2 UNK         0.5000 
     61 O          -4.1284  -12.8806  -49.4734 O.2       2 UNK        -0.5000 
     62 CA         -2.0115  -13.3573  -50.4720 C.3       2 UNK         0.1400 
     63 CB         -1.4057  -11.9627  -50.6936 C.3       2 UNK        -0.1800 
     64 N          -0.9211  -14.3201  -50.3030 N.am      2 UNK        -0.5000 
     65 C          -1.0717  -15.6486  -50.3787 C.2       1 UNK         0.5000 
     66 O          -2.1262  -16.1905  -50.7140 O.2       1 UNK        -0.5000 
     67 C          -0.0652  -21.4114  -46.7635 C.2       11 UNK         0.5000 
     68 O          -0.5275  -21.3058  -47.8954 O.2       11 UNK        -0.5000 
     69 N          -0.8232  -21.4634  -45.6554 N.am      12 UNK        -0.5000 
     70 CA         -2.2905  -21.4442  -45.6648 C.3       12 UNK         0.1400 
     71 CB         -2.8398  -21.2776  -44.2396 C.3       12 UNK        -0.1800 
     72 C          -2.8839  -22.6919  -46.3349 C.2       12 UNK         0.5000 
     73 O          -3.8123  -22.5650  -47.1348 O.2       12 UNK        -0.5000 
     74 N          -2.3063  -23.8609  -46.0271 N.am      13 UNK        -0.5000 
     75 CA         -2.6528  -25.1422  -46.6380 C.3       13 UNK         0.1400 
     76 CB         -1.9269  -26.2758  -45.8973 C.3       13 UNK        -0.1800 
     77 C          -2.3422  -25.1737  -48.1457 C.2       13 UNK         0.5000 
     78 O          -3.2023  -25.5694  -48.9329 O.2       13 UNK        -0.5000 
     79 N          -1.1371  -24.7214  -48.5212 N.am      14 UNK        -0.5000 
     80 CA         -0.6733  -24.6426  -49.9084 C.3       14 UNK         0.1400 
     81 CB          0.8225  -24.2978  -49.9191 C.3       14 UNK        -0.1800 
     82 C          -1.4648  -23.6330  -50.7609 C.2       14 UNK         0.5000 
     83 O          -1.7673  -23.9173  -51.9198 O.2       14 UNK        -0.5000 
     84 N          -1.7948  -22.4776  -50.1689 N.am      15 UNK        -0.5000 
     85 CA         -2.5316  -21.3891  -50.8102 C.3       15 UNK         0.1400 
     86 CB         -2.2619  -20.0922  -50.0342 C.3       15 UNK        -0.1800 
     87 C          -4.0475  -21.6266  -50.8864 C.2       15 UNK         0.5000 
     88 O          -4.7349  -20.8151  -51.5107 O.2       15 UNK        -0.5000 
     89 N          -4.5434  -22.6756  -50.2142 N.am      16 UNK        -0.5000 
     90 CA         -5.9554  -23.0214  -50.0297 C.3       16 UNK         0.1400 
     91 CB         -6.5899  -23.4485  -51.3703 C.3       16 UNK        -0.1800 
     92 C          -6.7241  -21.8829  -49.3293 C.2       16 UNK         0.5000 
     93 O          -7.7621  -21.4405  -49.8199 O.2       16 UNK        -0.5000 
     94 N          -6.1478  -21.3779  -48.2277 N.am      17 UNK        -0.5000 
     95 CA         -6.5970  -20.2108  -47.4569 C.3       17 UNK         0.1400 
     96 CB         -7.9258  -20.5114  -46.7331 C.3       17 UNK        -0.1800 
     97 C          -6.6447  -18.9179  -48.3041 C.2       17 UNK         0.5000 
     98 O          -7.5529  -18.1015  -48.1445 O.2       17 UNK        -0.5000 
     99 N          -5.6581  -18.7809  -49.2029 N.am      18 UNK        -0.5000 
    100 CA        -5.4649  -17.7017  -50.1788 C.3       18 UNK         0.1400 
    101 CB        -5.3283  -16.3281  -49.4895 C.3       18 UNK        -0.1800 
    102 C         -6.4819  -17.7006  -51.3404 C.2       18 UNK         0.5000 
    103 O         -6.5538  -16.7121  -52.0718 O.2       18 UNK        -0.5000 
    104 N         -7.2234  -18.8032  -51.5312 N.am      19 UNK        -0.5000 
    105 CA        -8.1208  -18.9885  -52.6741 C.3       19 UNK         0.1400 
    106 CB        -9.1513  -20.0833  -52.3619 C.3       19 UNK        -0.1800 
    107 C         -7.3517  -19.3260  -53.9646 C.2       19 UNK         0.5000 
    108 O         -7.7254  -18.8414  -55.0335 O.2       19 UNK        -0.5000 
    109 N         -6.2928  -20.1386  -53.8423 N.am      20 UNK        -0.5000 
    110 CA        -5.3911  -20.4947  -54.9390 C.3       20 UNK         0.1400 
    111 CB        -4.9657  -21.9647  -54.7946 C.3       20 UNK        -0.1800 
    112 C         -4.1587  -19.5760  -54.9588 C.2       20 UNK         0.5000 
    113 O         -3.6632  -19.2455  -56.0374 O.2       20 UNK        -0.5000 
    114 N         -3.6819  -19.1891  -53.7638 N.am      21 UNK        -0.5000 
    115 CA        -2.5990  -18.2286  -53.5015 C.3       21 UNK         0.1400 
    116 CB        -3.0420  -16.8103  -53.9153 C.3       21 UNK        -0.1800 
    117 C         -1.2234  -18.6055  -54.0987 C.2       21 UNK         0.5000 
    118 O         -0.3500  -17.7426  -54.1917 O.2       21 UNK        -0.5000 
    119 N         -1.0518  -19.8776  -54.4911 N.am      22 UNK        -0.5000 
    120 CA         0.0789  -20.3930  -55.2878 C.3       22 UNK         0.1400 
    121 C          0.1627  -19.7789  -56.7228 C.2       22 UNK         0.5000 
    122 N         -0.9256  -19.2588  -57.2816 N.am      22 UNK        -0.7600 
    123 O          1.2132  -19.7999  -57.3588 O.2       22 UNK        -0.5000 
    124 C124        1.4368  -20.3782  -54.5216 C.3       23 UNK        -0.0398 
    125 S125        1.4928  -21.6228  -53.1871 S.3       23 UNK        -0.2404 
    126 C126        0.9709  -20.6650  -51.7365 C.3       23 UNK        -0.0205 
    127 H127       -0.5444  -18.4285  -46.0593 H         1 UNK         0.0600 
    128 H128       -2.0737  -17.5340  -46.0979 H         1 UNK         0.0600 
    129 H129       -1.7693  -18.8020  -47.2808 H         1 UNK         0.0600 
    130 H130       -0.4783  -18.3756  -49.1032 H         1 UNK         0.3000 
    131 H131        0.2832  -17.2162  -50.7936 H         1 UNK         0.0600 
    132 H132        1.2961  -14.8773  -49.0723 H         1 UNK         0.0800 
    133 H133        2.0561  -16.4165  -48.9678 H         1 UNK         0.0800 
    134 H134        4.4995  -16.1632  -50.1503 H         1 UNK         0.0800 
    135 H135        4.4466  -16.5655  -51.8494 H         1 UNK         0.0800 
    136 H136        2.0250  -18.1820  -52.1770 H         1 UNK         0.1150 
    137 H137        2.4652  -21.6450  -49.7047 H         1 UNK         0.1150 
    138 H138        4.8460  -18.1694  -48.9429 H         1 UNK         0.1150 
    139 H139        4.1992  -21.7830  -48.0849 H         1 UNK         0.0800 
    140 H140        5.4849  -20.6119  -48.1357 H         1 UNK         0.0800 
    141 H141        1.7225  -19.6402  -45.5358 H         1 UNK         0.0800 
    142 H142        1.7640  -19.4581  -47.2663 H         1 UNK         0.0800 
    143 H143        1.8341  -21.9465  -47.5334 H         1 UNK         0.0600 
    144 H144        2.2677  -22.0629  -44.7151 H         1 UNK         0.3000 
    145 H145        1.3990  -25.5229  -44.3791 H         1 UNK         0.0600 
    146 H146        3.6938  -25.5442  -43.4368 H         1 UNK         0.0600 
    147 H147        3.7689  -25.4379  -45.1890 H         1 UNK         0.0600 
    148 H148        4.0610  -24.0036  -44.2109 H         1 UNK         0.0600 
    149 H149        2.3145  -23.6037  -42.4762 H         1 UNK         0.3000 
    150 H150       -0.8608  -22.2720  -41.5462 H         1 UNK         0.0600 
    151 H151       -0.5978  -24.3770  -40.2875 H         1 UNK         0.0600 
    152 H152       -0.0265  -23.0178  -39.3319 H         1 UNK         0.0600 
    153 H153        1.1275  -24.1026  -40.1062 H         1 UNK         0.0600 
    154 H154        0.5962  -20.6676  -41.4107 H         1 UNK         0.3000 
    155 H155        3.8209  -20.2351  -40.3220 H         1 UNK         0.0600 
    156 H156        4.6293  -20.7086  -42.6063 H         1 UNK         0.0600 
    157 H157        4.3741  -18.9795  -42.4286 H         1 UNK         0.0600 
    158 H158        3.2057  -19.9592  -43.3120 H         1 UNK         0.0600 
    159 H159        1.9181  -18.5354  -41.7158 H         1 UNK         0.3000 
    160 H160       -0.2147  -17.9822  -38.9868 H         1 UNK         0.0600 
    161 H161        2.0071  -16.0005  -39.7253 H         1 UNK         0.0600 
    162 H162        0.4744  -15.5981  -38.9494 H         1 UNK         0.0600 
    163 H163        1.6586  -16.5771  -38.0998 H         1 UNK         0.0600 
    164 H164        0.1575  -16.4118  -41.3137 H         1 UNK         0.3000 
    165 H165       -1.1909  -18.5094  -43.7571 H         1 UNK         0.0600 
    166 H166       -2.9965  -16.8441  -44.0134 H         1 UNK         0.0600 
    167 H167       -3.3070  -17.8218  -42.5905 H         1 UNK         0.0600 
    168 H168       -2.6698  -16.1906  -42.4105 H         1 UNK         0.0600 
    169 H169       -0.7209  -15.7810  -43.9788 H         1 UNK         0.3000 
    170 H170        2.5331  -15.3462  -43.9239 H         1 UNK         0.0600 
    171 H171        3.3344  -16.9784  -45.5271 H         1 UNK         0.0600 
    172 H172        1.9239  -16.7879  -46.5477 H         1 UNK         0.0600 
    173 H173        3.0820  -15.4695  -46.3879 H         1 UNK         0.0600 
    174 H174        0.4319  -14.7546  -45.9463 H         1 UNK         0.3000 
    175 H175       -0.7034  -11.9271  -44.1680 H         1 UNK         0.0600 
    176 H176        1.2391  -11.7395  -46.5315 H         1 UNK         0.0600 
    177 H177        0.0905  -10.4984  -46.0278 H         1 UNK         0.0600 
    178 H178        1.4383  -10.9222  -44.9861 H         1 UNK         0.0600 
    179 H179       -1.1170  -12.4836  -46.8752 H         1 UNK         0.3000 
    180 H180       -3.5214  -14.9937  -46.7143 H         1 UNK         0.0600 
    181 H181       -4.7849  -13.0923  -45.5571 H         1 UNK         0.0600 
    182 H182       -4.1904  -11.9931  -46.7939 H         1 UNK         0.0600 
    183 H183       -5.2608  -13.3347  -47.2194 H         1 UNK         0.0600 
    184 H184       -1.6178  -14.2140  -48.1207 H         1 UNK         0.3000 
    185 H185       -2.5781  -13.6300  -51.3652 H         1 UNK         0.0600 
    186 H186       -2.1867  -11.2185  -50.8556 H         1 UNK         0.0600 
    187 H187       -0.8159  -11.6377  -49.8355 H         1 UNK         0.0600 
    188 H188       -0.7591  -11.9484  -51.5712 H         1 UNK         0.0600 
    189 H189       -0.0201  -13.9411  -50.0519 H         1 UNK         0.3000 
    190 H190       -0.3762  -21.6106  -44.7635 H         1 UNK         0.3000 
    191 H191       -2.6183  -20.5828  -46.2460 H         1 UNK         0.0600 
    192 H192       -3.9253  -21.1721  -44.2555 H         1 UNK         0.0600 
    193 H193       -2.4389  -20.3907  -43.7542 H         1 UNK         0.0600 
    194 H194       -2.6100  -22.1343  -43.6074 H         1 UNK         0.0600 
    195 H195       -1.5738  -23.8700  -45.3253 H         1 UNK         0.3000 
    196 H196       -3.7278  -25.2908  -46.5158 H         1 UNK         0.0600 
    197 H197       -2.1886  -27.2474  -46.3180 H         1 UNK         0.0600 
    198 H198       -2.1995  -26.2932  -44.8418 H         1 UNK         0.0600 
    199 H199       -0.8433  -26.1719  -45.9587 H         1 UNK         0.0600 
    200 H200       -0.4732  -24.4446  -47.8043 H         1 UNK         0.3000 
    201 H201       -0.7990  -25.6277  -50.3623 H         1 UNK         0.0600 
    202 H202        1.4097  -25.0763  -49.4318 H         1 UNK         0.0600 
    203 H203        1.0132  -23.3619  -49.3961 H         1 UNK         0.0600 
    204 H204        1.1983  -24.1922  -50.9378 H         1 UNK         0.0600 
    205 H205       -1.4604  -22.2932  -49.2265 H         1 UNK         0.3000 
    206 H206       -2.1648  -21.2667  -51.8312 H         1 UNK         0.0600 
    207 H207       -1.1973  -19.8720  -49.9902 H         1 UNK         0.0600 
    208 H208       -2.7435  -19.2362  -50.4969 H         1 UNK         0.0600 
    209 H209       -2.6375  -20.1589  -49.0129 H         1 UNK         0.0600 
    210 H210       -3.8867  -23.2547  -49.7079 H         1 UNK         0.3000 
    211 H211       -5.9827  -23.8791  -49.3561 H         1 UNK         0.0600 
    212 H212       -6.6319  -22.6262  -52.0845 H         1 UNK         0.0600 
    213 H213       -7.6105  -23.8031  -51.2222 H         1 UNK         0.0600 
    214 H214       -6.0268  -24.2606  -51.8299 H         1 UNK         0.0600 
    215 H215       -5.2897  -21.8182  -47.8969 H         1 UNK         0.3000 
    216 H216       -5.8379  -20.0426  -46.6916 H         1 UNK         0.0600 
    217 H217       -7.8521  -21.4212  -46.1373 H         1 UNK         0.0600 
    218 H218       -8.7513  -20.6354  -47.4346 H         1 UNK         0.0600 
    219 H219       -8.1932  -19.7009  -46.0543 H         1 UNK         0.0600 
    220 H220       -5.0056  -19.5465  -49.2801 H         1 UNK         0.3000 
    221 H221       -4.5072  -17.9004  -50.6566 H         1 UNK         0.0600 
    222 H222       -6.2663  -15.9936  -49.0469 H         1 UNK         0.0600 
    223 H223       -4.5721  -16.3542  -48.7049 H         1 UNK         0.0600 
    224 H224       -5.0180  -15.5652  -50.2042 H         1 UNK         0.0600 
    225 H225       -7.1309  -19.5830  -50.8915 H         1 UNK         0.3000 
    226 H226       -8.6669  -18.0575  -52.8405 H         1 UNK         0.0600 
    227 H227       -9.6845  -19.8731  -51.4345 H         1 UNK         0.0600 
    228 H228       -9.8943  -20.1541  -53.1571 H         1 UNK         0.0600 
    229 H229       -8.6839  -21.0636  -52.2667 H         1 UNK         0.0600 
    230 H230       -6.0275  -20.4624  -52.9174 H         1 UNK         0.3000 
    231 H231       -5.9045  -20.3878  -55.8968 H         1 UNK         0.0600 
    232 H232       -4.4138  -22.1444  -53.8721 H         1 UNK         0.0600 
    233 H233       -5.8324  -22.6258  -54.7975 H         1 UNK         0.0600 
    234 H234       -4.3241  -22.2669  -55.6233 H         1 UNK         0.0600 
    235 H235       -4.1400  -19.5691  -52.9428 H         1 UNK         0.3000 
    236 H236       -2.4532  -18.2157  -52.4243 H         1 UNK         0.0600 
    237 H237       -3.9912  -16.5445  -53.4497 H         1 UNK         0.0600 
    238 H238       -2.3132  -16.0621  -53.6014 H         1 UNK         0.0600 
    239 H239       -3.1594  -16.7214  -54.9955 H         1 UNK         0.0600 
    240 H240       -1.8291  -20.5110  -54.3833 H         1 UNK         0.3000 
    241 H241       -0.1620  -21.4391  -55.4803 H         1 UNK         0.0600 
    242 H242       -0.8663  -18.8756  -58.2116 H         1 UNK         0.3800 
    243 H243       -1.8156  -19.2472  -56.7930 H         1 UNK         0.3800 
    244 H244        1.6689  -19.3873  -54.1344 H         1 UNK         0.0800 
    245 H245        2.2602  -20.6293  -55.1913 H         1 UNK         0.0800 
    246 H246        0.2178  -19.9303  -52.0147 H         1 UNK         0.0800 
    247 H247        0.4819  -21.3486  -51.0453 H         1 UNK         0.0800 
@<TRIPOS>BOND
     1    1    2 1    
     2    1  127 1    
     3    1  128 1    
     4    1  129 1    
     5    2    3 2    
     6    2    4 am   BACKBONE|DICT|INTERRES
     7    4    5 1    
     8    4  130 1    
     9    5    6 1    
    10    5   65 1    
    11    5  131 1    
    12    6    7 1    
    13    6  132 1    
    14    6  133 1    
    15    7    8 1    
    16    8    9 1    
    17    8  134 1    
    18    8  135 1    
    19    9   10 ar   
    20    9   14 ar   
    21   10   11 ar   
    22   10  136 1    
    23   11   12 ar   
    24   11  126 1    
    25   12   13 ar   
    26   12  137 1    
    27   13   14 ar   
    28   13   15 1    
    29   14  138 1    
    30   15   16 1    
    31   15  139 1    
    32   15  140 1    
    33   16   17 1    
    34   17   18 1    
    35   17  141 1    
    36   17  142 1    
    37   18   19 1    
    38   18   67 1    
    39   18  143 1    
    40   19   20 am   BACKBONE|DICT|INTERRES
    41   19  144 1    
    42   20   21 2    
    43   20   22 1    
    44   22   23 1    
    45   22   24 1    
    46   22  145 1    
    47   23  146 1    
    48   23  147 1    
    49   23  148 1    
    50   24   25 am   BACKBONE|DICT|INTERRES
    51   24  149 1    
    52   25   26 2    
    53   25   27 1    
    54   27   28 1    
    55   27   29 1    
    56   27  150 1    
    57   28  151 1    
    58   28  152 1    
    59   28  153 1    
    60   29   30 am   BACKBONE|DICT|INTERRES
    61   29  154 1    
    62   30   31 2    
    63   30   32 1    
    64   32   33 1    
    65   32   34 1    
    66   32  155 1    
    67   33  156 1    
    68   33  157 1    
    69   33  158 1    
    70   34   35 am   BACKBONE|DICT|INTERRES
    71   34  159 1    
    72   35   36 2    
    73   35   37 1    
    74   37   38 1    
    75   37   39 1    
    76   37  160 1    
    77   38  161 1    
    78   38  162 1    
    79   38  163 1    
    80   39   40 am   BACKBONE|DICT|INTERRES
    81   39  164 1    
    82   40   41 2    
    83   40   42 1    
    84   42   43 1    
    85   42   44 1    
    86   42  165 1    
    87   43  166 1    
    88   43  167 1    
    89   43  168 1    
    90   44   45 am   BACKBONE|DICT|INTERRES
    91   44  169 1    
    92   45   46 2    
    93   45   47 1    
    94   47   48 1    
    95   47   49 1    
    96   47  170 1    
    97   48  171 1    
    98   48  172 1    
    99   48  173 1    
   100   49   50 am   BACKBONE|DICT|INTERRES
   101   49  174 1    
   102   50   51 2    
   103   50   52 1    
   104   52   53 1    
   105   52   54 1    
   106   52  175 1    
   107   53  176 1    
   108   53  177 1    
   109   53  178 1    
   110   54   55 am   BACKBONE|DICT|INTERRES
   111   54  179 1    
   112   55   56 2    
   113   55   57 1    
   114   57   58 1    
   115   57   59 1    
   116   57  180 1    
   117   58  181 1    
   118   58  182 1    
   119   58  183 1    
   120   59   60 am   BACKBONE|DICT|INTERRES
   121   59  184 1    
   122   60   61 2    
   123   60   62 1    
   124   62   63 1    
   125   62   64 1    
   126   62  185 1    
   127   63  186 1    
   128   63  187 1    
   129   63  188 1    
   130   64   65 am   BACKBONE|DICT|INTERRES
   131   64  189 1    
   132   65   66 2    
   133   67   68 2    
   134   67   69 am   BACKBONE|DICT|INTERRES
   135   69   70 1    
   136   69  190 1    
   137   70   71 1    
   138   70   72 1    
   139   70  191 1    
   140   71  192 1    
   141   71  193 1    
   142   71  194 1    
   143   72   73 2    
   144   72   74 am   BACKBONE|DICT|INTERRES
   145   74   75 1    
   146   74  195 1    
   147   75   76 1    
   148   75   77 1    
   149   75  196 1    
   150   76  197 1    
   151   76  198 1    
   152   76  199 1    
   153   77   78 2    
   154   77   79 am   BACKBONE|DICT|INTERRES
   155   79   80 1    
   156   79  200 1    
   157   80   81 1    
   158   80   82 1    
   159   80  201 1    
   160   81  202 1    
   161   81  203 1    
   162   81  204 1    
   163   82   83 2    
   164   82   84 am   BACKBONE|DICT|INTERRES
   165   84   85 1    
   166   84  205 1    
   167   85   86 1    
   168   85   87 1    
   169   85  206 1    
   170   86  207 1    
   171   86  208 1    
   172   86  209 1    
   173   87   88 2    
   174   87   89 am   BACKBONE|DICT|INTERRES
   175   89   90 1    
   176   89  210 1    
   177   90   91 1    
   178   90   92 1    
   179   90  211 1    
   180   91  212 1    
   181   91  213 1    
   182   91  214 1    
   183   92   93 2    
   184   92   94 am   BACKBONE|DICT|INTERRES
   185   94   95 1    
   186   94  215 1    
   187   95   96 1    
   188   95   97 1    
   189   95  216 1    
   190   96  217 1    
   191   96  218 1    
   192   96  219 1    
   193   97   98 2    
   194   97   99 am   BACKBONE|DICT|INTERRES
   195   99  100 1    
   196   99  220 1    
   197  100  101 1    
   198  100  102 1    
   199  100  221 1    
   200  101  222 1    
   201  101  223 1    
   202  101  224 1    
   203  102  103 2    
   204  102  104 am   BACKBONE|DICT|INTERRES
   205  104  105 1    
   206  104  225 1    
   207  105  106 1    
   208  105  107 1    
   209  105  226 1    
   210  106  227 1    
   211  106  228 1    
   212  106  229 1    
   213  107  108 2    
   214  107  109 am   BACKBONE|DICT|INTERRES
   215  109  110 1    
   216  109  230 1    
   217  110  111 1    
   218  110  112 1    
   219  110  231 1    
   220  111  232 1    
   221  111  233 1    
   222  111  234 1    
   223  112  113 2    
   224  112  114 am   BACKBONE|DICT|INTERRES
   225  114  115 1    
   226  114  235 1    
   227  115  116 1    
   228  115  117 1    
   229  115  236 1    
   230  116  237 1    
   231  116  238 1    
   232  116  239 1    
   233  117  118 2    
   234  117  119 am   BACKBONE|DICT|INTERRES
   235  119  120 1    
   236  119  240 1    
   237  120  121 1    
   238  120  124 1    
   239  120  241 1    
   240  121  122 am   BACKBONE|DICT|INTERRES
   241  121  123 2    
   242  122  242 1    
   243  122  243 1    
   244  124  125 1    
   245  124  244 1    
   246  124  245 1    
   247  125  126 1    
   248  126  246 1    
   249  126  247 1    
@<TRIPOS>SUBSTRUCTURE
     1 UNK         1 GROUP             0       ****    0 ROOT    
