@<TRIPOS>MOLECULE
3R540
247   249    1
SMALL
USER_CHARGES


@<TRIPOS>ATOM
      1 CA         -6.0814  -18.4172  -48.3493 C.3       0 UNK        -0.1800 
      2 C          -5.2454  -17.3534  -49.0462 C.2       0 UNK         0.5000 
      3 O          -5.6169  -16.9002  -50.1277 O.2       0 UNK        -0.5000 
      4 N          -4.1157  -16.9667  -48.4356 N.am      1 UNK        -0.5000 
      5 CA         -3.2200  -15.9172  -48.9331 C.3       1 UNK         0.1400 
      6 C6         -1.7754  -16.0474  -48.3780 C.3       23 UNK        -0.0398 
      7 S7         -0.5923  -14.9182  -49.1845 S.3       23 UNK        -0.2404 
      8 C8          0.9458  -15.8984  -49.1499 C.3       23 UNK        -0.0205 
      9 C9          0.9564  -17.0750  -50.1209 C.ar      23 UNK        -0.0193 
     10 C10         0.4845  -16.9327  -51.4305 C.ar      23 UNK        -0.1150 
     11 C11         0.5097  -18.0107  -52.3182 C.ar      23 UNK        -0.0193 
     12 C12         1.0370  -19.2347  -51.8979 C.ar      23 UNK        -0.1150 
     13 C13         1.5211  -19.3911  -50.5960 C.ar      23 UNK        -0.0193 
     14 C14         1.4788  -18.3071  -49.7132 C.ar      23 UNK        -0.1150 
     15 C15         2.1043  -20.7270  -50.1580 C.3       23 UNK        -0.0205 
     16 S16         0.8357  -21.8387  -49.4722 S.3       23 UNK        -0.2404 
     17 C17         0.7680  -21.2695  -47.7430 C.3       23 UNK        -0.0398 
     18 CA         -0.2355  -22.0716  -46.8759 C.3       11 UNK         0.1400 
     19 N           0.1705  -22.0886  -45.4661 N.am      11 UNK        -0.5000 
     20 C          -0.4357  -22.7775  -44.4880 C.2       10 UNK         0.5000 
     21 O          -1.3879  -23.5350  -44.6703 O.2       10 UNK        -0.5000 
     22 CA          0.0601  -22.5181  -43.0530 C.3       10 UNK         0.1400 
     23 CB          1.3276  -23.3283  -42.7447 C.3       10 UNK        -0.1800 
     24 N           0.3001  -21.0956  -42.8005 N.am      10 UNK        -0.5000 
     25 C          -0.6576  -20.1575  -42.8306 C.2       9 UNK         0.5000 
     26 O          -1.8471  -20.4080  -43.0076 O.2       9 UNK        -0.5000 
     27 CA         -0.2193  -18.6938  -42.6768 C.3       9 UNK         0.1400 
     28 CB         -0.0927  -18.3433  -41.1886 C.3       9 UNK        -0.1800 
     29 N           1.0305  -18.4153  -43.3871 N.am      9 UNK        -0.5000 
     30 C           1.1532  -18.4155  -44.7234 C.2       8 UNK         0.5000 
     31 O           0.2055  -18.5710  -45.4952 O.2       8 UNK        -0.5000 
     32 CA          2.5809  -18.3054  -45.2953 C.3       8 UNK         0.1400 
     33 CB          3.0294  -16.8507  -45.4828 C.3       8 UNK        -0.1800 
     34 N           3.5641  -19.0126  -44.4751 N.am      8 UNK        -0.5000 
     35 C           3.6436  -20.3472  -44.4108 C.2       7 UNK         0.5000 
     36 O           2.8823  -21.1027  -45.0141 O.2       7 UNK        -0.5000 
     37 CA          4.7378  -20.9388  -43.5073 C.3       7 UNK         0.1400 
     38 CB          6.0748  -21.0118  -44.2596 C.3       7 UNK        -0.1800 
     39 N           4.9313  -20.2238  -42.2429 N.am      7 UNK        -0.5000 
     40 C           4.0019  -20.1024  -41.2845 C.2       6 UNK         0.5000 
     41 O           2.8220  -20.4217  -41.4278 O.2       6 UNK        -0.5000 
     42 CA          4.4740  -19.5314  -39.9389 C.3       6 UNK         0.1400 
     43 CB          5.4939  -20.4700  -39.2734 C.3       6 UNK        -0.1800 
     44 N           5.0775  -18.2065  -40.1057 N.am      6 UNK        -0.5000 
     45 C           4.4978  -17.0105  -39.9238 C.2       5 UNK         0.5000 
     46 O           5.1331  -15.9676  -40.0859 O.2       5 UNK        -0.5000 
     47 CA          3.0278  -16.9304  -39.4441 C.3       5 UNK         0.1400 
     48 CB          2.9503  -17.0660  -37.9133 C.3       5 UNK        -0.1800 
     49 N           2.3599  -15.6837  -39.8195 N.am      5 UNK        -0.5000 
     50 C           2.1176  -15.2770  -41.0711 C.2       4 UNK         0.5000 
     51 O           2.4310  -15.9233  -42.0731 O.2       4 UNK        -0.5000 
     52 CA          1.4087  -13.9141  -41.1995 C.3       4 UNK         0.1400 
     53 CB          2.3760  -12.7691  -40.8551 C.3       4 UNK        -0.1800 
     54 N           0.8680  -13.6696  -42.5362 N.am      4 UNK        -0.5000 
     55 C          -0.2006  -14.2691  -43.0753 C.2       3 UNK         0.5000 
     56 O          -0.9000  -15.1053  -42.4979 O.2       3 UNK        -0.5000 
     57 CA         -0.5409  -13.8350  -44.5083 C.3       3 UNK         0.1400 
     58 CB          0.4989  -14.3587  -45.5132 C.3       3 UNK        -0.1800 
     59 N          -1.8632  -14.3159  -44.9029 N.am      3 UNK        -0.5000 
     60 C          -2.6348  -13.7205  -45.8177 C.2       2 UNK         0.5000 
     61 O          -2.3665  -12.6300  -46.3287 O.2       2 UNK        -0.5000 
     62 CA         -3.9050  -14.4769  -46.2546 C.3       2 UNK         0.1400 
     63 CB         -5.0668  -14.1812  -45.2950 C.3       2 UNK        -0.1800 
     64 N          -4.2877  -14.0477  -47.6016 N.am      2 UNK        -0.5000 
     65 C          -3.8674  -14.5122  -48.7909 C.2       1 UNK         0.5000 
     66 O          -4.0637  -13.8565  -49.8134 O.2       1 UNK        -0.5000 
     67 C          -1.6782  -21.5494  -47.0561 C.2       11 UNK         0.5000 
     68 O          -2.4459  -22.1187  -47.8353 O.2       11 UNK        -0.5000 
     69 N          -2.0276  -20.4924  -46.3084 N.am      12 UNK        -0.5000 
     70 CA         -3.3714  -19.9249  -46.2528 C.3       12 UNK         0.1400 
     71 CB         -3.3281  -18.5609  -45.5431 C.3       12 UNK        -0.1800 
     72 C          -4.3879  -20.8738  -45.5933 C.2       12 UNK         0.5000 
     73 O          -5.4432  -21.1216  -46.1749 O.2       12 UNK        -0.5000 
     74 N          -4.0436  -21.4075  -44.4137 N.am      13 UNK        -0.5000 
     75 CA         -4.8778  -22.3097  -43.6145 C.3       13 UNK         0.1400 
     76 CB         -4.2037  -22.5595  -42.2571 C.3       13 UNK        -0.1800 
     77 C          -5.1892  -23.6450  -44.3137 C.2       13 UNK         0.5000 
     78 O          -6.3053  -24.1503  -44.1892 O.2       13 UNK        -0.5000 
     79 N          -4.2124  -24.1746  -45.0614 N.am      14 UNK        -0.5000 
     80 CA         -4.3537  -25.3726  -45.8910 C.3       14 UNK         0.1400 
     81 CB         -2.9500  -25.8939  -46.2405 C.3       14 UNK        -0.1800 
     82 C          -5.1639  -25.1360  -47.1823 C.2       14 UNK         0.5000 
     83 O          -5.5022  -26.1075  -47.8586 O.2       14 UNK        -0.5000 
     84 N          -5.4138  -23.8618  -47.5260 N.am      15 UNK        -0.5000 
     85 CA         -6.0093  -23.3614  -48.7715 C.3       15 UNK         0.1400 
     86 CB         -7.4494  -23.8775  -48.9623 C.3       15 UNK        -0.1800 
     87 C          -5.1247  -23.5991  -50.0139 C.2       15 UNK         0.5000 
     88 O          -5.5875  -23.4175  -51.1410 O.2       15 UNK        -0.5000 
     89 N          -3.8496  -23.9460  -49.7942 N.am      16 UNK        -0.5000 
     90 CA         -2.8336  -24.1254  -50.8270 C.3       16 UNK         0.1400 
     91 CB         -1.5796  -24.7531  -50.2017 C.3       16 UNK        -0.1800 
     92 C          -2.5012  -22.7996  -51.5275 C.2       16 UNK         0.5000 
     93 O          -2.3237  -22.7851  -52.7441 O.2       16 UNK        -0.5000 
     94 N          -2.4943  -21.7023  -50.7582 N.am      17 UNK        -0.5000 
     95 CA         -2.3134  -20.3450  -51.2664 C.3       17 UNK         0.1400 
     96 CB         -2.1300  -19.3768  -50.0935 C.3       17 UNK        -0.1800 
     97 C          -3.4742  -19.8826  -52.1609 C.2       17 UNK         0.5000 
     98 O          -3.2340  -19.2111  -53.1627 O.2       17 UNK        -0.5000 
     99 N          -4.7040  -20.2798  -51.8058 N.am      18 UNK        -0.5000 
    100 CA        -5.9081  -20.0064  -52.5899 C.3       18 UNK         0.1400 
    101 CB        -7.1570  -20.2825  -51.7386 C.3       18 UNK        -0.1800 
    102 C         -5.9378  -20.8169  -53.8982 C.2       18 UNK         0.5000 
    103 O         -6.3391  -20.2822  -54.9319 O.2       18 UNK        -0.5000 
    104 N         -5.4874  -22.0784  -53.8333 N.am      19 UNK        -0.5000 
    105 CA        -5.3455  -22.9709  -54.9832 C.3       19 UNK         0.1400 
    106 CB        -5.0845  -24.4027  -54.4906 C.3       19 UNK        -0.1800 
    107 C         -4.2429  -22.5124  -55.9567 C.2       19 UNK         0.5000 
    108 O         -4.4656  -22.5167  -57.1681 O.2       19 UNK        -0.5000 
    109 N         -3.0827  -22.1160  -55.4137 N.am      20 UNK        -0.5000 
    110 CA        -1.9459  -21.5908  -56.1724 C.3       20 UNK         0.1400 
    111 CB        -0.6991  -21.5692  -55.2747 C.3       20 UNK        -0.1800 
    112 C         -2.2123  -20.1958  -56.7670 C.2       20 UNK         0.5000 
    113 O         -1.7413  -19.9095  -57.8686 O.2       20 UNK        -0.5000 
    114 N         -2.9551  -19.3596  -56.0276 N.am      21 UNK        -0.5000 
    115 CA        -3.4144  -17.9976  -56.3280 C.3       21 UNK         0.1400 
    116 CB        -4.2922  -17.9665  -57.5930 C.3       21 UNK        -0.1800 
    117 C         -2.2993  -16.9349  -56.3920 C.2       21 UNK         0.5000 
    118 O         -2.4838  -15.8425  -55.8547 O.2       21 UNK        -0.5000 
    119 N         -1.1692  -17.2692  -57.0263 N.am      22 UNK        -0.5000 
    120 CA         0.0400  -16.4393  -57.1842 C.3       22 UNK         0.1400 
    121 C         -0.1492  -15.1691  -58.0720 C.2       22 UNK         0.5000 
    122 N         -1.1914  -15.0834  -58.8901 N.am      22 UNK        -0.7600 
    123 O          0.6751  -14.2588  -58.0501 O.2       22 UNK        -0.5000 
    124 C124        0.7444  -16.1273  -55.8320 C.3       23 UNK        -0.0398 
    125 S125        1.2772  -17.6351  -54.9476 S.3       23 UNK        -0.2404 
    126 C126       -0.0503  -17.8571  -53.7225 C.3       23 UNK        -0.0205 
    127 H127       -5.7969  -19.4101  -48.6976 H         1 UNK         0.0600 
    128 H128       -5.9594  -18.3805  -47.2676 H         1 UNK         0.0600 
    129 H129       -7.1394  -18.2707  -48.5675 H         1 UNK         0.0600 
    130 H130       -3.8749  -17.3713  -47.5453 H         1 UNK         0.3000 
    131 H131       -3.1272  -16.0907  -50.0083 H         1 UNK         0.0600 
    132 H132       -1.4259  -17.0684  -48.5308 H         1 UNK         0.0800 
    133 H133       -1.7235  -15.8955  -47.3037 H         1 UNK         0.0800 
    134 H134        1.1074  -16.2441  -48.1291 H         1 UNK         0.0800 
    135 H135        1.7830  -15.2434  -49.3930 H         1 UNK         0.0800 
    136 H136        0.0895  -15.9819  -51.7592 H         1 UNK         0.1150 
    137 H137        1.0631  -20.0692  -52.5847 H         1 UNK         0.1150 
    138 H138        1.8610  -18.4216  -48.7091 H         1 UNK         0.1150 
    139 H139        2.5686  -21.2188  -51.0140 H         1 UNK         0.0800 
    140 H140        2.9031  -20.5754  -49.4305 H         1 UNK         0.0800 
    141 H141        1.7768  -21.3881  -47.3477 H         1 UNK         0.0800 
    142 H142        0.5586  -20.1994  -47.7103 H         1 UNK         0.0800 
    143 H143       -0.2246  -23.1129  -47.2045 H         1 UNK         0.0600 
    144 H144        0.9880  -21.5360  -45.2248 H         1 UNK         0.3000 
    145 H145       -0.7227  -22.8479  -42.3671 H         1 UNK         0.0600 
    146 H146        2.1509  -23.0647  -43.4071 H         1 UNK         0.0600 
    147 H147        1.6591  -23.1663  -41.7188 H         1 UNK         0.0600 
    148 H148        1.1429  -24.3967  -42.8629 H         1 UNK         0.0600 
    149 H149        1.2515  -20.8185  -42.5799 H         1 UNK         0.3000 
    150 H150       -0.9988  -18.0610  -43.1063 H         1 UNK         0.0600 
    151 H151        0.1346  -17.2890  -41.0491 H         1 UNK         0.0600 
    152 H152        0.6793  -18.9348  -40.6981 H         1 UNK         0.0600 
    153 H153       -1.0300  -18.5362  -40.6653 H         1 UNK         0.0600 
    154 H154        1.8538  -18.2597  -42.8234 H         1 UNK         0.3000 
    155 H155        2.5726  -18.7731  -46.2823 H         1 UNK         0.0600 
    156 H156        2.4266  -16.3548  -46.2401 H         1 UNK         0.0600 
    157 H157        4.0642  -16.7970  -45.8211 H         1 UNK         0.0600 
    158 H158        2.9491  -16.2748  -44.5622 H         1 UNK         0.0600 
    159 H159        4.2098  -18.4544  -43.9359 H         1 UNK         0.3000 
    160 H160        4.4356  -21.9589  -43.2614 H         1 UNK         0.0600 
    161 H161        6.4583  -20.0190  -44.4982 H         1 UNK         0.0600 
    162 H162        5.9657  -21.5561  -45.1988 H         1 UNK         0.0600 
    163 H163        6.8310  -21.5320  -43.6713 H         1 UNK         0.0600 
    164 H164        5.8717  -19.9149  -42.0474 H         1 UNK         0.3000 
    165 H165        3.6103  -19.5004  -39.2758 H         1 UNK         0.0600 
    166 H166        6.4184  -20.5487  -39.8464 H         1 UNK         0.0600 
    167 H167        5.7528  -20.1186  -38.2743 H         1 UNK         0.0600 
    168 H168        5.0872  -21.4766  -39.1659 H         1 UNK         0.0600 
    169 H169        6.0422  -18.2083  -40.4011 H         1 UNK         0.3000 
    170 H170        2.4598  -17.7347  -39.9075 H         1 UNK         0.0600 
    171 H171        3.4406  -17.9734  -37.5606 H         1 UNK         0.0600 
    172 H172        3.4339  -16.2256  -37.4137 H         1 UNK         0.0600 
    173 H173        1.9151  -17.1069  -37.5737 H         1 UNK         0.0600 
    174 H174        2.1013  -15.0761  -39.0562 H         1 UNK         0.3000 
    175 H175        0.5785  -13.8969  -40.4901 H         1 UNK         0.0600 
    176 H176        1.8777  -11.8009  -40.9090 H         1 UNK         0.0600 
    177 H177        2.7687  -12.8715  -39.8427 H         1 UNK         0.0600 
    178 H178        3.2288  -12.7466  -41.5350 H         1 UNK         0.0600 
    179 H179        1.3935  -13.0233  -43.1058 H         1 UNK         0.3000 
    180 H180       -0.5309  -12.7428  -44.5184 H         1 UNK         0.0600 
    181 H181        0.3530  -13.9126  -46.4965 H         1 UNK         0.0600 
    182 H182        1.5181  -14.1244  -45.2045 H         1 UNK         0.0600 
    183 H183        0.4206  -15.4402  -45.6218 H         1 UNK         0.0600 
    184 H184       -2.1650  -15.1565  -44.4275 H         1 UNK         0.3000 
    185 H185       -3.7137  -15.5479  -46.2274 H         1 UNK         0.0600 
    186 H186       -5.9716  -14.7080  -45.5991 H         1 UNK         0.0600 
    187 H187       -4.8295  -14.5040  -44.2805 H         1 UNK         0.0600 
    188 H188       -5.2971  -13.1157  -45.2550 H         1 UNK         0.0600 
    189 H189       -4.7269  -13.1394  -47.6161 H         1 UNK         0.3000 
    190 H190       -1.3239  -20.0562  -45.7238 H         1 UNK         0.3000 
    191 H191       -3.7003  -19.7617  -47.2788 H         1 UNK         0.0600 
    192 H192       -4.3058  -18.0788  -45.5511 H         1 UNK         0.0600 
    193 H193       -2.6156  -17.8893  -46.0208 H         1 UNK         0.0600 
    194 H194       -3.0323  -18.6564  -44.4995 H         1 UNK         0.0600 
    195 H195       -3.1625  -21.1210  -43.9892 H         1 UNK         0.3000 
    196 H196       -5.8286  -21.8042  -43.4340 H         1 UNK         0.0600 
    197 H197       -4.8124  -23.2128  -41.6307 H         1 UNK         0.0600 
    198 H198       -4.0597  -21.6272  -41.7109 H         1 UNK         0.0600 
    199 H199       -3.2281  -23.0318  -42.3760 H         1 UNK         0.0600 
    200 H200       -3.2959  -23.7344  -45.0538 H         1 UNK         0.3000 
    201 H201       -4.8718  -26.1401  -45.3124 H         1 UNK         0.0600 
    202 H202       -2.3818  -26.1286  -45.3402 H         1 UNK         0.0600 
    203 H203       -2.3804  -25.1602  -46.8130 H         1 UNK         0.0600 
    204 H204       -3.0038  -26.8062  -46.8359 H         1 UNK         0.0600 
    205 H205       -5.1129  -23.1367  -46.8854 H         1 UNK         0.3000 
    206 H206       -6.0666  -22.2784  -48.6550 H         1 UNK         0.0600 
    207 H207       -8.0526  -23.6997  -48.0720 H         1 UNK         0.0600 
    208 H208       -7.9393  -23.3671  -49.7923 H         1 UNK         0.0600 
    209 H209       -7.4748  -24.9454  -49.1796 H         1 UNK         0.0600 
    210 H210       -3.5307  -23.9825  -48.8363 H         1 UNK         0.3000 
    211 H211       -3.2265  -24.8136  -51.5780 H         1 UNK         0.0600 
    212 H212       -0.7926  -24.8795  -50.9462 H         1 UNK         0.0600 
    213 H213       -1.7979  -25.7371  -49.7866 H         1 UNK         0.0600 
    214 H214       -1.1770  -24.1348  -49.3993 H         1 UNK         0.0600 
    215 H215       -2.6071  -21.8154  -49.7551 H         1 UNK         0.3000 
    216 H216       -1.4089  -20.3371  -51.8736 H         1 UNK         0.0600 
    217 H217       -1.9949  -18.3579  -50.4566 H         1 UNK         0.0600 
    218 H218       -1.2530  -19.6290  -49.5000 H         1 UNK         0.0600 
    219 H219       -2.9958  -19.3838  -49.4348 H         1 UNK         0.0600 
    220 H220       -4.8079  -20.8720  -50.9970 H         1 UNK         0.3000 
    221 H221       -5.9089  -18.9464  -52.8536 H         1 UNK         0.0600 
    222 H222       -7.2115  -21.3225  -51.4177 H         1 UNK         0.0600 
    223 H223       -7.1739  -19.6537  -50.8490 H         1 UNK         0.0600 
    224 H224       -8.0654  -20.0673  -52.3025 H         1 UNK         0.0600 
    225 H225       -5.2379  -22.4602  -52.9275 H         1 UNK         0.3000 
    226 H226       -6.2923  -22.9694  -55.5274 H         1 UNK         0.0600 
    227 H227       -5.0164  -25.0971  -55.3288 H         1 UNK         0.0600 
    228 H228       -4.1530  -24.4739  -53.9290 H         1 UNK         0.0600 
    229 H229       -5.8907  -24.7499  -53.8439 H         1 UNK         0.0600 
    230 H230       -2.9503  -22.2139  -54.4097 H         1 UNK         0.3000 
    231 H231       -1.7497  -22.2691  -57.0054 H         1 UNK         0.0600 
    232 H232        0.1528  -21.1220  -55.7889 H         1 UNK         0.0600 
    233 H233       -0.4105  -22.5789  -54.9822 H         1 UNK         0.0600 
    234 H234       -0.8715  -20.9996  -54.3619 H         1 UNK         0.0600 
    235 H235       -3.2056  -19.6688  -55.0936 H         1 UNK         0.3000 
    236 H236       -4.0527  -17.7229  -55.4865 H         1 UNK         0.0600 
    237 H237       -3.7277  -18.2196  -58.4906 H         1 UNK         0.0600 
    238 H238       -5.1228  -18.6679  -57.5098 H         1 UNK         0.0600 
    239 H239       -4.7183  -16.9742  -57.7453 H         1 UNK         0.0600 
    240 H240       -1.1374  -18.1916  -57.4523 H         1 UNK         0.3000 
    241 H241        0.7288  -17.0575  -57.7607 H         1 UNK         0.0600 
    242 H242       -1.3027  -14.2661  -59.4697 H         1 UNK         0.3800 
    243 H243       -1.8701  -15.8263  -58.9333 H         1 UNK         0.3800 
    244 H244        0.1144  -15.5075  -55.1936 H         1 UNK         0.0800 
    245 H245        1.6486  -15.5420  -56.0053 H         1 UNK         0.0800 
    246 H246       -0.7544  -17.0249  -53.7520 H         1 UNK         0.0800 
    247 H247       -0.6308  -18.7397  -53.9872 H         1 UNK         0.0800 
@<TRIPOS>BOND
     1    1    2 1    
     2    1  127 1    
     3    1  128 1    
     4    1  129 1    
     5    2    3 2    
     6    2    4 am   BACKBONE|DICT|INTERRES
     7    4    5 1    
     8    4  130 1    
     9    5    6 1    
    10    5   65 1    
    11    5  131 1    
    12    6    7 1    
    13    6  132 1    
    14    6  133 1    
    15    7    8 1    
    16    8    9 1    
    17    8  134 1    
    18    8  135 1    
    19    9   10 ar   
    20    9   14 ar   
    21   10   11 ar   
    22   10  136 1    
    23   11   12 ar   
    24   11  126 1    
    25   12   13 ar   
    26   12  137 1    
    27   13   14 ar   
    28   13   15 1    
    29   14  138 1    
    30   15   16 1    
    31   15  139 1    
    32   15  140 1    
    33   16   17 1    
    34   17   18 1    
    35   17  141 1    
    36   17  142 1    
    37   18   19 1    
    38   18   67 1    
    39   18  143 1    
    40   19   20 am   BACKBONE|DICT|INTERRES
    41   19  144 1    
    42   20   21 2    
    43   20   22 1    
    44   22   23 1    
    45   22   24 1    
    46   22  145 1    
    47   23  146 1    
    48   23  147 1    
    49   23  148 1    
    50   24   25 am   BACKBONE|DICT|INTERRES
    51   24  149 1    
    52   25   26 2    
    53   25   27 1    
    54   27   28 1    
    55   27   29 1    
    56   27  150 1    
    57   28  151 1    
    58   28  152 1    
    59   28  153 1    
    60   29   30 am   BACKBONE|DICT|INTERRES
    61   29  154 1    
    62   30   31 2    
    63   30   32 1    
    64   32   33 1    
    65   32   34 1    
    66   32  155 1    
    67   33  156 1    
    68   33  157 1    
    69   33  158 1    
    70   34   35 am   BACKBONE|DICT|INTERRES
    71   34  159 1    
    72   35   36 2    
    73   35   37 1    
    74   37   38 1    
    75   37   39 1    
    76   37  160 1    
    77   38  161 1    
    78   38  162 1    
    79   38  163 1    
    80   39   40 am   BACKBONE|DICT|INTERRES
    81   39  164 1    
    82   40   41 2    
    83   40   42 1    
    84   42   43 1    
    85   42   44 1    
    86   42  165 1    
    87   43  166 1    
    88   43  167 1    
    89   43  168 1    
    90   44   45 am   BACKBONE|DICT|INTERRES
    91   44  169 1    
    92   45   46 2    
    93   45   47 1    
    94   47   48 1    
    95   47   49 1    
    96   47  170 1    
    97   48  171 1    
    98   48  172 1    
    99   48  173 1    
   100   49   50 am   BACKBONE|DICT|INTERRES
   101   49  174 1    
   102   50   51 2    
   103   50   52 1    
   104   52   53 1    
   105   52   54 1    
   106   52  175 1    
   107   53  176 1    
   108   53  177 1    
   109   53  178 1    
   110   54   55 am   BACKBONE|DICT|INTERRES
   111   54  179 1    
   112   55   56 2    
   113   55   57 1    
   114   57   58 1    
   115   57   59 1    
   116   57  180 1    
   117   58  181 1    
   118   58  182 1    
   119   58  183 1    
   120   59   60 am   BACKBONE|DICT|INTERRES
   121   59  184 1    
   122   60   61 2    
   123   60   62 1    
   124   62   63 1    
   125   62   64 1    
   126   62  185 1    
   127   63  186 1    
   128   63  187 1    
   129   63  188 1    
   130   64   65 am   BACKBONE|DICT|INTERRES
   131   64  189 1    
   132   65   66 2    
   133   67   68 2    
   134   67   69 am   BACKBONE|DICT|INTERRES
   135   69   70 1    
   136   69  190 1    
   137   70   71 1    
   138   70   72 1    
   139   70  191 1    
   140   71  192 1    
   141   71  193 1    
   142   71  194 1    
   143   72   73 2    
   144   72   74 am   BACKBONE|DICT|INTERRES
   145   74   75 1    
   146   74  195 1    
   147   75   76 1    
   148   75   77 1    
   149   75  196 1    
   150   76  197 1    
   151   76  198 1    
   152   76  199 1    
   153   77   78 2    
   154   77   79 am   BACKBONE|DICT|INTERRES
   155   79   80 1    
   156   79  200 1    
   157   80   81 1    
   158   80   82 1    
   159   80  201 1    
   160   81  202 1    
   161   81  203 1    
   162   81  204 1    
   163   82   83 2    
   164   82   84 am   BACKBONE|DICT|INTERRES
   165   84   85 1    
   166   84  205 1    
   167   85   86 1    
   168   85   87 1    
   169   85  206 1    
   170   86  207 1    
   171   86  208 1    
   172   86  209 1    
   173   87   88 2    
   174   87   89 am   BACKBONE|DICT|INTERRES
   175   89   90 1    
   176   89  210 1    
   177   90   91 1    
   178   90   92 1    
   179   90  211 1    
   180   91  212 1    
   181   91  213 1    
   182   91  214 1    
   183   92   93 2    
   184   92   94 am   BACKBONE|DICT|INTERRES
   185   94   95 1    
   186   94  215 1    
   187   95   96 1    
   188   95   97 1    
   189   95  216 1    
   190   96  217 1    
   191   96  218 1    
   192   96  219 1    
   193   97   98 2    
   194   97   99 am   BACKBONE|DICT|INTERRES
   195   99  100 1    
   196   99  220 1    
   197  100  101 1    
   198  100  102 1    
   199  100  221 1    
   200  101  222 1    
   201  101  223 1    
   202  101  224 1    
   203  102  103 2    
   204  102  104 am   BACKBONE|DICT|INTERRES
   205  104  105 1    
   206  104  225 1    
   207  105  106 1    
   208  105  107 1    
   209  105  226 1    
   210  106  227 1    
   211  106  228 1    
   212  106  229 1    
   213  107  108 2    
   214  107  109 am   BACKBONE|DICT|INTERRES
   215  109  110 1    
   216  109  230 1    
   217  110  111 1    
   218  110  112 1    
   219  110  231 1    
   220  111  232 1    
   221  111  233 1    
   222  111  234 1    
   223  112  113 2    
   224  112  114 am   BACKBONE|DICT|INTERRES
   225  114  115 1    
   226  114  235 1    
   227  115  116 1    
   228  115  117 1    
   229  115  236 1    
   230  116  237 1    
   231  116  238 1    
   232  116  239 1    
   233  117  118 2    
   234  117  119 am   BACKBONE|DICT|INTERRES
   235  119  120 1    
   236  119  240 1    
   237  120  121 1    
   238  120  124 1    
   239  120  241 1    
   240  121  122 am   BACKBONE|DICT|INTERRES
   241  121  123 2    
   242  122  242 1    
   243  122  243 1    
   244  124  125 1    
   245  124  244 1    
   246  124  245 1    
   247  125  126 1    
   248  126  246 1    
   249  126  247 1    
@<TRIPOS>SUBSTRUCTURE
     1 UNK         1 GROUP             0       ****    0 ROOT    
