@<TRIPOS>MOLECULE
3R540
247   249    1
SMALL
USER_CHARGES


@<TRIPOS>ATOM
      1 CA          6.0749  -11.0797  -53.6820 C.3       0 UNK        -0.1800 
      2 C           4.9991  -12.0326  -53.1816 C.2       0 UNK         0.5000 
      3 O           3.9951  -12.2342  -53.8650 O.2       0 UNK        -0.5000 
      4 N           5.1981  -12.6062  -51.9867 N.am      1 UNK        -0.5000 
      5 CA          4.3266  -13.5587  -51.2825 C.3       1 UNK         0.1400 
      6 C6          4.0455  -14.8553  -52.0906 C.3       23 UNK        -0.0398 
      7 S7          3.3319  -16.1934  -51.0721 S.3       23 UNK        -0.2404 
      8 C8          1.5794  -16.0647  -51.5452 C.3       23 UNK        -0.0205 
      9 C9          0.6631  -16.5700  -50.4445 C.ar      23 UNK        -0.0193 
     10 C10         0.3164  -15.7297  -49.3814 C.ar      23 UNK        -0.1150 
     11 C11        -0.5625  -16.1677  -48.3870 C.ar      23 UNK        -0.0193 
     12 C12        -1.0939  -17.4570  -48.4675 C.ar      23 UNK        -0.1150 
     13 C13        -0.7400  -18.3137  -49.5141 C.ar      23 UNK        -0.0193 
     14 C14         0.1388  -17.8642  -50.5017 C.ar      23 UNK        -0.1150 
     15 C15        -1.3273  -19.7130  -49.5863 C.3       23 UNK        -0.0205 
     16 S16        -0.2575  -20.9484  -48.7901 S.3       23 UNK        -0.2404 
     17 C17        -1.4586  -22.2955  -48.5170 C.3       23 UNK        -0.0398 
     18 CA         -0.8740  -23.4764  -47.7021 C.3       11 UNK         0.1400 
     19 N          -0.3656  -23.0790  -46.3819 N.am      11 UNK        -0.5000 
     20 C           0.2905  -23.8929  -45.5402 C.2       10 UNK         0.5000 
     21 O           0.5970  -25.0516  -45.8134 O.2       10 UNK        -0.5000 
     22 CA          0.6011  -23.3540  -44.1339 C.3       10 UNK         0.1400 
     23 CB          1.9063  -22.5436  -44.1180 C.3       10 UNK        -0.1800 
     24 N          -0.5035  -22.5532  -43.6074 N.am      10 UNK        -0.5000 
     25 C          -1.6729  -23.0651  -43.1961 C.2       9 UNK         0.5000 
     26 O          -1.9164  -24.2711  -43.1712 O.2       9 UNK        -0.5000 
     27 CA         -2.7694  -22.0625  -42.7886 C.3       9 UNK         0.1400 
     28 CB         -2.5997  -21.6406  -41.3221 C.3       9 UNK        -0.1800 
     29 N          -2.7824  -20.8722  -43.6392 N.am      9 UNK        -0.5000 
     30 C          -3.0967  -20.8848  -44.9440 C.2       8 UNK         0.5000 
     31 O          -3.4806  -21.8912  -45.5390 O.2       8 UNK        -0.5000 
     32 CA         -2.8799  -19.5766  -45.7313 C.3       8 UNK         0.1400 
     33 CB         -4.1592  -18.7295  -45.7434 C.3       8 UNK        -0.1800 
     34 N          -1.7729  -18.7665  -45.2167 N.am      8 UNK        -0.5000 
     35 C          -0.5029  -19.1823  -45.1059 C.2       7 UNK         0.5000 
     36 O          -0.1170  -20.2731  -45.5191 O.2       7 UNK        -0.5000 
     37 CA          0.4892  -18.2786  -44.3475 C.3       7 UNK         0.1400 
     38 CB          1.5133  -17.6594  -45.3112 C.3       7 UNK        -0.1800 
     39 N          -0.1288  -17.2156  -43.5481 N.am      7 UNK        -0.5000 
     40 C          -0.9802  -17.3769  -42.5254 C.2       6 UNK         0.5000 
     41 O          -1.4004  -18.4786  -42.1678 O.2       6 UNK        -0.5000 
     42 CA         -1.4973  -16.1091  -41.8090 C.3       6 UNK         0.1400 
     43 CB         -0.8784  -15.9806  -40.4037 C.3       6 UNK        -0.1800 
     44 N          -1.3692  -14.8491  -42.5642 N.am      6 UNK        -0.5000 
     45 C          -0.2528  -14.1964  -42.9153 C.2       5 UNK         0.5000 
     46 O           0.8869  -14.6067  -42.6807 O.2       5 UNK        -0.5000 
     47 CA         -0.4414  -12.8804  -43.6828 C.3       5 UNK         0.1400 
     48 CB         -0.8322  -11.7316  -42.7383 C.3       5 UNK        -0.1800 
     49 N           0.8164  -12.5592  -44.3473 N.am      5 UNK        -0.5000 
     50 C           0.9399  -11.9888  -45.5474 C.2       4 UNK         0.5000 
     51 O          -0.0170  -11.5843  -46.2093 O.2       4 UNK        -0.5000 
     52 CA          2.3771  -11.8977  -46.0992 C.3       4 UNK         0.1400 
     53 CB          2.9379  -13.3029  -46.3826 C.3       4 UNK        -0.1800 
     54 N           2.4583  -11.0991  -47.3240 N.am      4 UNK        -0.5000 
     55 C           2.3451   -9.7629  -47.3751 C.2       3 UNK         0.5000 
     56 O           2.2377   -9.0548  -46.3722 O.2       3 UNK        -0.5000 
     57 CA          2.3790   -9.0860  -48.7636 C.3       3 UNK         0.1400 
     58 CB          3.7280   -8.3836  -48.9862 C.3       3 UNK        -0.1800 
     59 N           2.1491  -10.0095  -49.8743 N.am      3 UNK        -0.5000 
     60 C           0.9667  -10.5457  -50.2040 C.2       2 UNK         0.5000 
     61 O          -0.0958  -10.2344  -49.6676 O.2       2 UNK        -0.5000 
     62 CA          0.9674  -11.6255  -51.3079 C.3       2 UNK         0.1400 
     63 CB          0.3692  -11.0742  -52.6102 C.3       2 UNK        -0.1800 
     64 N           2.2793  -12.2139  -51.6007 N.am      2 UNK        -0.5000 
     65 C           3.0336  -12.9099  -50.7408 C.2       1 UNK         0.5000 
     66 O           2.7477  -13.0356  -49.5515 O.2       1 UNK        -0.5000 
     67 C          -1.9072  -24.6181  -47.5869 C.2       11 UNK         0.5000 
     68 O          -1.8271  -25.5887  -48.3401 O.2       11 UNK        -0.5000 
     69 N          -2.8278  -24.5100  -46.6177 N.am      12 UNK        -0.5000 
     70 CA         -3.8043  -25.5467  -46.2851 C.3       12 UNK         0.1400 
     71 CB         -4.8398  -24.9886  -45.2986 C.3       12 UNK        -0.1800 
     72 C          -3.1529  -26.8329  -45.7453 C.2       12 UNK         0.5000 
     73 O          -3.5222  -27.9198  -46.1891 O.2       12 UNK        -0.5000 
     74 N          -2.1703  -26.6962  -44.8422 N.am      13 UNK        -0.5000 
     75 CA         -1.3961  -27.8107  -44.2831 C.3       13 UNK         0.1400 
     76 CB         -0.5037  -27.3008  -43.1421 C.3       13 UNK        -0.1800 
     77 C          -0.5554  -28.5572  -45.3380 C.2       13 UNK         0.5000 
     78 O          -0.4555  -29.7832  -45.2813 O.2       13 UNK        -0.5000 
     79 N          -0.0022  -27.8101  -46.3025 N.am      14 UNK        -0.5000 
     80 CA          0.7192  -28.3265  -47.4679 C.3       14 UNK         0.1400 
     81 CB          1.5575  -27.1876  -48.0712 C.3       14 UNK        -0.1800 
     82 C          -0.2019  -28.9378  -48.5449 C.2       14 UNK         0.5000 
     83 O           0.3062  -29.5470  -49.4871 O.2       14 UNK        -0.5000 
     84 N          -1.5230  -28.7522  -48.4009 N.am      15 UNK        -0.5000 
     85 CA         -2.5917  -29.1556  -49.3182 C.3       15 UNK         0.1400 
     86 CB         -2.6749  -30.6915  -49.4384 C.3       15 UNK        -0.1800 
     87 C          -2.5127  -28.4411  -50.6831 C.2       15 UNK         0.5000 
     88 O          -2.8969  -29.0117  -51.7063 O.2       15 UNK        -0.5000 
     89 N          -2.0509  -27.1830  -50.6785 N.am      16 UNK        -0.5000 
     90 CA         -1.9452  -26.3084  -51.8461 C.3       16 UNK         0.1400 
     91 CB         -0.8368  -25.2700  -51.5946 C.3       16 UNK        -0.1800 
     92 C          -3.3090  -25.6638  -52.1612 C.2       16 UNK         0.5000 
     93 O          -3.4612  -24.4446  -52.0669 O.2       16 UNK        -0.5000 
     94 N          -4.2981  -26.5185  -52.4628 N.am      17 UNK        -0.5000 
     95 CA         -5.6904  -26.2167  -52.8282 C.3       17 UNK         0.1400 
     96 CB         -5.7301  -25.4973  -54.1924 C.3       17 UNK        -0.1800 
     97 C          -6.5000  -25.4490  -51.7571 C.2       17 UNK         0.5000 
     98 O          -7.5873  -24.9576  -52.0635 O.2       17 UNK        -0.5000 
     99 N          -5.9539  -25.3417  -50.5348 N.am      18 UNK        -0.5000 
    100 CA        -6.4063  -24.4814  -49.4347 C.3       18 UNK         0.1400 
    101 CB        -7.7315  -24.9973  -48.8377 C.3       18 UNK        -0.1800 
    102 C         -6.4489  -22.9891  -49.8353 C.2       18 UNK         0.5000 
    103 O         -7.3744  -22.2688  -49.4554 O.2       18 UNK        -0.5000 
    104 N         -5.4517  -22.5683  -50.6278 N.am      19 UNK        -0.5000 
    105 CA        -5.2886  -21.2104  -51.1425 C.3       19 UNK         0.1400 
    106 CB        -4.1328  -21.2134  -52.1571 C.3       19 UNK        -0.1800 
    107 C         -5.0346  -20.1609  -50.0430 C.2       19 UNK         0.5000 
    108 O         -4.6503  -20.5025  -48.9225 O.2       19 UNK        -0.5000 
    109 N         -5.2123  -18.8904  -50.4155 N.am      20 UNK        -0.5000 
    110 CA        -4.9643  -17.7151  -49.5883 C.3       20 UNK         0.1400 
    111 CB        -6.1516  -17.4714  -48.6359 C.3       20 UNK        -0.1800 
    112 C         -4.6926  -16.5344  -50.5317 C.2       20 UNK         0.5000 
    113 O         -5.4702  -15.5801  -50.5742 O.2       20 UNK        -0.5000 
    114 N         -3.6122  -16.6427  -51.3198 N.am      21 UNK        -0.5000 
    115 CA        -3.2412  -15.6951  -52.3814 C.3       21 UNK         0.1400 
    116 CB        -2.0568  -16.2637  -53.1759 C.3       21 UNK        -0.1800 
    117 C         -2.9404  -14.2606  -51.8964 C.2       21 UNK         0.5000 
    118 O         -3.0121  -13.3251  -52.6939 O.2       21 UNK        -0.5000 
    119 N         -2.6472  -14.1091  -50.6006 N.am      22 UNK        -0.5000 
    120 CA        -2.6089  -12.8271  -49.8842 C.3       22 UNK         0.1400 
    121 C         -3.9933  -12.1335  -49.6926 C.2       22 UNK         0.5000 
    122 N         -5.1220  -12.7955  -49.9204 N.am      22 UNK        -0.7600 
    123 O         -4.0453  -10.9577  -49.3430 O.2       22 UNK        -0.5000 
    124 C124       -1.8471  -12.9527  -48.5405 C.3       23 UNK        -0.0398 
    125 S125       -2.4374  -14.3186  -47.4722 S.3       23 UNK        -0.2404 
    126 C126       -0.9115  -15.2719  -47.2056 C.3       23 UNK        -0.0205 
    127 H127        6.4832  -11.4390  -54.6266 H         1 UNK         0.0600 
    128 H128        6.8959  -10.9839  -52.9709 H         1 UNK         0.0600 
    129 H129        5.6507  -10.0893  -53.8474 H         1 UNK         0.0600 
    130 H130        6.0403  -12.3656  -51.4820 H         1 UNK         0.3000 
    131 H131        4.9034  -13.8528  -50.4037 H         1 UNK         0.0600 
    132 H132        3.4031  -14.6585  -52.9503 H         1 UNK         0.0800 
    133 H133        4.9815  -15.2327  -52.5041 H         1 UNK         0.0800 
    134 H134        1.4183  -16.6244  -52.4678 H         1 UNK         0.0800 
    135 H135        1.3166  -15.0306  -51.7702 H         1 UNK         0.0800 
    136 H136        0.7381  -14.7367  -49.3287 H         1 UNK         0.1150 
    137 H137       -1.7787  -17.7966  -47.7068 H         1 UNK         0.1150 
    138 H138        0.4086  -18.5195  -51.3180 H         1 UNK         0.1150 
    139 H139       -2.2945  -19.7101  -49.0923 H         1 UNK         0.0800 
    140 H140       -1.5060  -19.9989  -50.6235 H         1 UNK         0.0800 
    141 H141       -1.8028  -22.6385  -49.4945 H         1 UNK         0.0800 
    142 H142       -2.3360  -21.8863  -48.0146 H         1 UNK         0.0800 
    143 H143       -0.0246  -23.8741  -48.2616 H         1 UNK         0.0600 
    144 H144       -0.5065  -22.1109  -46.1085 H         1 UNK         0.3000 
    145 H145        0.7402  -24.2106  -43.4715 H         1 UNK         0.0600 
    146 H146        2.1193  -22.1565  -43.1216 H         1 UNK         0.0600 
    147 H147        2.7500  -23.1699  -44.4103 H         1 UNK         0.0600 
    148 H148        1.8781  -21.7007  -44.8075 H         1 UNK         0.0600 
    149 H149       -0.4087  -21.5505  -43.6826 H         1 UNK         0.3000 
    150 H150       -3.7344  -22.5634  -42.8906 H         1 UNK         0.0600 
    151 H151       -2.6183  -22.5086  -40.6616 H         1 UNK         0.0600 
    152 H152       -3.4037  -20.9749  -41.0078 H         1 UNK         0.0600 
    153 H153       -1.6537  -21.1228  -41.1585 H         1 UNK         0.0600 
    154 H154       -2.4460  -20.0115  -43.2212 H         1 UNK         0.3000 
    155 H155       -2.6417  -19.8525  -46.7586 H         1 UNK         0.0600 
    156 H156       -4.0396  -17.8403  -46.3625 H         1 UNK         0.0600 
    157 H157       -4.9949  -19.2998  -46.1511 H         1 UNK         0.0600 
    158 H158       -4.4389  -18.4067  -44.7399 H         1 UNK         0.0600 
    159 H159       -2.0115  -17.8697  -44.8220 H         1 UNK         0.3000 
    160 H160        1.0309  -18.9259  -43.6551 H         1 UNK         0.0600 
    161 H161        2.2785  -17.1026  -44.7700 H         1 UNK         0.0600 
    162 H162        1.0460  -16.9803  -46.0220 H         1 UNK         0.0600 
    163 H163        2.0228  -18.4321  -45.8887 H         1 UNK         0.0600 
    164 H164        0.2175  -16.2773  -43.7026 H         1 UNK         0.3000 
    165 H165       -2.5697  -16.2605  -41.6769 H         1 UNK         0.0600 
    166 H166       -1.2860  -15.1222  -39.8699 H         1 UNK         0.0600 
    167 H167       -1.0905  -16.8662  -39.8032 H         1 UNK         0.0600 
    168 H168        0.2054  -15.8690  -40.4426 H         1 UNK         0.0600 
    169 H169       -2.2517  -14.4360  -42.8337 H         1 UNK         0.3000 
    170 H170       -1.2284  -13.0306  -44.4256 H         1 UNK         0.0600 
    171 H171       -1.7730  -11.9428  -42.2288 H         1 UNK         0.0600 
    172 H172       -0.0728  -11.5650  -41.9732 H         1 UNK         0.0600 
    173 H173       -0.9635  -10.7991  -43.2876 H         1 UNK         0.0600 
    174 H174        1.6314  -12.9385  -43.8813 H         1 UNK         0.3000 
    175 H175        3.0016  -11.4230  -45.3395 H         1 UNK         0.0600 
    176 H176        2.3020  -13.8586  -47.0725 H         1 UNK         0.0600 
    177 H177        3.9359  -13.2504  -46.8181 H         1 UNK         0.0600 
    178 H178        3.0170  -13.8920  -45.4683 H         1 UNK         0.0600 
    179 H179        2.5160  -11.6242  -48.1906 H         1 UNK         0.3000 
    180 H180        1.5927   -8.3282  -48.7762 H         1 UNK         0.0600 
    181 H181        4.5553   -9.0943  -48.9907 H         1 UNK         0.0600 
    182 H182        3.9252   -7.6555  -48.1982 H         1 UNK         0.0600 
    183 H183        3.7413   -7.8450  -49.9339 H         1 UNK         0.0600 
    184 H184        2.9658  -10.3282  -50.3738 H         1 UNK         0.3000 
    185 H185        0.3262  -12.4366  -50.9586 H         1 UNK         0.0600 
    186 H186       -0.6262  -10.6610  -52.4411 H         1 UNK         0.0600 
    187 H187        0.9889  -10.2821  -53.0322 H         1 UNK         0.0600 
    188 H188        0.2682  -11.8590  -53.3603 H         1 UNK         0.0600 
    189 H189        2.6211  -12.1302  -52.5547 H         1 UNK         0.3000 
    190 H190       -2.8723  -23.6526  -46.0738 H         1 UNK         0.3000 
    191 H191       -4.3278  -25.8155  -47.2040 H         1 UNK         0.0600 
    192 H192       -4.3768  -24.6705  -44.3644 H         1 UNK         0.0600 
    193 H193       -5.5922  -25.7396  -45.0548 H         1 UNK         0.0600 
    194 H194       -5.3619  -24.1298  -45.7213 H         1 UNK         0.0600 
    195 H195       -1.9561  -25.7707  -44.4840 H         1 UNK         0.3000 
    196 H196       -2.1055  -28.5261  -43.8621 H         1 UNK         0.0600 
    197 H197        0.0501  -28.1209  -42.6835 H         1 UNK         0.0600 
    198 H198       -1.0959  -26.8300  -42.3573 H         1 UNK         0.0600 
    199 H199        0.2246  -26.5720  -43.4969 H         1 UNK         0.0600 
    200 H200       -0.0631  -26.7978  -46.2268 H         1 UNK         0.3000 
    201 H201        1.3991  -29.1128  -47.1341 H         1 UNK         0.0600 
    202 H202        2.2558  -26.7813  -47.3394 H         1 UNK         0.0600 
    203 H203        0.9272  -26.3697  -48.4227 H         1 UNK         0.0600 
    204 H204        2.1455  -27.5375  -48.9205 H         1 UNK         0.0600 
    205 H205       -1.8338  -28.2331  -47.5893 H         1 UNK         0.3000 
    206 H206       -3.5212  -28.8156  -48.8600 H         1 UNK         0.0600 
    207 H207       -2.7300  -31.1604  -48.4559 H         1 UNK         0.0600 
    208 H208       -3.5661  -30.9920  -49.9904 H         1 UNK         0.0600 
    209 H209       -1.8131  -31.1066  -49.9615 H         1 UNK         0.0600 
    210 H210       -1.8284  -26.7518  -49.7833 H         1 UNK         0.3000 
    211 H211       -1.6523  -26.9018  -52.7147 H         1 UNK         0.0600 
    212 H212       -1.0708  -24.6232  -50.7498 H         1 UNK         0.0600 
    213 H213       -0.6967  -24.6307  -52.4670 H         1 UNK         0.0600 
    214 H214        0.1176  -25.7549  -51.3888 H         1 UNK         0.0600 
    215 H215       -4.0580  -27.5052  -52.4468 H         1 UNK         0.3000 
    216 H216       -6.1876  -27.1804  -52.9461 H         1 UNK         0.0600 
    217 H217       -6.7533  -25.3951  -54.5556 H         1 UNK         0.0600 
    218 H218       -5.1754  -26.0534  -54.9481 H         1 UNK         0.0600 
    219 H219       -5.3034  -24.4954  -54.1323 H         1 UNK         0.0600 
    220 H220       -5.0547  -25.7811  -50.4037 H         1 UNK         0.3000 
    221 H221       -5.6468  -24.5528  -48.6565 H         1 UNK         0.0600 
    222 H222       -8.5583  -24.9034  -49.5421 H         1 UNK         0.0600 
    223 H223       -7.6519  -26.0458  -48.5506 H         1 UNK         0.0600 
    224 H224       -7.9999  -24.4362  -47.9418 H         1 UNK         0.0600 
    225 H225       -4.7526  -23.2390  -50.9270 H         1 UNK         0.3000 
    226 H226       -6.2101  -20.9396  -51.6617 H         1 UNK         0.0600 
    227 H227       -3.9728  -20.2245  -52.5882 H         1 UNK         0.0600 
    228 H228       -3.1959  -21.5276  -51.6951 H         1 UNK         0.0600 
    229 H229       -4.3386  -21.8943  -52.9835 H         1 UNK         0.0600 
    230 H230       -5.5117  -18.6925  -51.3610 H         1 UNK         0.3000 
    231 H231       -4.0642  -17.8710  -48.9907 H         1 UNK         0.0600 
    232 H232       -6.3097  -18.3211  -47.9723 H         1 UNK         0.0600 
    233 H233       -7.0791  -17.3032  -49.1843 H         1 UNK         0.0600 
    234 H234       -5.9741  -16.5972  -48.0083 H         1 UNK         0.0600 
    235 H235       -3.0210  -17.4550  -51.2235 H         1 UNK         0.3000 
    236 H236       -4.0936  -15.6233  -53.0599 H         1 UNK         0.0600 
    237 H237       -2.2902  -17.2448  -53.5898 H         1 UNK         0.0600 
    238 H238       -1.7979  -15.6124  -54.0117 H         1 UNK         0.0600 
    239 H239       -1.1697  -16.3626  -52.5542 H         1 UNK         0.0600 
    240 H240       -2.6013  -14.9320  -50.0180 H         1 UNK         0.3000 
    241 H241       -2.0387  -12.1363  -50.5070 H         1 UNK         0.0600 
    242 H242       -5.1220  -13.7746  -50.1941 H         1 UNK         0.3800 
    243 H243       -6.0015  -12.3209  -49.7955 H         1 UNK         0.3800 
    244 H244       -1.9100  -12.0208  -47.9763 H         1 UNK         0.0800 
    245 H245       -0.7845  -13.0823  -48.7418 H         1 UNK         0.0800 
    246 H246       -0.0866  -14.5955  -46.9789 H         1 UNK         0.0800 
    247 H247       -1.0503  -15.8840  -46.3140 H         1 UNK         0.0800 
@<TRIPOS>BOND
     1    1    2 1    
     2    1  127 1    
     3    1  128 1    
     4    1  129 1    
     5    2    3 2    
     6    2    4 am   BACKBONE|DICT|INTERRES
     7    4    5 1    
     8    4  130 1    
     9    5    6 1    
    10    5   65 1    
    11    5  131 1    
    12    6    7 1    
    13    6  132 1    
    14    6  133 1    
    15    7    8 1    
    16    8    9 1    
    17    8  134 1    
    18    8  135 1    
    19    9   10 ar   
    20    9   14 ar   
    21   10   11 ar   
    22   10  136 1    
    23   11   12 ar   
    24   11  126 1    
    25   12   13 ar   
    26   12  137 1    
    27   13   14 ar   
    28   13   15 1    
    29   14  138 1    
    30   15   16 1    
    31   15  139 1    
    32   15  140 1    
    33   16   17 1    
    34   17   18 1    
    35   17  141 1    
    36   17  142 1    
    37   18   19 1    
    38   18   67 1    
    39   18  143 1    
    40   19   20 am   BACKBONE|DICT|INTERRES
    41   19  144 1    
    42   20   21 2    
    43   20   22 1    
    44   22   23 1    
    45   22   24 1    
    46   22  145 1    
    47   23  146 1    
    48   23  147 1    
    49   23  148 1    
    50   24   25 am   BACKBONE|DICT|INTERRES
    51   24  149 1    
    52   25   26 2    
    53   25   27 1    
    54   27   28 1    
    55   27   29 1    
    56   27  150 1    
    57   28  151 1    
    58   28  152 1    
    59   28  153 1    
    60   29   30 am   BACKBONE|DICT|INTERRES
    61   29  154 1    
    62   30   31 2    
    63   30   32 1    
    64   32   33 1    
    65   32   34 1    
    66   32  155 1    
    67   33  156 1    
    68   33  157 1    
    69   33  158 1    
    70   34   35 am   BACKBONE|DICT|INTERRES
    71   34  159 1    
    72   35   36 2    
    73   35   37 1    
    74   37   38 1    
    75   37   39 1    
    76   37  160 1    
    77   38  161 1    
    78   38  162 1    
    79   38  163 1    
    80   39   40 am   BACKBONE|DICT|INTERRES
    81   39  164 1    
    82   40   41 2    
    83   40   42 1    
    84   42   43 1    
    85   42   44 1    
    86   42  165 1    
    87   43  166 1    
    88   43  167 1    
    89   43  168 1    
    90   44   45 am   BACKBONE|DICT|INTERRES
    91   44  169 1    
    92   45   46 2    
    93   45   47 1    
    94   47   48 1    
    95   47   49 1    
    96   47  170 1    
    97   48  171 1    
    98   48  172 1    
    99   48  173 1    
   100   49   50 am   BACKBONE|DICT|INTERRES
   101   49  174 1    
   102   50   51 2    
   103   50   52 1    
   104   52   53 1    
   105   52   54 1    
   106   52  175 1    
   107   53  176 1    
   108   53  177 1    
   109   53  178 1    
   110   54   55 am   BACKBONE|DICT|INTERRES
   111   54  179 1    
   112   55   56 2    
   113   55   57 1    
   114   57   58 1    
   115   57   59 1    
   116   57  180 1    
   117   58  181 1    
   118   58  182 1    
   119   58  183 1    
   120   59   60 am   BACKBONE|DICT|INTERRES
   121   59  184 1    
   122   60   61 2    
   123   60   62 1    
   124   62   63 1    
   125   62   64 1    
   126   62  185 1    
   127   63  186 1    
   128   63  187 1    
   129   63  188 1    
   130   64   65 am   BACKBONE|DICT|INTERRES
   131   64  189 1    
   132   65   66 2    
   133   67   68 2    
   134   67   69 am   BACKBONE|DICT|INTERRES
   135   69   70 1    
   136   69  190 1    
   137   70   71 1    
   138   70   72 1    
   139   70  191 1    
   140   71  192 1    
   141   71  193 1    
   142   71  194 1    
   143   72   73 2    
   144   72   74 am   BACKBONE|DICT|INTERRES
   145   74   75 1    
   146   74  195 1    
   147   75   76 1    
   148   75   77 1    
   149   75  196 1    
   150   76  197 1    
   151   76  198 1    
   152   76  199 1    
   153   77   78 2    
   154   77   79 am   BACKBONE|DICT|INTERRES
   155   79   80 1    
   156   79  200 1    
   157   80   81 1    
   158   80   82 1    
   159   80  201 1    
   160   81  202 1    
   161   81  203 1    
   162   81  204 1    
   163   82   83 2    
   164   82   84 am   BACKBONE|DICT|INTERRES
   165   84   85 1    
   166   84  205 1    
   167   85   86 1    
   168   85   87 1    
   169   85  206 1    
   170   86  207 1    
   171   86  208 1    
   172   86  209 1    
   173   87   88 2    
   174   87   89 am   BACKBONE|DICT|INTERRES
   175   89   90 1    
   176   89  210 1    
   177   90   91 1    
   178   90   92 1    
   179   90  211 1    
   180   91  212 1    
   181   91  213 1    
   182   91  214 1    
   183   92   93 2    
   184   92   94 am   BACKBONE|DICT|INTERRES
   185   94   95 1    
   186   94  215 1    
   187   95   96 1    
   188   95   97 1    
   189   95  216 1    
   190   96  217 1    
   191   96  218 1    
   192   96  219 1    
   193   97   98 2    
   194   97   99 am   BACKBONE|DICT|INTERRES
   195   99  100 1    
   196   99  220 1    
   197  100  101 1    
   198  100  102 1    
   199  100  221 1    
   200  101  222 1    
   201  101  223 1    
   202  101  224 1    
   203  102  103 2    
   204  102  104 am   BACKBONE|DICT|INTERRES
   205  104  105 1    
   206  104  225 1    
   207  105  106 1    
   208  105  107 1    
   209  105  226 1    
   210  106  227 1    
   211  106  228 1    
   212  106  229 1    
   213  107  108 2    
   214  107  109 am   BACKBONE|DICT|INTERRES
   215  109  110 1    
   216  109  230 1    
   217  110  111 1    
   218  110  112 1    
   219  110  231 1    
   220  111  232 1    
   221  111  233 1    
   222  111  234 1    
   223  112  113 2    
   224  112  114 am   BACKBONE|DICT|INTERRES
   225  114  115 1    
   226  114  235 1    
   227  115  116 1    
   228  115  117 1    
   229  115  236 1    
   230  116  237 1    
   231  116  238 1    
   232  116  239 1    
   233  117  118 2    
   234  117  119 am   BACKBONE|DICT|INTERRES
   235  119  120 1    
   236  119  240 1    
   237  120  121 1    
   238  120  124 1    
   239  120  241 1    
   240  121  122 am   BACKBONE|DICT|INTERRES
   241  121  123 2    
   242  122  242 1    
   243  122  243 1    
   244  124  125 1    
   245  124  244 1    
   246  124  245 1    
   247  125  126 1    
   248  126  246 1    
   249  126  247 1    
@<TRIPOS>SUBSTRUCTURE
     1 UNK         1 GROUP             0       ****    0 ROOT    
