@<TRIPOS>MOLECULE
3R540
247   249    1
SMALL
USER_CHARGES


@<TRIPOS>ATOM
      1 CA          2.6227  -10.9394  -50.5986 C.3       0 UNK        -0.1800 
      2 C           1.6630  -11.7153  -49.7081 C.2       0 UNK         0.5000 
      3 O           1.9783  -11.9760  -48.5465 O.2       0 UNK        -0.5000 
      4 N           0.4912  -12.0809  -50.2423 N.am      1 UNK        -0.5000 
      5 CA         -0.5654  -12.8298  -49.5535 C.3       1 UNK         0.1400 
      6 C6         -1.4718  -13.5994  -50.5485 C.3       23 UNK        -0.0398 
      7 S7         -0.6365  -15.0879  -51.1858 S.3       23 UNK        -0.2404 
      8 C8         -1.2345  -16.2874  -49.9584 C.3       23 UNK        -0.0205 
      9 C9         -0.5878  -17.6498  -50.1236 C.ar      23 UNK        -0.0193 
     10 C10        -1.1890  -18.6193  -50.9279 C.ar      23 UNK        -0.1150 
     11 C11        -0.6541  -19.9049  -51.0123 C.ar      23 UNK        -0.0193 
     12 C12         0.5108  -20.2125  -50.3038 C.ar      23 UNK        -0.1150 
     13 C13         1.1381  -19.2424  -49.5152 C.ar      23 UNK        -0.0193 
     14 C14         0.5854  -17.9606  -49.4327 C.ar      23 UNK        -0.1150 
     15 C15         2.4080  -19.5844  -48.7485 C.3       23 UNK        -0.0205 
     16 S16         2.2653  -19.2825  -46.9556 S.3       23 UNK        -0.2404 
     17 C17         0.7548  -20.2051  -46.5024 C.3       23 UNK        -0.0398 
     18 CA          0.8805  -21.7310  -46.7017 C.3       11 UNK         0.1400 
     19 N           2.0155  -22.2931  -45.9725 N.am      11 UNK        -0.5000 
     20 C           2.7009  -23.3794  -46.3444 C.2       10 UNK         0.5000 
     21 O           2.4627  -24.0215  -47.3669 O.2       10 UNK        -0.5000 
     22 CA          3.8398  -23.8302  -45.4091 C.3       10 UNK         0.1400 
     23 CB          5.1725  -23.2089  -45.8531 C.3       10 UNK        -0.1800 
     24 N           3.5999  -23.4925  -44.0035 N.am      10 UNK        -0.5000 
     25 C           2.6470  -24.0511  -43.2453 C.2       9 UNK         0.5000 
     26 O           1.8774  -24.9227  -43.6490 O.2       9 UNK        -0.5000 
     27 CA          2.4951  -23.5075  -41.8116 C.3       9 UNK         0.1400 
     28 CB          3.4941  -24.1933  -40.8678 C.3       9 UNK        -0.1800 
     29 N           2.6336  -22.0504  -41.6909 N.am      9 UNK        -0.5000 
     30 C           1.8998  -21.1482  -42.3566 C.2       8 UNK         0.5000 
     31 O           1.1129  -21.4420  -43.2568 O.2       8 UNK        -0.5000 
     32 CA          2.0997  -19.6693  -41.9780 C.3       8 UNK         0.1400 
     33 CB          3.2215  -19.0554  -42.8275 C.3       8 UNK        -0.1800 
     34 N           0.8702  -18.8884  -42.1539 N.am      8 UNK        -0.5000 
     35 C          -0.2513  -19.0777  -41.4392 C.2       7 UNK         0.5000 
     36 O          -0.3272  -19.8863  -40.5121 O.2       7 UNK        -0.5000 
     37 CA         -1.4964  -18.2268  -41.7719 C.3       7 UNK         0.1400 
     38 CB         -1.8059  -17.2551  -40.6214 C.3       7 UNK        -0.1800 
     39 N          -1.3934  -17.4620  -43.0133 N.am      7 UNK        -0.5000 
     40 C          -1.4963  -17.9692  -44.2486 C.2       6 UNK         0.5000 
     41 O          -1.7433  -19.1511  -44.4828 O.2       6 UNK        -0.5000 
     42 CA         -1.2628  -16.9962  -45.4238 C.3       6 UNK         0.1400 
     43 CB         -2.6014  -16.4838  -45.9758 C.3       6 UNK        -0.1800 
     44 N          -0.4162  -15.8487  -45.0845 N.am      6 UNK        -0.5000 
     45 C           0.8614  -15.9282  -44.6851 C.2       5 UNK         0.5000 
     46 O           1.4661  -16.9877  -44.5392 O.2       5 UNK        -0.5000 
     47 CA          1.5549  -14.6063  -44.3245 C.3       5 UNK         0.1400 
     48 CB          1.9363  -13.8151  -45.5859 C.3       5 UNK        -0.1800 
     49 N           0.7054  -13.7914  -43.4571 N.am      5 UNK        -0.5000 
     50 C           0.5266  -14.0209  -42.1479 C.2       4 UNK         0.5000 
     51 O           1.1084  -14.9087  -41.5248 O.2       4 UNK        -0.5000 
     52 CA         -0.4782  -13.1169  -41.4076 C.3       4 UNK         0.1400 
     53 CB          0.2413  -11.9088  -40.7892 C.3       4 UNK        -0.1800 
     54 N          -1.5625  -12.6383  -42.2660 N.am      4 UNK        -0.5000 
     55 C          -2.5418  -13.4107  -42.7571 C.2       3 UNK         0.5000 
     56 O          -2.6539  -14.6115  -42.5149 O.2       3 UNK        -0.5000 
     57 CA         -3.5258  -12.7322  -43.7304 C.3       3 UNK         0.1400 
     58 CB         -4.6609  -12.0416  -42.9602 C.3       3 UNK        -0.1800 
     59 N          -2.8802  -11.7628  -44.6241 N.am      3 UNK        -0.5000 
     60 C          -1.9125  -12.0766  -45.4945 C.2       2 UNK         0.5000 
     61 O          -1.4523  -13.2159  -45.6112 O.2       2 UNK        -0.5000 
     62 CA         -1.3186  -10.9256  -46.3281 C.3       2 UNK         0.1400 
     63 CB         -0.2506  -10.1774  -45.5154 C.3       2 UNK        -0.1800 
     64 N          -0.6959  -11.4558  -47.5382 N.am      2 UNK        -0.5000 
     65 C          -1.3691  -11.9279  -48.5924 C.2       1 UNK         0.5000 
     66 O          -2.5626  -11.6963  -48.7960 O.2       1 UNK        -0.5000 
     67 C          -0.4194  -22.4551  -46.3100 C.2       11 UNK         0.5000 
     68 O          -1.2356  -22.7451  -47.1831 O.2       11 UNK        -0.5000 
     69 N          -0.5656  -22.7966  -45.0221 N.am      12 UNK        -0.5000 
     70 CA         -1.6582  -23.6028  -44.4755 C.3       12 UNK         0.1400 
     71 CB         -1.5644  -23.6161  -42.9436 C.3       12 UNK        -0.1800 
     72 C          -1.6811  -25.0354  -45.0398 C.2       12 UNK         0.5000 
     73 O          -2.7612  -25.5759  -45.2773 O.2       12 UNK        -0.5000 
     74 N          -0.4957  -25.5981  -45.3177 N.am      13 UNK        -0.5000 
     75 CA         -0.3123  -26.8621  -46.0383 C.3       13 UNK         0.1400 
     76 CB          1.1663  -27.2718  -45.9694 C.3       13 UNK        -0.1800 
     77 C          -0.7930  -26.8104  -47.5055 C.2       13 UNK         0.5000 
     78 O          -1.1126  -27.8550  -48.0729 O.2       13 UNK        -0.5000 
     79 N          -0.8732  -25.6008  -48.0755 N.am      14 UNK        -0.5000 
     80 CA         -1.4460  -25.2973  -49.3871 C.3       14 UNK         0.1400 
     81 CB         -0.4696  -24.3873  -50.1490 C.3       14 UNK        -0.1800 
     82 C          -2.8532  -24.6718  -49.2452 C.2       14 UNK         0.5000 
     83 O          -3.2788  -23.9015  -50.1077 O.2       14 UNK        -0.5000 
     84 N          -3.5426  -25.0122  -48.1446 N.am      15 UNK        -0.5000 
     85 CA         -4.9202  -24.6734  -47.7725 C.3       15 UNK         0.1400 
     86 CB         -5.9144  -25.1735  -48.8419 C.3       15 UNK        -0.1800 
     87 C          -5.1673  -23.1959  -47.4036 C.2       15 UNK         0.5000 
     88 O          -6.3233  -22.8349  -47.1769 O.2       15 UNK        -0.5000 
     89 N          -4.1094  -22.3702  -47.3365 N.am      16 UNK        -0.5000 
     90 CA         -4.1359  -20.9220  -47.0779 C.3       16 UNK         0.1400 
     91 CB         -4.5063  -20.6370  -45.6074 C.3       16 UNK        -0.1800 
     92 C          -5.0220  -20.1477  -48.0813 C.2       16 UNK         0.5000 
     93 O          -5.7104  -19.1967  -47.7046 O.2       16 UNK        -0.5000 
     94 N          -5.0131  -20.6078  -49.3390 N.am      17 UNK        -0.5000 
     95 CA         -5.8089  -20.0840  -50.4470 C.3       17 UNK         0.1400 
     96 CB         -5.9046  -21.1901  -51.5149 C.3       17 UNK        -0.1800 
     97 C          -5.2280  -18.7742  -51.0225 C.2       17 UNK         0.5000 
     98 O          -4.3320  -18.1702  -50.4312 O.2       17 UNK        -0.5000 
     99 N          -5.7390  -18.3588  -52.1880 N.am      18 UNK        -0.5000 
    100 CA        -5.1173  -17.3382  -53.0333 C.3       18 UNK         0.1400 
    101 CB        -6.1414  -16.8689  -54.0785 C.3       18 UNK        -0.1800 
    102 C         -3.8657  -17.9069  -53.7293 C.2       18 UNK         0.5000 
    103 O         -3.7730  -19.1216  -53.9157 O.2       18 UNK        -0.5000 
    104 N         -2.9488  -17.0244  -54.1476 N.am      19 UNK        -0.5000 
    105 CA        -1.6711  -17.3734  -54.7864 C.3       19 UNK         0.1400 
    106 CB        -0.8726  -16.0853  -55.0386 C.3       19 UNK        -0.1800 
    107 C         -1.7987  -18.1787  -56.0983 C.2       19 UNK         0.5000 
    108 O         -0.8804  -18.9182  -56.4520 O.2       19 UNK        -0.5000 
    109 N         -2.9336  -18.0257  -56.7915 N.am      20 UNK        -0.5000 
    110 CA        -3.2794  -18.7610  -58.0085 C.3       20 UNK         0.1400 
    111 CB        -4.1241  -17.8375  -58.9023 C.3       20 UNK        -0.1800 
    112 C         -4.0370  -20.0763  -57.7257 C.2       20 UNK         0.5000 
    113 O         -4.3095  -20.8191  -58.6699 O.2       20 UNK        -0.5000 
    114 N         -4.3927  -20.3346  -56.4598 N.am      21 UNK        -0.5000 
    115 CA        -5.2705  -21.4246  -56.0297 C.3       21 UNK         0.1400 
    116 CB        -6.5464  -20.8070  -55.4299 C.3       21 UNK        -0.1800 
    117 C         -4.5793  -22.3842  -55.0410 C.2       21 UNK         0.5000 
    118 O         -5.2682  -23.1514  -54.3673 O.2       21 UNK        -0.5000 
    119 N         -3.2417  -22.3431  -54.9704 N.am      22 UNK        -0.5000 
    120 CA        -2.4158  -23.1876  -54.0868 C.3       22 UNK         0.1400 
    121 C         -2.4474  -24.7153  -54.3970 C.2       22 UNK         0.5000 
    122 N         -2.9092  -25.1520  -55.5626 N.am      22 UNK        -0.7600 
    123 O         -2.0388  -25.5195  -53.5641 O.2       22 UNK        -0.5000 
    124 C124       -0.9434  -22.7023  -54.0296 C.3       23 UNK        -0.0398 
    125 S125       -0.7311  -20.9544  -53.5591 S.3       23 UNK        -0.2404 
    126 C126       -1.3470  -20.9640  -51.8508 C.3       23 UNK        -0.0205 
    127 H127        2.2137  -10.7834  -51.5971 H         1 UNK         0.0600 
    128 H128        3.5632  -11.4814  -50.6971 H         1 UNK         0.0600 
    129 H129        2.8342   -9.9639  -50.1609 H         1 UNK         0.0600 
    130 H130        0.2868  -11.8220  -51.1969 H         1 UNK         0.3000 
    131 H131       -0.0873  -13.5735  -48.9111 H         1 UNK         0.0600 
    132 H132       -1.7602  -12.9621  -51.3857 H         1 UNK         0.0800 
    133 H133       -2.4064  -13.9156  -50.0810 H         1 UNK         0.0800 
    134 H134       -2.3185  -16.3802  -50.0411 H         1 UNK         0.0800 
    135 H135       -1.0359  -15.9110  -48.9537 H         1 UNK         0.0800 
    136 H136       -2.0855  -18.3794  -51.4776 H         1 UNK         0.1150 
    137 H137        0.9274  -21.2078  -50.3699 H         1 UNK         0.1150 
    138 H138        1.0576  -17.2121  -48.8116 H         1 UNK         0.1150 
    139 H139        2.6953  -20.6243  -48.9103 H         1 UNK         0.0800 
    140 H140        3.2269  -18.9795  -49.1399 H         1 UNK         0.0800 
    141 H141       -0.0882  -19.8098  -47.0713 H         1 UNK         0.0800 
    142 H142        0.5476  -19.9785  -45.4560 H         1 UNK         0.0800 
    143 H143        1.0261  -21.9136  -47.7680 H         1 UNK         0.0600 
    144 H144        2.2326  -21.8551  -45.0874 H         1 UNK         0.3000 
    145 H145        3.9231  -24.9162  -45.4898 H         1 UNK         0.0600 
    146 H146        6.0005  -23.5738  -45.2452 H         1 UNK         0.0600 
    147 H147        5.3953  -23.4632  -46.8902 H         1 UNK         0.0600 
    148 H148        5.1537  -22.1206  -45.7790 H         1 UNK         0.0600 
    149 H149        4.1825  -22.7752  -43.5972 H         1 UNK         0.3000 
    150 H150        1.4883  -23.7620  -41.4755 H         1 UNK         0.0600 
    151 H151        3.4017  -25.2790  -40.9226 H         1 UNK         0.0600 
    152 H152        3.3184  -23.9067  -39.8308 H         1 UNK         0.0600 
    153 H153        4.5248  -23.9385  -41.1173 H         1 UNK         0.0600 
    154 H154        3.2760  -21.7243  -40.9832 H         1 UNK         0.3000 
    155 H155        2.3865  -19.6114  -40.9261 H         1 UNK         0.0600 
    156 H156        2.9995  -19.1230  -43.8933 H         1 UNK         0.0600 
    157 H157        4.1688  -19.5682  -42.6578 H         1 UNK         0.0600 
    158 H158        3.3723  -18.0036  -42.5833 H         1 UNK         0.0600 
    159 H159        0.8629  -18.2265  -42.9215 H         1 UNK         0.3000 
    160 H160       -2.3373  -18.9170  -41.8659 H         1 UNK         0.0600 
    161 H161       -1.0178  -16.5110  -40.5016 H         1 UNK         0.0600 
    162 H162       -1.9058  -17.7841  -39.6728 H         1 UNK         0.0600 
    163 H163       -2.7436  -16.7268  -40.7937 H         1 UNK         0.0600 
    164 H164       -1.2436  -16.4664  -42.9183 H         1 UNK         0.3000 
    165 H165       -0.7578  -17.5528  -46.2155 H         1 UNK         0.0600 
    166 H166       -2.4523  -15.8418  -46.8440 H         1 UNK         0.0600 
    167 H167       -3.2391  -17.3119  -46.2888 H         1 UNK         0.0600 
    168 H168       -3.1482  -15.9099  -45.2266 H         1 UNK         0.0600 
    169 H169       -0.8362  -14.9277  -45.1887 H         1 UNK         0.3000 
    170 H170        2.4768  -14.8438  -43.7888 H         1 UNK         0.0600 
    171 H171        2.6198  -14.3906  -46.2114 H         1 UNK         0.0600 
    172 H172        1.0688  -13.5713  -46.1982 H         1 UNK         0.0600 
    173 H173        2.4384  -12.8818  -45.3313 H         1 UNK         0.0600 
    174 H174        0.1395  -13.0882  -43.9087 H         1 UNK         0.3000 
    175 H175       -0.9174  -13.7046  -40.5984 H         1 UNK         0.0600 
    176 H176        0.6864  -11.2701  -41.5533 H         1 UNK         0.0600 
    177 H177       -0.4447  -11.3002  -40.1997 H         1 UNK         0.0600 
    178 H178        1.0426  -12.2308  -40.1228 H         1 UNK         0.0600 
    179 H179       -1.5482  -11.6612  -42.5180 H         1 UNK         0.3000 
    180 H180       -3.9636  -13.5162  -44.3520 H         1 UNK         0.0600 
    181 H181       -4.2903  -11.2222  -42.3431 H         1 UNK         0.0600 
    182 H182       -5.1692  -12.7459  -42.3001 H         1 UNK         0.0600 
    183 H183       -5.4107  -11.6377  -43.6407 H         1 UNK         0.0600 
    184 H184       -3.2063  -10.8085  -44.5691 H         1 UNK         0.3000 
    185 H185       -2.1156  -10.2319  -46.6036 H         1 UNK         0.0600 
    186 H186       -0.6767   -9.7415  -44.6109 H         1 UNK         0.0600 
    187 H187        0.5625  -10.8381  -45.2112 H         1 UNK         0.0600 
    188 H188        0.1826   -9.3612  -46.0940 H         1 UNK         0.0600 
    189 H189        0.2937  -11.6741  -47.4854 H         1 UNK         0.3000 
    190 H190        0.1201  -22.4510  -44.3527 H         1 UNK         0.3000 
    191 H191       -2.5974  -23.1250  -44.7572 H         1 UNK         0.0600 
    192 H192       -0.6471  -24.0958  -42.6027 H         1 UNK         0.0600 
    193 H193       -2.4026  -24.1595  -42.5059 H         1 UNK         0.0600 
    194 H194       -1.5833  -22.6036  -42.5388 H         1 UNK         0.0600 
    195 H195        0.3481  -25.1257  -45.0106 H         1 UNK         0.3000 
    196 H196       -0.9024  -27.6262  -45.5283 H         1 UNK         0.0600 
    197 H197        1.3336  -28.2231  -46.4761 H         1 UNK         0.0600 
    198 H198        1.4944  -27.3928  -44.9368 H         1 UNK         0.0600 
    199 H199        1.8112  -26.5303  -46.4412 H         1 UNK         0.0600 
    200 H200       -0.6267  -24.7905  -47.5210 H         1 UNK         0.3000 
    201 H201       -1.5660  -26.2150  -49.9659 H         1 UNK         0.0600 
    202 H202        0.5243  -24.8317  -50.2022 H         1 UNK         0.0600 
    203 H203       -0.3735  -23.4109  -49.6740 H         1 UNK         0.0600 
    204 H204       -0.8087  -24.2346  -51.1730 H         1 UNK         0.0600 
    205 H205       -3.0632  -25.5834  -47.4599 H         1 UNK         0.3000 
    206 H206       -5.1181  -25.2367  -46.8597 H         1 UNK         0.0600 
    207 H207       -5.8357  -24.6025  -49.7676 H         1 UNK         0.0600 
    208 H208       -5.7452  -26.2238  -49.0788 H         1 UNK         0.0600 
    209 H209       -6.9439  -25.0843  -48.4935 H         1 UNK         0.0600 
    210 H210       -3.1862  -22.7551  -47.5143 H         1 UNK         0.3000 
    211 H211       -3.1176  -20.5627  -47.2345 H         1 UNK         0.0600 
    212 H212       -5.5216  -20.9576  -45.3733 H         1 UNK         0.0600 
    213 H213       -4.4408  -19.5709  -45.3875 H         1 UNK         0.0600 
    214 H214       -3.8261  -21.1423  -44.9233 H         1 UNK         0.0600 
    215 H215       -4.4138  -21.3928  -49.5514 H         1 UNK         0.3000 
    216 H216       -6.8142  -19.8690  -50.0794 H         1 UNK         0.0600 
    217 H217       -6.6417  -20.9466  -52.2795 H         1 UNK         0.0600 
    218 H218       -6.2110  -22.1403  -51.0763 H         1 UNK         0.0600 
    219 H219       -4.9480  -21.3503  -52.0151 H         1 UNK         0.0600 
    220 H220       -6.4607  -18.9136  -52.6219 H         1 UNK         0.3000 
    221 H221       -4.8243  -16.4878  -52.4138 H         1 UNK         0.0600 
    222 H222       -6.4452  -17.6801  -54.7415 H         1 UNK         0.0600 
    223 H223       -7.0380  -16.4731  -53.6011 H         1 UNK         0.0600 
    224 H224       -5.7302  -16.0738  -54.7015 H         1 UNK         0.0600 
    225 H225       -3.1026  -16.0416  -53.9747 H         1 UNK         0.3000 
    226 H226       -1.1106  -17.9883  -54.0797 H         1 UNK         0.0600 
    227 H227       -0.6861  -15.5454  -54.1114 H         1 UNK         0.0600 
    228 H228        0.0991  -16.3081  -55.4814 H         1 UNK         0.0600 
    229 H229       -1.3976  -15.4137  -55.7189 H         1 UNK         0.0600 
    230 H230       -3.6313  -17.3915  -56.4318 H         1 UNK         0.3000 
    231 H231       -2.3694  -19.0194  -58.5539 H         1 UNK         0.0600 
    232 H232       -3.5849  -16.9210  -59.1428 H         1 UNK         0.0600 
    233 H233       -5.0623  -17.5592  -58.4207 H         1 UNK         0.0600 
    234 H234       -4.3714  -18.3230  -59.8472 H         1 UNK         0.0600 
    235 H235       -4.0764  -19.7204  -55.7140 H         1 UNK         0.3000 
    236 H236       -5.5672  -22.0361  -56.8837 H         1 UNK         0.0600 
    237 H237       -7.2590  -21.5760  -55.1294 H         1 UNK         0.0600 
    238 H238       -6.3194  -20.2043  -54.5514 H         1 UNK         0.0600 
    239 H239       -7.0502  -20.1660  -56.1534 H         1 UNK         0.0600 
    240 H240       -2.7488  -21.6666  -55.5342 H         1 UNK         0.3000 
    241 H241       -2.8352  -23.0884  -53.0838 H         1 UNK         0.0600 
    242 H242       -3.2479  -24.5052  -56.2563 H         1 UNK         0.3800 
    243 H243       -2.9252  -26.1423  -55.7497 H         1 UNK         0.3800 
    244 H244       -0.4702  -22.8374  -55.0037 H         1 UNK         0.0800 
    245 H245       -0.3619  -23.3065  -53.3316 H         1 UNK         0.0800 
    246 H246       -2.4252  -20.7944  -51.8605 H         1 UNK         0.0800 
    247 H247       -1.1968  -21.9425  -51.3990 H         1 UNK         0.0800 
@<TRIPOS>BOND
     1    1    2 1    
     2    1  127 1    
     3    1  128 1    
     4    1  129 1    
     5    2    3 2    
     6    2    4 am   BACKBONE|DICT|INTERRES
     7    4    5 1    
     8    4  130 1    
     9    5    6 1    
    10    5   65 1    
    11    5  131 1    
    12    6    7 1    
    13    6  132 1    
    14    6  133 1    
    15    7    8 1    
    16    8    9 1    
    17    8  134 1    
    18    8  135 1    
    19    9   10 ar   
    20    9   14 ar   
    21   10   11 ar   
    22   10  136 1    
    23   11   12 ar   
    24   11  126 1    
    25   12   13 ar   
    26   12  137 1    
    27   13   14 ar   
    28   13   15 1    
    29   14  138 1    
    30   15   16 1    
    31   15  139 1    
    32   15  140 1    
    33   16   17 1    
    34   17   18 1    
    35   17  141 1    
    36   17  142 1    
    37   18   19 1    
    38   18   67 1    
    39   18  143 1    
    40   19   20 am   BACKBONE|DICT|INTERRES
    41   19  144 1    
    42   20   21 2    
    43   20   22 1    
    44   22   23 1    
    45   22   24 1    
    46   22  145 1    
    47   23  146 1    
    48   23  147 1    
    49   23  148 1    
    50   24   25 am   BACKBONE|DICT|INTERRES
    51   24  149 1    
    52   25   26 2    
    53   25   27 1    
    54   27   28 1    
    55   27   29 1    
    56   27  150 1    
    57   28  151 1    
    58   28  152 1    
    59   28  153 1    
    60   29   30 am   BACKBONE|DICT|INTERRES
    61   29  154 1    
    62   30   31 2    
    63   30   32 1    
    64   32   33 1    
    65   32   34 1    
    66   32  155 1    
    67   33  156 1    
    68   33  157 1    
    69   33  158 1    
    70   34   35 am   BACKBONE|DICT|INTERRES
    71   34  159 1    
    72   35   36 2    
    73   35   37 1    
    74   37   38 1    
    75   37   39 1    
    76   37  160 1    
    77   38  161 1    
    78   38  162 1    
    79   38  163 1    
    80   39   40 am   BACKBONE|DICT|INTERRES
    81   39  164 1    
    82   40   41 2    
    83   40   42 1    
    84   42   43 1    
    85   42   44 1    
    86   42  165 1    
    87   43  166 1    
    88   43  167 1    
    89   43  168 1    
    90   44   45 am   BACKBONE|DICT|INTERRES
    91   44  169 1    
    92   45   46 2    
    93   45   47 1    
    94   47   48 1    
    95   47   49 1    
    96   47  170 1    
    97   48  171 1    
    98   48  172 1    
    99   48  173 1    
   100   49   50 am   BACKBONE|DICT|INTERRES
   101   49  174 1    
   102   50   51 2    
   103   50   52 1    
   104   52   53 1    
   105   52   54 1    
   106   52  175 1    
   107   53  176 1    
   108   53  177 1    
   109   53  178 1    
   110   54   55 am   BACKBONE|DICT|INTERRES
   111   54  179 1    
   112   55   56 2    
   113   55   57 1    
   114   57   58 1    
   115   57   59 1    
   116   57  180 1    
   117   58  181 1    
   118   58  182 1    
   119   58  183 1    
   120   59   60 am   BACKBONE|DICT|INTERRES
   121   59  184 1    
   122   60   61 2    
   123   60   62 1    
   124   62   63 1    
   125   62   64 1    
   126   62  185 1    
   127   63  186 1    
   128   63  187 1    
   129   63  188 1    
   130   64   65 am   BACKBONE|DICT|INTERRES
   131   64  189 1    
   132   65   66 2    
   133   67   68 2    
   134   67   69 am   BACKBONE|DICT|INTERRES
   135   69   70 1    
   136   69  190 1    
   137   70   71 1    
   138   70   72 1    
   139   70  191 1    
   140   71  192 1    
   141   71  193 1    
   142   71  194 1    
   143   72   73 2    
   144   72   74 am   BACKBONE|DICT|INTERRES
   145   74   75 1    
   146   74  195 1    
   147   75   76 1    
   148   75   77 1    
   149   75  196 1    
   150   76  197 1    
   151   76  198 1    
   152   76  199 1    
   153   77   78 2    
   154   77   79 am   BACKBONE|DICT|INTERRES
   155   79   80 1    
   156   79  200 1    
   157   80   81 1    
   158   80   82 1    
   159   80  201 1    
   160   81  202 1    
   161   81  203 1    
   162   81  204 1    
   163   82   83 2    
   164   82   84 am   BACKBONE|DICT|INTERRES
   165   84   85 1    
   166   84  205 1    
   167   85   86 1    
   168   85   87 1    
   169   85  206 1    
   170   86  207 1    
   171   86  208 1    
   172   86  209 1    
   173   87   88 2    
   174   87   89 am   BACKBONE|DICT|INTERRES
   175   89   90 1    
   176   89  210 1    
   177   90   91 1    
   178   90   92 1    
   179   90  211 1    
   180   91  212 1    
   181   91  213 1    
   182   91  214 1    
   183   92   93 2    
   184   92   94 am   BACKBONE|DICT|INTERRES
   185   94   95 1    
   186   94  215 1    
   187   95   96 1    
   188   95   97 1    
   189   95  216 1    
   190   96  217 1    
   191   96  218 1    
   192   96  219 1    
   193   97   98 2    
   194   97   99 am   BACKBONE|DICT|INTERRES
   195   99  100 1    
   196   99  220 1    
   197  100  101 1    
   198  100  102 1    
   199  100  221 1    
   200  101  222 1    
   201  101  223 1    
   202  101  224 1    
   203  102  103 2    
   204  102  104 am   BACKBONE|DICT|INTERRES
   205  104  105 1    
   206  104  225 1    
   207  105  106 1    
   208  105  107 1    
   209  105  226 1    
   210  106  227 1    
   211  106  228 1    
   212  106  229 1    
   213  107  108 2    
   214  107  109 am   BACKBONE|DICT|INTERRES
   215  109  110 1    
   216  109  230 1    
   217  110  111 1    
   218  110  112 1    
   219  110  231 1    
   220  111  232 1    
   221  111  233 1    
   222  111  234 1    
   223  112  113 2    
   224  112  114 am   BACKBONE|DICT|INTERRES
   225  114  115 1    
   226  114  235 1    
   227  115  116 1    
   228  115  117 1    
   229  115  236 1    
   230  116  237 1    
   231  116  238 1    
   232  116  239 1    
   233  117  118 2    
   234  117  119 am   BACKBONE|DICT|INTERRES
   235  119  120 1    
   236  119  240 1    
   237  120  121 1    
   238  120  124 1    
   239  120  241 1    
   240  121  122 am   BACKBONE|DICT|INTERRES
   241  121  123 2    
   242  122  242 1    
   243  122  243 1    
   244  124  125 1    
   245  124  244 1    
   246  124  245 1    
   247  125  126 1    
   248  126  246 1    
   249  126  247 1    
@<TRIPOS>SUBSTRUCTURE
     1 UNK         1 GROUP             0       ****    0 ROOT    
