@<TRIPOS>MOLECULE
3R540
247   249    1
SMALL
USER_CHARGES


@<TRIPOS>ATOM
      1 CA          3.4915  -17.1372  -46.4624 C.3       0 UNK        -0.1800 
      2 C           2.6879  -15.8523  -46.3403 C.2       0 UNK         0.5000 
      3 O           3.2270  -14.7720  -46.5810 O.2       0 UNK        -0.5000 
      4 N           1.4051  -15.9635  -45.9711 N.am      1 UNK        -0.5000 
      5 CA          0.4748  -14.8678  -45.6600 C.3       1 UNK         0.1400 
      6 C6         -0.8492  -15.3986  -45.0489 C.3       23 UNK        -0.0398 
      7 S7         -2.1448  -15.9541  -46.2171 S.3       23 UNK        -0.2404 
      8 C8         -1.6840  -17.6780  -46.5877 C.3       23 UNK        -0.0205 
      9 C9         -0.8548  -17.8086  -47.8603 C.ar      23 UNK        -0.0193 
     10 C10        -1.3150  -17.2690  -49.0673 C.ar      23 UNK        -0.1150 
     11 C11        -0.5738  -17.4141  -50.2434 C.ar      23 UNK        -0.0193 
     12 C12         0.6457  -18.0924  -50.2038 C.ar      23 UNK        -0.1150 
     13 C13         1.0912  -18.6827  -49.0201 C.ar      23 UNK        -0.0193 
     14 C14         0.3435  -18.5281  -47.8481 C.ar      23 UNK        -0.1150 
     15 C15         2.3478  -19.5398  -49.0296 C.3       23 UNK        -0.0205 
     16 S16         2.1998  -21.0283  -50.0852 S.3       23 UNK        -0.2404 
     17 C17         0.5329  -21.6958  -49.7238 C.3       23 UNK        -0.0398 
     18 CA          0.5200  -22.8232  -48.6658 C.3       11 UNK         0.1400 
     19 N           1.0976  -22.3699  -47.3949 N.am      11 UNK        -0.5000 
     20 C           1.2806  -23.0918  -46.2806 C.2       10 UNK         0.5000 
     21 O           0.9844  -24.2820  -46.1792 O.2       10 UNK        -0.5000 
     22 CA          1.8499  -22.3410  -45.0592 C.3       10 UNK         0.1400 
     23 CB          2.8888  -21.2686  -45.4425 C.3       10 UNK        -0.1800 
     24 N           0.8436  -21.7316  -44.1799 N.am      10 UNK        -0.5000 
     25 C          -0.2772  -21.0639  -44.5034 C.2       9 UNK         0.5000 
     26 O          -0.7632  -20.9968  -45.6313 O.2       9 UNK        -0.5000 
     27 CA         -0.9333  -20.2651  -43.3637 C.3       9 UNK         0.1400 
     28 CB         -1.7569  -21.1795  -42.4451 C.3       9 UNK        -0.1800 
     29 N           0.0376  -19.5168  -42.5620 N.am      9 UNK        -0.5000 
     30 C           0.8909  -18.5931  -43.0266 C.2       8 UNK         0.5000 
     31 O           0.9689  -18.2686  -44.2131 O.2       8 UNK        -0.5000 
     32 CA          1.7815  -17.9053  -41.9732 C.3       8 UNK         0.1400 
     33 CB          2.7918  -16.9311  -42.6022 C.3       8 UNK        -0.1800 
     34 N           0.9715  -17.1842  -40.9898 N.am      8 UNK        -0.5000 
     35 C           0.3547  -17.7467  -39.9392 C.2       7 UNK         0.5000 
     36 O           0.4287  -18.9495  -39.6817 O.2       7 UNK        -0.5000 
     37 CA         -0.4997  -16.8385  -39.0308 C.3       7 UNK         0.1400 
     38 CB          0.2914  -16.4441  -37.7743 C.3       7 UNK        -0.1800 
     39 N          -0.9714  -15.6214  -39.6904 N.am      7 UNK        -0.5000 
     40 C          -1.8628  -15.5764  -40.6902 C.2       6 UNK         0.5000 
     41 O          -2.4535  -16.5657  -41.1236 O.2       6 UNK        -0.5000 
     42 CA         -2.1231  -14.1955  -41.3296 C.3       6 UNK         0.1400 
     43 CB         -3.4200  -13.5869  -40.7751 C.3       6 UNK        -0.1800 
     44 N          -1.0338  -13.2232  -41.1622 N.am      6 UNK        -0.5000 
     45 C           0.2311  -13.3857  -41.5748 C.2       5 UNK         0.5000 
     46 O           0.6412  -14.4128  -42.1194 O.2       5 UNK        -0.5000 
     47 CA          1.2033  -12.2330  -41.2524 C.3       5 UNK         0.1400 
     48 CB          1.5699  -12.2513  -39.7592 C.3       5 UNK        -0.1800 
     49 N           2.4410  -12.3050  -42.0304 N.am      5 UNK        -0.5000 
     50 C           2.5314  -12.1158  -43.3523 C.2       4 UNK         0.5000 
     51 O           1.5783  -11.7661  -44.0520 O.2       4 UNK        -0.5000 
     52 CA          3.9223  -12.3529  -43.9776 C.3       4 UNK         0.1400 
     53 CB          4.5061  -13.7205  -43.5784 C.3       4 UNK        -0.1800 
     54 N           3.8743  -12.2889  -45.4370 N.am      4 UNK        -0.5000 
     55 C           3.9946  -11.1735  -46.1671 C.2       3 UNK         0.5000 
     56 O           4.2059  -10.0603  -45.6830 O.2       3 UNK        -0.5000 
     57 CA          3.8646  -11.3181  -47.6928 C.3       3 UNK         0.1400 
     58 CB          5.2014  -11.7602  -48.3093 C.3       3 UNK        -0.1800 
     59 N           2.8259  -12.2814  -48.0610 N.am      3 UNK        -0.5000 
     60 C           1.7916  -12.0254  -48.8742 C.2       2 UNK         0.5000 
     61 O           1.6085  -10.9417  -49.4308 O.2       2 UNK        -0.5000 
     62 CA          0.7859  -13.1708  -49.1188 C.3       2 UNK         0.1400 
     63 CB          1.1570  -13.9367  -50.3965 C.3       2 UNK        -0.1800 
     64 N           0.7077  -14.1171  -48.0066 N.am      2 UNK        -0.5000 
     65 C           0.2467  -13.8247  -46.7830 C.2       1 UNK         0.5000 
     66 O          -0.3242  -12.7663  -46.5170 O.2       1 UNK        -0.5000 
     67 C          -0.9102  -23.4001  -48.5300 C.2       11 UNK         0.5000 
     68 O          -1.3409  -24.1610  -49.3984 O.2       11 UNK        -0.5000 
     69 N          -1.6170  -23.0654  -47.4405 N.am      12 UNK        -0.5000 
     70 CA         -2.8926  -23.6605  -47.0389 C.3       12 UNK         0.1400 
     71 CB         -3.4219  -22.9345  -45.7942 C.3       12 UNK        -0.1800 
     72 C          -2.8107  -25.1760  -46.7702 C.2       12 UNK         0.5000 
     73 O          -3.8059  -25.8683  -46.9788 O.2       12 UNK        -0.5000 
     74 N          -1.6337  -25.6831  -46.3695 N.am      13 UNK        -0.5000 
     75 CA         -1.3777  -27.1157  -46.1788 C.3       13 UNK         0.1400 
     76 CB         -0.0496  -27.3055  -45.4315 C.3       13 UNK        -0.1800 
     77 C          -1.3697  -27.9048  -47.5039 C.2       13 UNK         0.5000 
     78 O          -1.6871  -29.0942  -47.5046 O.2       13 UNK        -0.5000 
     79 N          -1.0424  -27.2199  -48.6082 N.am      14 UNK        -0.5000 
     80 CA         -1.1284  -27.7303  -49.9776 C.3       14 UNK         0.1400 
     81 CB          0.0276  -27.1253  -50.7927 C.3       14 UNK        -0.1800 
     82 C          -2.4876  -27.4044  -50.6339 C.2       14 UNK         0.5000 
     83 O          -2.6888  -27.7477  -51.7987 O.2       14 UNK        -0.5000 
     84 N          -3.3743  -26.7184  -49.8940 N.am      15 UNK        -0.5000 
     85 CA         -4.6849  -26.1864  -50.2855 C.3       15 UNK         0.1400 
     86 CB         -5.6409  -27.3126  -50.7262 C.3       15 UNK        -0.1800 
     87 C          -4.6257  -25.0406  -51.3168 C.2       15 UNK         0.5000 
     88 O          -5.6770  -24.5882  -51.7699 O.2       15 UNK        -0.5000 
     89 N          -3.4236  -24.5497  -51.6484 N.am      16 UNK        -0.5000 
     90 CA         -3.2097  -23.5076  -52.6519 C.3       16 UNK         0.1400 
     91 CB         -1.7224  -23.4407  -53.0225 C.3       16 UNK        -0.1800 
     92 C          -3.7302  -22.1362  -52.1980 C.2       16 UNK         0.5000 
     93 O          -4.2893  -21.4052  -53.0143 O.2       16 UNK        -0.5000 
     94 N          -3.5817  -21.8277  -50.9022 N.am      17 UNK        -0.5000 
     95 CA         -4.1283  -20.6099  -50.2977 C.3       17 UNK         0.1400 
     96 CB         -3.4360  -20.3325  -48.9573 C.3       17 UNK        -0.1800 
     97 C          -5.6569  -20.6685  -50.1241 C.2       17 UNK         0.5000 
     98 O          -6.3138  -19.6317  -50.2103 O.2       17 UNK        -0.5000 
     99 N          -6.1983  -21.8770  -49.9120 N.am      18 UNK        -0.5000 
    100 CA        -7.6361  -22.1311  -49.8030 C.3       18 UNK         0.1400 
    101 CB        -7.8678  -23.5097  -49.1641 C.3       18 UNK        -0.1800 
    102 C         -8.3402  -22.0263  -51.1681 C.2       18 UNK         0.5000 
    103 O         -9.4204  -21.4420  -51.2558 O.2       18 UNK        -0.5000 
    104 N         -7.6958  -22.5653  -52.2119 N.am      19 UNK        -0.5000 
    105 CA        -8.1424  -22.4926  -53.6040 C.3       19 UNK         0.1400 
    106 CB        -7.3968  -23.5686  -54.4100 C.3       19 UNK        -0.1800 
    107 C         -7.9256  -21.1088  -54.2496 C.2       19 UNK         0.5000 
    108 O         -8.5127  -20.8413  -55.2985 O.2       19 UNK        -0.5000 
    109 N         -7.0651  -20.2801  -53.6371 N.am      20 UNK        -0.5000 
    110 CA        -6.5444  -19.0007  -54.1362 C.3       20 UNK         0.1400 
    111 CB        -7.6663  -17.9516  -54.2774 C.3       20 UNK        -0.1800 
    112 C         -5.7008  -19.1732  -55.4195 C.2       20 UNK         0.5000 
    113 O         -5.6803  -18.2947  -56.2831 O.2       20 UNK        -0.5000 
    114 N         -5.0095  -20.3155  -55.5057 N.am      21 UNK        -0.5000 
    115 CA        -4.1117  -20.7053  -56.5906 C.3       21 UNK         0.1400 
    116 CB        -4.1988  -22.2310  -56.7580 C.3       21 UNK        -0.1800 
    117 C         -2.6566  -20.2753  -56.3213 C.2       21 UNK         0.5000 
    118 O         -1.8198  -20.3834  -57.2181 O.2       21 UNK        -0.5000 
    119 N         -2.3763  -19.8102  -55.0969 N.am      22 UNK        -0.5000 
    120 CA        -1.0614  -19.3501  -54.6268 C.3       22 UNK         0.1400 
    121 C         -0.5108  -18.0525  -55.2944 C.2       22 UNK         0.5000 
    122 N         -1.3051  -17.2956  -56.0417 N.am      22 UNK        -0.7600 
    123 O          0.6642  -17.7334  -55.1356 O.2       22 UNK        -0.5000 
    124 C124       -1.0282  -19.2604  -53.0803 C.3       23 UNK        -0.0398 
    125 S125       -2.2093  -18.0436  -52.3894 S.3       23 UNK        -0.2404 
    126 C126       -1.1019  -16.8602  -51.5588 C.3       23 UNK        -0.0205 
    127 H127        4.3768  -17.0848  -45.8291 H         1 UNK         0.0600 
    128 H128        3.8148  -17.2801  -47.4929 H         1 UNK         0.0600 
    129 H129        2.9106  -18.0072  -46.1591 H         1 UNK         0.0600 
    130 H130        1.0612  -16.8866  -45.7284 H         1 UNK         0.3000 
    131 H131        0.9728  -14.3122  -44.8639 H         1 UNK         0.0600 
    132 H132       -0.6536  -16.1820  -44.3166 H         1 UNK         0.0800 
    133 H133       -1.2959  -14.5882  -44.4732 H         1 UNK         0.0800 
    134 H134       -2.5960  -18.2618  -46.7126 H         1 UNK         0.0800 
    135 H135       -1.1652  -18.1118  -45.7340 H         1 UNK         0.0800 
    136 H136       -2.2604  -16.7460  -49.0936 H         1 UNK         0.1150 
    137 H137        1.2315  -18.2079  -51.1039 H         1 UNK         0.1150 
    138 H138        0.6776  -18.9870  -46.9285 H         1 UNK         0.1150 
    139 H139        2.6183  -19.8458  -48.0215 H         1 UNK         0.0800 
    140 H140        3.1825  -18.9387  -49.3925 H         1 UNK         0.0800 
    141 H141        0.1491  -22.0732  -50.6710 H         1 UNK         0.0800 
    142 H142       -0.1489  -20.8966  -49.4388 H         1 UNK         0.0800 
    143 H143        1.1500  -23.6379  -49.0279 H         1 UNK         0.0600 
    144 H144        1.3190  -21.3877  -47.3520 H         1 UNK         0.3000 
    145 H145        2.3670  -23.0946  -44.4630 H         1 UNK         0.0600 
    146 H146        3.5864  -21.6321  -46.1985 H         1 UNK         0.0600 
    147 H147        3.4795  -20.9765  -44.5742 H         1 UNK         0.0600 
    148 H148        2.4125  -20.3661  -45.8219 H         1 UNK         0.0600 
    149 H149        1.0973  -21.7214  -43.2027 H         1 UNK         0.3000 
    150 H150       -1.6122  -19.5390  -43.8147 H         1 UNK         0.0600 
    151 H151       -2.2638  -20.6035  -41.6706 H         1 UNK         0.0600 
    152 H152       -2.5265  -21.7084  -43.0073 H         1 UNK         0.0600 
    153 H153       -1.1343  -21.9272  -41.9524 H         1 UNK         0.0600 
    154 H154        0.0298  -19.6795  -41.5610 H         1 UNK         0.3000 
    155 H155        2.3512  -18.6862  -41.4654 H         1 UNK         0.0600 
    156 H156        2.2888  -16.1461  -43.1657 H         1 UNK         0.0600 
    157 H157        3.4598  -17.4508  -43.2899 H         1 UNK         0.0600 
    158 H158        3.4109  -16.4543  -41.8424 H         1 UNK         0.0600 
    159 H159        0.8157  -16.2003  -41.1853 H         1 UNK         0.3000 
    160 H160       -1.3731  -17.4152  -38.7197 H         1 UNK         0.0600 
    161 H161        0.6381  -17.3278  -37.2368 H         1 UNK         0.0600 
    162 H162       -0.3248  -15.8674  -37.0842 H         1 UNK         0.0600 
    163 H163        1.1690  -15.8457  -38.0229 H         1 UNK         0.0600 
    164 H164       -0.5434  -14.7555  -39.3994 H         1 UNK         0.3000 
    165 H165       -2.2589  -14.3589  -42.3990 H         1 UNK         0.0600 
    166 H166       -4.2609  -14.2692  -40.9075 H         1 UNK         0.0600 
    167 H167       -3.3384  -13.3696  -39.7093 H         1 UNK         0.0600 
    168 H168       -3.6735  -12.6598  -41.2897 H         1 UNK         0.0600 
    169 H169       -1.2838  -12.3584  -40.7041 H         1 UNK         0.3000 
    170 H170        0.7064  -11.2887  -41.4843 H         1 UNK         0.0600 
    171 H171        2.0614  -13.1836  -39.4770 H         1 UNK         0.0600 
    172 H172        0.6846  -12.1442  -39.1313 H         1 UNK         0.0600 
    173 H173        2.2411  -11.4297  -39.5080 H         1 UNK         0.0600 
    174 H174        3.2606  -12.6137  -41.5295 H         1 UNK         0.3000 
    175 H175        4.5903  -11.5746  -43.6030 H         1 UNK         0.0600 
    176 H176        4.6733  -13.7924  -42.5036 H         1 UNK         0.0600 
    177 H177        3.8417  -14.5343  -43.8643 H         1 UNK         0.0600 
    178 H178        5.4677  -13.8935  -44.0621 H         1 UNK         0.0600 
    179 H179        3.6788  -13.1706  -45.9043 H         1 UNK         0.3000 
    180 H180        3.6229  -10.3280  -48.0846 H         1 UNK         0.0600 
    181 H181        5.4953  -12.7521  -47.9635 H         1 UNK         0.0600 
    182 H182        6.0022  -11.0679  -48.0461 H         1 UNK         0.0600 
    183 H183        5.1410  -11.7896  -49.3974 H         1 UNK         0.0600 
    184 H184        2.8877  -13.2003  -47.6326 H         1 UNK         0.3000 
    185 H185       -0.2010  -12.7249  -49.2574 H         1 UNK         0.0600 
    186 H186        1.2221  -13.2642  -51.2528 H         1 UNK         0.0600 
    187 H187        2.1188  -14.4421  -50.2996 H         1 UNK         0.0600 
    188 H188        0.4057  -14.6871  -50.6323 H         1 UNK         0.0600 
    189 H189        1.1461  -15.0166  -48.1403 H         1 UNK         0.3000 
    190 H190       -1.2151  -22.3877  -46.7955 H         1 UNK         0.3000 
    191 H191       -3.6021  -23.5111  -47.8549 H         1 UNK         0.0600 
    192 H192       -3.5055  -21.8605  -45.9596 H         1 UNK         0.0600 
    193 H193       -4.4122  -23.3001  -45.5195 H         1 UNK         0.0600 
    194 H194       -2.7651  -23.0904  -44.9383 H         1 UNK         0.0600 
    195 H195       -0.8390  -25.0629  -46.2416 H         1 UNK         0.3000 
    196 H196       -2.1777  -27.5220  -45.5563 H         1 UNK         0.0600 
    197 H197        0.7988  -26.9624  -46.0247 H         1 UNK         0.0600 
    198 H198        0.1191  -28.3576  -45.1988 H         1 UNK         0.0600 
    199 H199       -0.0437  -26.7582  -44.4887 H         1 UNK         0.0600 
    200 H200       -0.8170  -26.2382  -48.5173 H         1 UNK         0.3000 
    201 H201       -1.0150  -28.8163  -49.9781 H         1 UNK         0.0600 
    202 H202        0.0429  -27.5239  -51.8079 H         1 UNK         0.0600 
    203 H203        0.9920  -27.3579  -50.3408 H         1 UNK         0.0600 
    204 H204       -0.0539  -26.0406  -50.8687 H         1 UNK         0.0600 
    205 H205       -3.1123  -26.5104  -48.9392 H         1 UNK         0.3000 
    206 H206       -5.1054  -25.7432  -49.3822 H         1 UNK         0.0600 
    207 H207       -5.3384  -27.7564  -51.6749 H         1 UNK         0.0600 
    208 H208       -5.6846  -28.1069  -49.9810 H         1 UNK         0.0600 
    209 H209       -6.6559  -26.9348  -50.8552 H         1 UNK         0.0600 
    210 H210       -2.6048  -24.9130  -51.1787 H         1 UNK         0.3000 
    211 H211       -3.7664  -23.7852  -53.5493 H         1 UNK         0.0600 
    212 H212       -1.5331  -22.6509  -53.7510 H         1 UNK         0.0600 
    213 H213       -1.3880  -24.3786  -53.4663 H         1 UNK         0.0600 
    214 H214       -1.0997  -23.2467  -52.1510 H         1 UNK         0.0600 
    215 H215       -3.1056  -22.4821  -50.2984 H         1 UNK         0.3000 
    216 H216       -3.9163  -19.7716  -50.9606 H         1 UNK         0.0600 
    217 H217       -3.6310  -21.1192  -48.2318 H         1 UNK         0.0600 
    218 H218       -2.3579  -20.2385  -49.0785 H         1 UNK         0.0600 
    219 H219       -3.7932  -19.3965  -48.5271 H         1 UNK         0.0600 
    220 H220       -5.5922  -22.6818  -49.8959 H         1 UNK         0.3000 
    221 H221       -8.0699  -21.3767  -49.1430 H         1 UNK         0.0600 
    222 H222       -7.4715  -24.3173  -49.7795 H         1 UNK         0.0600 
    223 H223       -7.3978  -23.5740  -48.1826 H         1 UNK         0.0600 
    224 H224       -8.9332  -23.6984  -49.0266 H         1 UNK         0.0600 
    225 H225       -6.8513  -23.1045  -52.0404 H         1 UNK         0.3000 
    226 H226       -9.2114  -22.7124  -53.6403 H         1 UNK         0.0600 
    227 H227       -7.5828  -24.5638  -54.0058 H         1 UNK         0.0600 
    228 H228       -7.7198  -23.5752  -55.4518 H         1 UNK         0.0600 
    229 H229       -6.3189  -23.4007  -54.4011 H         1 UNK         0.0600 
    230 H230       -6.6234  -20.6235  -52.7956 H         1 UNK         0.3000 
    231 H231       -5.8548  -18.6409  -53.3710 H         1 UNK         0.0600 
    232 H232       -8.3562  -18.1976  -55.0848 H         1 UNK         0.0600 
    233 H233       -7.2522  -16.9660  -54.4930 H         1 UNK         0.0600 
    234 H234       -8.2429  -17.8661  -53.3563 H         1 UNK         0.0600 
    235 H235       -5.0192  -20.9279  -54.6946 H         1 UNK         0.3000 
    236 H236       -4.4334  -20.2347  -57.5218 H         1 UNK         0.0600 
    237 H237       -3.8659  -22.7534  -55.8605 H         1 UNK         0.0600 
    238 H238       -5.2209  -22.5463  -56.9691 H         1 UNK         0.0600 
    239 H239       -3.5764  -22.5711  -57.5867 H         1 UNK         0.0600 
    240 H240       -3.1249  -19.7674  -54.4198 H         1 UNK         0.3000 
    241 H241       -0.3530  -20.1319  -54.9076 H         1 UNK         0.0600 
    242 H242       -0.9367  -16.4620  -56.4718 H         1 UNK         0.3800 
    243 H243       -2.2717  -17.5452  -56.1759 H         1 UNK         0.3800 
    244 H244       -0.0151  -19.0390  -52.7493 H         1 UNK         0.0800 
    245 H245       -1.2642  -20.2335  -52.6487 H         1 UNK         0.0800 
    246 H246       -1.6546  -15.9386  -51.3709 H         1 UNK         0.0800 
    247 H247       -0.2800  -16.5927  -52.2249 H         1 UNK         0.0800 
@<TRIPOS>BOND
     1    1    2 1    
     2    1  127 1    
     3    1  128 1    
     4    1  129 1    
     5    2    3 2    
     6    2    4 am   BACKBONE|DICT|INTERRES
     7    4    5 1    
     8    4  130 1    
     9    5    6 1    
    10    5   65 1    
    11    5  131 1    
    12    6    7 1    
    13    6  132 1    
    14    6  133 1    
    15    7    8 1    
    16    8    9 1    
    17    8  134 1    
    18    8  135 1    
    19    9   10 ar   
    20    9   14 ar   
    21   10   11 ar   
    22   10  136 1    
    23   11   12 ar   
    24   11  126 1    
    25   12   13 ar   
    26   12  137 1    
    27   13   14 ar   
    28   13   15 1    
    29   14  138 1    
    30   15   16 1    
    31   15  139 1    
    32   15  140 1    
    33   16   17 1    
    34   17   18 1    
    35   17  141 1    
    36   17  142 1    
    37   18   19 1    
    38   18   67 1    
    39   18  143 1    
    40   19   20 am   BACKBONE|DICT|INTERRES
    41   19  144 1    
    42   20   21 2    
    43   20   22 1    
    44   22   23 1    
    45   22   24 1    
    46   22  145 1    
    47   23  146 1    
    48   23  147 1    
    49   23  148 1    
    50   24   25 am   BACKBONE|DICT|INTERRES
    51   24  149 1    
    52   25   26 2    
    53   25   27 1    
    54   27   28 1    
    55   27   29 1    
    56   27  150 1    
    57   28  151 1    
    58   28  152 1    
    59   28  153 1    
    60   29   30 am   BACKBONE|DICT|INTERRES
    61   29  154 1    
    62   30   31 2    
    63   30   32 1    
    64   32   33 1    
    65   32   34 1    
    66   32  155 1    
    67   33  156 1    
    68   33  157 1    
    69   33  158 1    
    70   34   35 am   BACKBONE|DICT|INTERRES
    71   34  159 1    
    72   35   36 2    
    73   35   37 1    
    74   37   38 1    
    75   37   39 1    
    76   37  160 1    
    77   38  161 1    
    78   38  162 1    
    79   38  163 1    
    80   39   40 am   BACKBONE|DICT|INTERRES
    81   39  164 1    
    82   40   41 2    
    83   40   42 1    
    84   42   43 1    
    85   42   44 1    
    86   42  165 1    
    87   43  166 1    
    88   43  167 1    
    89   43  168 1    
    90   44   45 am   BACKBONE|DICT|INTERRES
    91   44  169 1    
    92   45   46 2    
    93   45   47 1    
    94   47   48 1    
    95   47   49 1    
    96   47  170 1    
    97   48  171 1    
    98   48  172 1    
    99   48  173 1    
   100   49   50 am   BACKBONE|DICT|INTERRES
   101   49  174 1    
   102   50   51 2    
   103   50   52 1    
   104   52   53 1    
   105   52   54 1    
   106   52  175 1    
   107   53  176 1    
   108   53  177 1    
   109   53  178 1    
   110   54   55 am   BACKBONE|DICT|INTERRES
   111   54  179 1    
   112   55   56 2    
   113   55   57 1    
   114   57   58 1    
   115   57   59 1    
   116   57  180 1    
   117   58  181 1    
   118   58  182 1    
   119   58  183 1    
   120   59   60 am   BACKBONE|DICT|INTERRES
   121   59  184 1    
   122   60   61 2    
   123   60   62 1    
   124   62   63 1    
   125   62   64 1    
   126   62  185 1    
   127   63  186 1    
   128   63  187 1    
   129   63  188 1    
   130   64   65 am   BACKBONE|DICT|INTERRES
   131   64  189 1    
   132   65   66 2    
   133   67   68 2    
   134   67   69 am   BACKBONE|DICT|INTERRES
   135   69   70 1    
   136   69  190 1    
   137   70   71 1    
   138   70   72 1    
   139   70  191 1    
   140   71  192 1    
   141   71  193 1    
   142   71  194 1    
   143   72   73 2    
   144   72   74 am   BACKBONE|DICT|INTERRES
   145   74   75 1    
   146   74  195 1    
   147   75   76 1    
   148   75   77 1    
   149   75  196 1    
   150   76  197 1    
   151   76  198 1    
   152   76  199 1    
   153   77   78 2    
   154   77   79 am   BACKBONE|DICT|INTERRES
   155   79   80 1    
   156   79  200 1    
   157   80   81 1    
   158   80   82 1    
   159   80  201 1    
   160   81  202 1    
   161   81  203 1    
   162   81  204 1    
   163   82   83 2    
   164   82   84 am   BACKBONE|DICT|INTERRES
   165   84   85 1    
   166   84  205 1    
   167   85   86 1    
   168   85   87 1    
   169   85  206 1    
   170   86  207 1    
   171   86  208 1    
   172   86  209 1    
   173   87   88 2    
   174   87   89 am   BACKBONE|DICT|INTERRES
   175   89   90 1    
   176   89  210 1    
   177   90   91 1    
   178   90   92 1    
   179   90  211 1    
   180   91  212 1    
   181   91  213 1    
   182   91  214 1    
   183   92   93 2    
   184   92   94 am   BACKBONE|DICT|INTERRES
   185   94   95 1    
   186   94  215 1    
   187   95   96 1    
   188   95   97 1    
   189   95  216 1    
   190   96  217 1    
   191   96  218 1    
   192   96  219 1    
   193   97   98 2    
   194   97   99 am   BACKBONE|DICT|INTERRES
   195   99  100 1    
   196   99  220 1    
   197  100  101 1    
   198  100  102 1    
   199  100  221 1    
   200  101  222 1    
   201  101  223 1    
   202  101  224 1    
   203  102  103 2    
   204  102  104 am   BACKBONE|DICT|INTERRES
   205  104  105 1    
   206  104  225 1    
   207  105  106 1    
   208  105  107 1    
   209  105  226 1    
   210  106  227 1    
   211  106  228 1    
   212  106  229 1    
   213  107  108 2    
   214  107  109 am   BACKBONE|DICT|INTERRES
   215  109  110 1    
   216  109  230 1    
   217  110  111 1    
   218  110  112 1    
   219  110  231 1    
   220  111  232 1    
   221  111  233 1    
   222  111  234 1    
   223  112  113 2    
   224  112  114 am   BACKBONE|DICT|INTERRES
   225  114  115 1    
   226  114  235 1    
   227  115  116 1    
   228  115  117 1    
   229  115  236 1    
   230  116  237 1    
   231  116  238 1    
   232  116  239 1    
   233  117  118 2    
   234  117  119 am   BACKBONE|DICT|INTERRES
   235  119  120 1    
   236  119  240 1    
   237  120  121 1    
   238  120  124 1    
   239  120  241 1    
   240  121  122 am   BACKBONE|DICT|INTERRES
   241  121  123 2    
   242  122  242 1    
   243  122  243 1    
   244  124  125 1    
   245  124  244 1    
   246  124  245 1    
   247  125  126 1    
   248  126  246 1    
   249  126  247 1    
@<TRIPOS>SUBSTRUCTURE
     1 UNK         1 GROUP             0       ****    0 ROOT    
