@<TRIPOS>MOLECULE
3R540
247   249    1
SMALL
USER_CHARGES


@<TRIPOS>ATOM
      1 CA          0.1020  -10.1872  -45.4525 C.3       0 UNK        -0.1800 
      2 C           0.3418  -11.4878  -46.2037 C.2       0 UNK         0.5000 
      3 O          -0.4352  -11.8330  -47.0985 O.2       0 UNK        -0.5000 
      4 N           1.4058  -12.2201  -45.8448 N.am      1 UNK        -0.5000 
      5 CA          1.7947  -13.4754  -46.4925 C.3       1 UNK         0.1400 
      6 C6          2.8851  -14.2492  -45.7095 C.3       23 UNK        -0.0398 
      7 S7          2.7069  -16.0513  -45.9348 S.3       23 UNK        -0.2404 
      8 C8          3.9453  -16.3982  -47.2164 C.3       23 UNK        -0.0205 
      9 C9          3.5414  -17.5952  -48.0632 C.ar      23 UNK        -0.0193 
     10 C10         2.6968  -17.4145  -49.1613 C.ar      23 UNK        -0.1150 
     11 C11         2.3827  -18.4845  -49.9991 C.ar      23 UNK        -0.0193 
     12 C12         2.8930  -19.7511  -49.7144 C.ar      23 UNK        -0.1150 
     13 C13         3.7002  -19.9629  -48.5918 C.ar      23 UNK        -0.0193 
     14 C14         4.0319  -18.8735  -47.7775 C.ar      23 UNK        -0.1150 
     15 C15         4.2528  -21.3504  -48.2738 C.3       23 UNK        -0.0205 
     16 S16         3.0905  -22.7166  -48.6163 S.3       23 UNK        -0.2404 
     17 C17         1.6302  -22.2742  -47.6095 C.3       23 UNK        -0.0398 
     18 CA          0.9968  -23.5357  -46.9829 C.3       11 UNK         0.1400 
     19 N           1.8983  -24.1844  -46.0282 N.am      11 UNK        -0.5000 
     20 C           1.8540  -25.4818  -45.7071 C.2       10 UNK         0.5000 
     21 O           1.0258  -26.2708  -46.1615 O.2       10 UNK        -0.5000 
     22 CA          2.8948  -25.9657  -44.6811 C.3       10 UNK         0.1400 
     23 CB          4.2539  -26.1997  -45.3577 C.3       10 UNK        -0.1800 
     24 N           3.0617  -25.0337  -43.5635 N.am      10 UNK        -0.5000 
     25 C           2.1113  -24.7831  -42.6534 C.2       9 UNK         0.5000 
     26 O           1.0012  -25.3138  -42.6647 O.2       9 UNK        -0.5000 
     27 CA          2.4375  -23.7446  -41.5641 C.3       9 UNK         0.1400 
     28 CB          3.2222  -24.4006  -40.4179 C.3       9 UNK        -0.1800 
     29 N           3.1562  -22.5485  -42.0194 N.am      9 UNK        -0.5000 
     30 C           2.7862  -21.7463  -43.0267 C.2       8 UNK         0.5000 
     31 O           1.9084  -22.0221  -43.8448 O.2       8 UNK        -0.5000 
     32 CA          3.5263  -20.4038  -43.1528 C.3       8 UNK         0.1400 
     33 CB          4.4968  -20.4374  -44.3381 C.3       8 UNK        -0.1800 
     34 N           2.5795  -19.3058  -43.3491 N.am      8 UNK        -0.5000 
     35 C           1.7027  -18.8826  -42.4284 C.2       7 UNK         0.5000 
     36 O           1.6657  -19.3119  -41.2742 O.2       7 UNK        -0.5000 
     37 CA          0.7057  -17.7881  -42.8532 C.3       7 UNK         0.1400 
     38 CB          1.1818  -16.4091  -42.3697 C.3       7 UNK        -0.1800 
     39 N           0.4687  -17.7203  -44.2964 N.am      7 UNK        -0.5000 
     40 C          -0.2531  -18.5985  -45.0019 C.2       6 UNK         0.5000 
     41 O          -0.7638  -19.6074  -44.5198 O.2       6 UNK        -0.5000 
     42 CA         -0.5511  -18.1967  -46.4539 C.3       6 UNK         0.1400 
     43 CB         -1.1779  -19.3400  -47.2715 C.3       6 UNK        -0.1800 
     44 N          -1.4973  -17.0924  -46.3648 N.am      6 UNK        -0.5000 
     45 C          -1.4135  -15.9150  -46.9878 C.2       5 UNK         0.5000 
     46 O          -0.5568  -15.6258  -47.8271 O.2       5 UNK        -0.5000 
     47 CA         -2.4429  -14.8729  -46.5198 C.3       5 UNK         0.1400 
     48 CB         -2.0509  -14.3132  -45.1414 C.3       5 UNK        -0.1800 
     49 N          -2.5727  -13.7616  -47.4588 N.am      5 UNK        -0.5000 
     50 C          -3.4407  -13.7447  -48.4802 C.2       4 UNK         0.5000 
     51 O          -4.1898  -14.6847  -48.7501 O.2       4 UNK        -0.5000 
     52 CA         -3.5213  -12.4610  -49.3228 C.3       4 UNK         0.1400 
     53 CB         -4.5510  -11.4846  -48.7251 C.3       4 UNK        -0.1800 
     54 N          -2.2209  -11.8094  -49.4519 N.am      4 UNK        -0.5000 
     55 C          -1.8721  -10.9718  -50.4369 C.2       3 UNK         0.5000 
     56 O          -2.6432  -10.5741  -51.3114 O.2       3 UNK        -0.5000 
     57 CA         -0.4005  -10.5249  -50.4633 C.3       3 UNK         0.1400 
     58 CB         -0.1715   -9.3298  -49.5252 C.3       3 UNK        -0.1800 
     59 N           0.4688  -11.6344  -50.0736 N.am      3 UNK        -0.5000 
     60 C           0.9643  -12.5385  -50.9301 C.2       2 UNK         0.5000 
     61 O           0.8938  -12.4168  -52.1542 O.2       2 UNK        -0.5000 
     62 CA          1.6229  -13.8074  -50.3472 C.3       2 UNK         0.1400 
     63 CB          3.0713  -13.9783  -50.8549 C.3       2 UNK        -0.1800 
     64 N           1.5316  -13.9230  -48.8843 N.am      2 UNK        -0.5000 
     65 C           2.1985  -13.2219  -47.9584 C.2       1 UNK         0.5000 
     66 O           3.0598  -12.3769  -48.2082 O.2       1 UNK        -0.5000 
     67 C          -0.3865  -23.2590  -46.3575 C.2       11 UNK         0.5000 
     68 O          -1.3916  -23.3035  -47.0702 O.2       11 UNK        -0.5000 
     69 N          -0.4242  -23.0463  -45.0342 N.am      12 UNK        -0.5000 
     70 CA         -1.6391  -22.9801  -44.2247 C.3       12 UNK         0.1400 
     71 CB         -1.2959  -22.5171  -42.7993 C.3       12 UNK        -0.1800 
     72 C          -2.3692  -24.3340  -44.1886 C.2       12 UNK         0.5000 
     73 O          -3.5811  -24.3707  -44.3971 O.2       12 UNK        -0.5000 
     74 N          -1.6170  -25.4250  -43.9739 N.am      13 UNK        -0.5000 
     75 CA         -2.1171  -26.8031  -43.9920 C.3       13 UNK         0.1400 
     76 CB         -1.0260  -27.7564  -43.4823 C.3       13 UNK        -0.1800 
     77 C          -2.6187  -27.2421  -45.3804 C.2       13 UNK         0.5000 
     78 O          -3.6167  -27.9582  -45.4668 O.2       13 UNK        -0.5000 
     79 N          -1.9469  -26.7708  -46.4405 N.am      14 UNK        -0.5000 
     80 CA         -2.3644  -26.9369  -47.8355 C.3       14 UNK         0.1400 
     81 CB         -1.1785  -26.6066  -48.7548 C.3       14 UNK        -0.1800 
     82 C          -3.5894  -26.0777  -48.2170 C.2       14 UNK         0.5000 
     83 O          -4.1917  -26.3288  -49.2613 O.2       14 UNK        -0.5000 
     84 N          -3.9243  -25.0858  -47.3769 N.am      15 UNK        -0.5000 
     85 CA         -5.0052  -24.1079  -47.5192 C.3       15 UNK         0.1400 
     86 CB         -6.3805  -24.8017  -47.4462 C.3       15 UNK        -0.1800 
     87 C          -4.8333  -23.2184  -48.7664 C.2       15 UNK         0.5000 
     88 O          -5.8082  -22.9197  -49.4578 O.2       15 UNK        -0.5000 
     89 N          -3.5868  -22.8031  -49.0328 N.am      16 UNK        -0.5000 
     90 CA         -3.1923  -22.0674  -50.2370 C.3       16 UNK         0.1400 
     91 CB         -1.6620  -21.9828  -50.2834 C.3       16 UNK        -0.1800 
     92 C          -3.8393  -20.6720  -50.3677 C.2       16 UNK         0.5000 
     93 O          -4.0678  -20.2084  -51.4866 O.2       16 UNK        -0.5000 
     94 N          -4.1660  -20.0441  -49.2294 N.am      17 UNK        -0.5000 
     95 CA         -4.9151  -18.7878  -49.1705 C.3       17 UNK         0.1400 
     96 CB         -4.7935  -18.1797  -47.7672 C.3       17 UNK        -0.1800 
     97 C          -6.3948  -18.9719  -49.5524 C.2       17 UNK         0.5000 
     98 O          -6.9360  -18.1501  -50.2907 O.2       17 UNK        -0.5000 
     99 N          -7.0141  -20.0628  -49.0770 N.am      18 UNK        -0.5000 
    100 CA        -8.4023  -20.4276  -49.3801 C.3       18 UNK         0.1400 
    101 CB        -8.8791  -21.5068  -48.3978 C.3       18 UNK        -0.1800 
    102 C         -8.5750  -20.8998  -50.8351 C.2       18 UNK         0.5000 
    103 O         -9.6054  -20.6234  -51.4496 O.2       18 UNK        -0.5000 
    104 N         -7.5371  -21.5548  -51.3732 N.am      19 UNK        -0.5000 
    105 CA        -7.4029  -21.9226  -52.7844 C.3       19 UNK         0.1400 
    106 CB        -6.2642  -22.9460  -52.9170 C.3       19 UNK        -0.1800 
    107 C         -7.1495  -20.7148  -53.7141 C.2       19 UNK         0.5000 
    108 O         -7.2048  -20.8776  -54.9334 O.2       19 UNK        -0.5000 
    109 N         -6.8666  -19.5405  -53.1281 N.am      20 UNK        -0.5000 
    110 CA        -6.5730  -18.2558  -53.7692 C.3       20 UNK         0.1400 
    111 CB        -7.7755  -17.7576  -54.5978 C.3       20 UNK        -0.1800 
    112 C         -5.2499  -18.2498  -54.5614 C.2       20 UNK         0.5000 
    113 O         -5.0796  -17.4266  -55.4622 O.2       20 UNK        -0.5000 
    114 N         -4.3177  -19.1395  -54.1943 N.am      21 UNK        -0.5000 
    115 CA        -2.9737  -19.2097  -54.7668 C.3       21 UNK         0.1400 
    116 CB        -2.3814  -20.6016  -54.4958 C.3       21 UNK        -0.1800 
    117 C         -2.0562  -18.1107  -54.2018 C.2       21 UNK         0.5000 
    118 O         -1.1740  -17.6307  -54.9145 O.2       21 UNK        -0.5000 
    119 N         -2.2934  -17.7331  -52.9396 N.am      22 UNK        -0.5000 
    120 CA        -1.5166  -16.7314  -52.1891 C.3       22 UNK         0.1400 
    121 C         -2.2203  -15.3492  -52.0826 C.2       22 UNK         0.5000 
    122 N         -3.3278  -15.1105  -52.7750 N.am      22 UNK        -0.7600 
    123 O         -1.7421  -14.4689  -51.3765 O.2       22 UNK        -0.5000 
    124 C124       -1.0838  -17.2655  -50.7988 C.3       23 UNK        -0.0398 
    125 S125       -0.1843  -18.8453  -50.9281 S.3       23 UNK        -0.2404 
    126 C126        1.5156  -18.2823  -51.2280 C.3       23 UNK        -0.0205 
    127 H127        0.7927  -10.0690  -44.6175 H         1 UNK         0.0600 
    128 H128       -0.9142  -10.1653  -45.0589 H         1 UNK         0.0600 
    129 H129        0.2280   -9.3375  -46.1229 H         1 UNK         0.0600 
    130 H130        2.0292  -11.8749  -45.1292 H         1 UNK         0.3000 
    131 H131        0.8928  -14.0846  -46.4839 H         1 UNK         0.0600 
    132 H132        2.7771  -14.0634  -44.6401 H         1 UNK         0.0800 
    133 H133        3.8941  -13.9205  -45.9660 H         1 UNK         0.0800 
    134 H134        4.9131  -16.5712  -46.7434 H         1 UNK         0.0800 
    135 H135        4.0732  -15.5298  -47.8637 H         1 UNK         0.0800 
    136 H136        2.2962  -16.4372  -49.3746 H         1 UNK         0.1150 
    137 H137        2.6500  -20.5746  -50.3708 H         1 UNK         0.1150 
    138 H138        4.6861  -19.0139  -46.9294 H         1 UNK         0.1150 
    139 H139        4.5708  -21.4174  -47.2348 H         1 UNK         0.0800 
    140 H140        5.1499  -21.5050  -48.8742 H         1 UNK         0.0800 
    141 H141        0.9226  -21.7752  -48.2727 H         1 UNK         0.0800 
    142 H142        1.9038  -21.5524  -46.8376 H         1 UNK         0.0800 
    143 H143        0.8198  -24.2379  -47.7998 H         1 UNK         0.0600 
    144 H144        2.5619  -23.5868  -45.5571 H         1 UNK         0.3000 
    145 H145        2.5458  -26.9195  -44.2794 H         1 UNK         0.0600 
    146 H146        4.1607  -26.9036  -46.1858 H         1 UNK         0.0600 
    147 H147        4.9765  -26.6180  -44.6568 H         1 UNK         0.0600 
    148 H148        4.6708  -25.2749  -45.7588 H         1 UNK         0.0600 
    149 H149        3.9437  -24.5485  -43.4910 H         1 UNK         0.3000 
    150 H150        1.4844  -23.4001  -41.1587 H         1 UNK         0.0600 
    151 H151        3.3408  -23.7164  -39.5775 H         1 UNK         0.0600 
    152 H152        2.7032  -25.2842  -40.0432 H         1 UNK         0.0600 
    153 H153        4.2161  -24.7150  -40.7387 H         1 UNK         0.0600 
    154 H154        3.9100  -22.2424  -41.4215 H         1 UNK         0.3000 
    155 H155        4.0934  -20.2139  -42.2392 H         1 UNK         0.0600 
    156 H156        3.9548  -20.5840  -45.2706 H         1 UNK         0.0600 
    157 H157        5.2164  -21.2509  -44.2387 H         1 UNK         0.0600 
    158 H158        5.0603  -19.5074  -44.4163 H         1 UNK         0.0600 
    159 H159        2.5198  -18.9151  -44.2770 H         1 UNK         0.3000 
    160 H160       -0.2457  -18.0088  -42.3644 H         1 UNK         0.0600 
    161 H161        1.3177  -16.3999  -41.2875 H         1 UNK         0.0600 
    162 H162        0.4558  -15.6325  -42.6118 H         1 UNK         0.0600 
    163 H163        2.1347  -16.1312  -42.8218 H         1 UNK         0.0600 
    164 H164        0.8615  -16.9216  -44.7766 H         1 UNK         0.3000 
    165 H165        0.3797  -17.8832  -46.9321 H         1 UNK         0.0600 
    166 H166       -0.4822  -20.1716  -47.3645 H         1 UNK         0.0600 
    167 H167       -2.0879  -19.7243  -46.8095 H         1 UNK         0.0600 
    168 H168       -1.4328  -19.0096  -48.2767 H         1 UNK         0.0600 
    169 H169       -2.2103  -17.2119  -45.6587 H         1 UNK         0.3000 
    170 H170       -3.4096  -15.3711  -46.4159 H         1 UNK         0.0600 
    171 H171       -1.0624  -13.8568  -45.1519 H         1 UNK         0.0600 
    172 H172       -2.0353  -15.0990  -44.3852 H         1 UNK         0.0600 
    173 H173       -2.7626  -13.5587  -44.8058 H         1 UNK         0.0600 
    174 H174       -1.9516  -12.9757  -47.2993 H         1 UNK         0.3000 
    175 H175       -3.8580  -12.7589  -50.3181 H         1 UNK         0.0600 
    176 H176       -5.5202  -11.9683  -48.5971 H         1 UNK         0.0600 
    177 H177       -4.2333  -11.1186  -47.7480 H         1 UNK         0.0600 
    178 H178       -4.7045  -10.6213  -49.3725 H         1 UNK         0.0600 
    179 H179       -1.5170  -12.0674  -48.7711 H         1 UNK         0.3000 
    180 H180       -0.1589  -10.2035  -51.4787 H         1 UNK         0.0600 
    181 H181       -0.4761   -9.5497  -48.5027 H         1 UNK         0.0600 
    182 H182       -0.7476   -8.4648  -49.8555 H         1 UNK         0.0600 
    183 H183        0.8780   -9.0355  -49.5082 H         1 UNK         0.0600 
    184 H184        0.5655  -11.8067  -49.0820 H         1 UNK         0.3000 
    185 H185        1.0433  -14.6451  -50.7362 H         1 UNK         0.0600 
    186 H186        3.0862  -14.1165  -51.9365 H         1 UNK         0.0600 
    187 H187        3.6844  -13.1037  -50.6368 H         1 UNK         0.0600 
    188 H188        3.5599  -14.8453  -50.4132 H         1 UNK         0.0600 
    189 H189        0.8076  -14.5618  -48.5554 H         1 UNK         0.3000 
    190 H190        0.4553  -22.9156  -44.5400 H         1 UNK         0.3000 
    191 H191       -2.3027  -22.2400  -44.6767 H         1 UNK         0.0600 
    192 H192       -0.7458  -21.5768  -42.8046 H         1 UNK         0.0600 
    193 H193       -2.2028  -22.3605  -42.2146 H         1 UNK         0.0600 
    194 H194       -0.6889  -23.2500  -42.2696 H         1 UNK         0.0600 
    195 H195       -0.6326  -25.3072  -43.7522 H         1 UNK         0.3000 
    196 H196       -2.9632  -26.8586  -43.3040 H         1 UNK         0.0600 
    197 H197       -1.3773  -28.7890  -43.4809 H         1 UNK         0.0600 
    198 H198       -0.7355  -27.5113  -42.4607 H         1 UNK         0.0600 
    199 H199       -0.1310  -27.7139  -44.1036 H         1 UNK         0.0600 
    200 H200       -1.0857  -26.2604  -46.2808 H         1 UNK         0.3000 
    201 H201       -2.6347  -27.9836  -47.9895 H         1 UNK         0.0600 
    202 H202       -1.4243  -26.8122  -49.7973 H         1 UNK         0.0600 
    203 H203       -0.3018  -27.2039  -48.5040 H         1 UNK         0.0600 
    204 H204       -0.9019  -25.5549  -48.6880 H         1 UNK         0.0600 
    205 H205       -3.3534  -24.9660  -46.5502 H         1 UNK         0.3000 
    206 H206       -4.9271  -23.4420  -46.6590 H         1 UNK         0.0600 
    207 H207       -6.4451  -25.4559  -46.5767 H         1 UNK         0.0600 
    208 H208       -7.1820  -24.0696  -47.3567 H         1 UNK         0.0600 
    209 H209       -6.5809  -25.4020  -48.3342 H         1 UNK         0.0600 
    210 H210       -2.8399  -23.0695  -48.3963 H         1 UNK         0.3000 
    211 H211       -3.5176  -22.6559  -51.0963 H         1 UNK         0.0600 
    212 H212       -1.3263  -21.5392  -51.2207 H         1 UNK         0.0600 
    213 H213       -1.2077  -22.9715  -50.2145 H         1 UNK         0.0600 
    214 H214       -1.2688  -21.3776  -49.4669 H         1 UNK         0.0600 
    215 H215       -3.9421  -20.4931  -48.3543 H         1 UNK         0.3000 
    216 H216       -4.4718  -18.0865  -49.8812 H         1 UNK         0.0600 
    217 H217       -5.3525  -17.2455  -47.6965 H         1 UNK         0.0600 
    218 H218       -3.7567  -17.9493  -47.5369 H         1 UNK         0.0600 
    219 H219       -5.1713  -18.8519  -46.9960 H         1 UNK         0.0600 
    220 H220       -6.4847  -20.7242  -48.5288 H         1 UNK         0.3000 
    221 H221       -9.0252  -19.5416  -49.2394 H         1 UNK         0.0600 
    222 H222       -8.3332  -22.4397  -48.5327 H         1 UNK         0.0600 
    223 H223       -8.7545  -21.1869  -47.3632 H         1 UNK         0.0600 
    224 H224       -9.9373  -21.7254  -48.5462 H         1 UNK         0.0600 
    225 H225       -6.7714  -21.8212  -50.7606 H         1 UNK         0.3000 
    226 H226       -8.3327  -22.3968  -53.1046 H         1 UNK         0.0600 
    227 H227       -6.4233  -23.8048  -52.2643 H         1 UNK         0.0600 
    228 H228       -6.1928  -23.3218  -53.9383 H         1 UNK         0.0600 
    229 H229       -5.3004  -22.5051  -52.6635 H         1 UNK         0.0600 
    230 H230       -6.8415  -19.5220  -52.1172 H         1 UNK         0.3000 
    231 H231       -6.4278  -17.5462  -52.9538 H         1 UNK         0.0600 
    232 H232       -7.9359  -18.3654  -55.4885 H         1 UNK         0.0600 
    233 H233       -7.6234  -16.7297  -54.9289 H         1 UNK         0.0600 
    234 H234       -8.6929  -17.7743  -54.0092 H         1 UNK         0.0600 
    235 H235       -4.4997  -19.7362  -53.3935 H         1 UNK         0.3000 
    236 H236       -3.0416  -19.0729  -55.8481 H         1 UNK         0.0600 
    237 H237       -2.2607  -20.7886  -53.4285 H         1 UNK         0.0600 
    238 H238       -3.0168  -21.3876  -54.9044 H         1 UNK         0.0600 
    239 H239       -1.3987  -20.7026  -54.9579 H         1 UNK         0.0600 
    240 H240       -3.0252  -18.2075  -52.4292 H         1 UNK         0.3000 
    241 H241       -0.5972  -16.5205  -52.7376 H         1 UNK         0.0600 
    242 H242       -3.7638  -14.2050  -52.7099 H         1 UNK         0.3800 
    243 H243       -3.7019  -15.8064  -53.3992 H         1 UNK         0.3800 
    244 H244       -0.4505  -16.5455  -50.2800 H         1 UNK         0.0800 
    245 H245       -1.9553  -17.4178  -50.1605 H         1 UNK         0.0800 
    246 H246        1.9292  -18.8535  -52.0603 H         1 UNK         0.0800 
    247 H247        1.5290  -17.2385  -51.5447 H         1 UNK         0.0800 
@<TRIPOS>BOND
     1    1    2 1    
     2    1  127 1    
     3    1  128 1    
     4    1  129 1    
     5    2    3 2    
     6    2    4 am   BACKBONE|DICT|INTERRES
     7    4    5 1    
     8    4  130 1    
     9    5    6 1    
    10    5   65 1    
    11    5  131 1    
    12    6    7 1    
    13    6  132 1    
    14    6  133 1    
    15    7    8 1    
    16    8    9 1    
    17    8  134 1    
    18    8  135 1    
    19    9   10 ar   
    20    9   14 ar   
    21   10   11 ar   
    22   10  136 1    
    23   11   12 ar   
    24   11  126 1    
    25   12   13 ar   
    26   12  137 1    
    27   13   14 ar   
    28   13   15 1    
    29   14  138 1    
    30   15   16 1    
    31   15  139 1    
    32   15  140 1    
    33   16   17 1    
    34   17   18 1    
    35   17  141 1    
    36   17  142 1    
    37   18   19 1    
    38   18   67 1    
    39   18  143 1    
    40   19   20 am   BACKBONE|DICT|INTERRES
    41   19  144 1    
    42   20   21 2    
    43   20   22 1    
    44   22   23 1    
    45   22   24 1    
    46   22  145 1    
    47   23  146 1    
    48   23  147 1    
    49   23  148 1    
    50   24   25 am   BACKBONE|DICT|INTERRES
    51   24  149 1    
    52   25   26 2    
    53   25   27 1    
    54   27   28 1    
    55   27   29 1    
    56   27  150 1    
    57   28  151 1    
    58   28  152 1    
    59   28  153 1    
    60   29   30 am   BACKBONE|DICT|INTERRES
    61   29  154 1    
    62   30   31 2    
    63   30   32 1    
    64   32   33 1    
    65   32   34 1    
    66   32  155 1    
    67   33  156 1    
    68   33  157 1    
    69   33  158 1    
    70   34   35 am   BACKBONE|DICT|INTERRES
    71   34  159 1    
    72   35   36 2    
    73   35   37 1    
    74   37   38 1    
    75   37   39 1    
    76   37  160 1    
    77   38  161 1    
    78   38  162 1    
    79   38  163 1    
    80   39   40 am   BACKBONE|DICT|INTERRES
    81   39  164 1    
    82   40   41 2    
    83   40   42 1    
    84   42   43 1    
    85   42   44 1    
    86   42  165 1    
    87   43  166 1    
    88   43  167 1    
    89   43  168 1    
    90   44   45 am   BACKBONE|DICT|INTERRES
    91   44  169 1    
    92   45   46 2    
    93   45   47 1    
    94   47   48 1    
    95   47   49 1    
    96   47  170 1    
    97   48  171 1    
    98   48  172 1    
    99   48  173 1    
   100   49   50 am   BACKBONE|DICT|INTERRES
   101   49  174 1    
   102   50   51 2    
   103   50   52 1    
   104   52   53 1    
   105   52   54 1    
   106   52  175 1    
   107   53  176 1    
   108   53  177 1    
   109   53  178 1    
   110   54   55 am   BACKBONE|DICT|INTERRES
   111   54  179 1    
   112   55   56 2    
   113   55   57 1    
   114   57   58 1    
   115   57   59 1    
   116   57  180 1    
   117   58  181 1    
   118   58  182 1    
   119   58  183 1    
   120   59   60 am   BACKBONE|DICT|INTERRES
   121   59  184 1    
   122   60   61 2    
   123   60   62 1    
   124   62   63 1    
   125   62   64 1    
   126   62  185 1    
   127   63  186 1    
   128   63  187 1    
   129   63  188 1    
   130   64   65 am   BACKBONE|DICT|INTERRES
   131   64  189 1    
   132   65   66 2    
   133   67   68 2    
   134   67   69 am   BACKBONE|DICT|INTERRES
   135   69   70 1    
   136   69  190 1    
   137   70   71 1    
   138   70   72 1    
   139   70  191 1    
   140   71  192 1    
   141   71  193 1    
   142   71  194 1    
   143   72   73 2    
   144   72   74 am   BACKBONE|DICT|INTERRES
   145   74   75 1    
   146   74  195 1    
   147   75   76 1    
   148   75   77 1    
   149   75  196 1    
   150   76  197 1    
   151   76  198 1    
   152   76  199 1    
   153   77   78 2    
   154   77   79 am   BACKBONE|DICT|INTERRES
   155   79   80 1    
   156   79  200 1    
   157   80   81 1    
   158   80   82 1    
   159   80  201 1    
   160   81  202 1    
   161   81  203 1    
   162   81  204 1    
   163   82   83 2    
   164   82   84 am   BACKBONE|DICT|INTERRES
   165   84   85 1    
   166   84  205 1    
   167   85   86 1    
   168   85   87 1    
   169   85  206 1    
   170   86  207 1    
   171   86  208 1    
   172   86  209 1    
   173   87   88 2    
   174   87   89 am   BACKBONE|DICT|INTERRES
   175   89   90 1    
   176   89  210 1    
   177   90   91 1    
   178   90   92 1    
   179   90  211 1    
   180   91  212 1    
   181   91  213 1    
   182   91  214 1    
   183   92   93 2    
   184   92   94 am   BACKBONE|DICT|INTERRES
   185   94   95 1    
   186   94  215 1    
   187   95   96 1    
   188   95   97 1    
   189   95  216 1    
   190   96  217 1    
   191   96  218 1    
   192   96  219 1    
   193   97   98 2    
   194   97   99 am   BACKBONE|DICT|INTERRES
   195   99  100 1    
   196   99  220 1    
   197  100  101 1    
   198  100  102 1    
   199  100  221 1    
   200  101  222 1    
   201  101  223 1    
   202  101  224 1    
   203  102  103 2    
   204  102  104 am   BACKBONE|DICT|INTERRES
   205  104  105 1    
   206  104  225 1    
   207  105  106 1    
   208  105  107 1    
   209  105  226 1    
   210  106  227 1    
   211  106  228 1    
   212  106  229 1    
   213  107  108 2    
   214  107  109 am   BACKBONE|DICT|INTERRES
   215  109  110 1    
   216  109  230 1    
   217  110  111 1    
   218  110  112 1    
   219  110  231 1    
   220  111  232 1    
   221  111  233 1    
   222  111  234 1    
   223  112  113 2    
   224  112  114 am   BACKBONE|DICT|INTERRES
   225  114  115 1    
   226  114  235 1    
   227  115  116 1    
   228  115  117 1    
   229  115  236 1    
   230  116  237 1    
   231  116  238 1    
   232  116  239 1    
   233  117  118 2    
   234  117  119 am   BACKBONE|DICT|INTERRES
   235  119  120 1    
   236  119  240 1    
   237  120  121 1    
   238  120  124 1    
   239  120  241 1    
   240  121  122 am   BACKBONE|DICT|INTERRES
   241  121  123 2    
   242  122  242 1    
   243  122  243 1    
   244  124  125 1    
   245  124  244 1    
   246  124  245 1    
   247  125  126 1    
   248  126  246 1    
   249  126  247 1    
@<TRIPOS>SUBSTRUCTURE
     1 UNK         1 GROUP             0       ****    0 ROOT    
