@<TRIPOS>MOLECULE
3R540
247   249    1
SMALL
USER_CHARGES


@<TRIPOS>ATOM
      1 CA          4.8073  -12.0044  -49.8503 C.3       0 UNK        -0.1800 
      2 C           4.6964  -12.8964  -48.6161 C.2       0 UNK         0.5000 
      3 O           5.7002  -13.4606  -48.1873 O.2       0 UNK        -0.5000 
      4 N           3.5134  -13.0488  -48.0065 N.am      1 UNK        -0.5000 
      5 CA          2.2138  -12.4993  -48.4181 C.3       1 UNK         0.1400 
      6 C6          1.2217  -12.3713  -47.2308 C.3       23 UNK        -0.0398 
      7 S7          1.2010  -13.8068  -46.1014 S.3       23 UNK        -0.2404 
      8 C8         -0.5711  -14.0007  -45.7328 C.3       23 UNK        -0.0205 
      9 C9         -1.3257  -14.7376  -46.8298 C.ar      23 UNK        -0.0193 
     10 C10        -2.3978  -14.1269  -47.4839 C.ar      23 UNK        -0.1150 
     11 C11        -3.1271  -14.8250  -48.4496 C.ar      23 UNK        -0.0193 
     12 C12        -2.7779  -16.1421  -48.7575 C.ar      23 UNK        -0.1150 
     13 C13        -1.7051  -16.7701  -48.1182 C.ar      23 UNK        -0.0193 
     14 C14        -0.9819  -16.0528  -47.1543 C.ar      23 UNK        -0.1150 
     15 C15        -1.3813  -18.2150  -48.5084 C.3       23 UNK        -0.0205 
     16 S16         0.2583  -18.8364  -47.9904 S.3       23 UNK        -0.2404 
     17 C17        -0.0914  -19.2274  -46.2396 C.3       23 UNK        -0.0398 
     18 CA         -0.1504  -20.7326  -45.8797 C.3       11 UNK         0.1400 
     19 N          -0.6098  -20.9040  -44.5029 N.am      11 UNK        -0.5000 
     20 C          -0.6557  -22.0553  -43.8227 C.2       10 UNK         0.5000 
     21 O          -0.2376  -23.1297  -44.2532 O.2       10 UNK        -0.5000 
     22 CA         -1.3373  -21.9933  -42.4463 C.3       10 UNK         0.1400 
     23 CB         -0.3728  -21.4494  -41.3807 C.3       10 UNK        -0.1800 
     24 N          -2.5477  -21.1691  -42.4786 N.am      10 UNK        -0.5000 
     25 C          -3.6884  -21.5220  -43.0869 C.2       9 UNK         0.5000 
     26 O          -3.8451  -22.5936  -43.6720 O.2       9 UNK        -0.5000 
     27 CA         -4.8383  -20.4965  -43.0578 C.3       9 UNK         0.1400 
     28 CB         -5.5834  -20.5563  -41.7159 C.3       9 UNK        -0.1800 
     29 N          -4.3928  -19.1234  -43.3044 N.am      9 UNK        -0.5000 
     30 C          -3.9102  -18.6892  -44.4765 C.2       8 UNK         0.5000 
     31 O          -3.7891  -19.4007  -45.4710 O.2       8 UNK        -0.5000 
     32 CA         -3.4225  -17.2312  -44.5404 C.3       8 UNK         0.1400 
     33 CB         -4.5893  -16.2722  -44.8171 C.3       8 UNK        -0.1800 
     34 N          -2.6703  -16.7705  -43.3682 N.am      8 UNK        -0.5000 
     35 C          -1.6151  -17.3954  -42.8282 C.2       7 UNK         0.5000 
     36 O          -1.2607  -18.5377  -43.1270 O.2       7 UNK        -0.5000 
     37 CA         -0.8220  -16.6141  -41.7636 C.3       7 UNK         0.1400 
     38 CB         -1.3958  -16.8942  -40.3665 C.3       7 UNK        -0.1800 
     39 N           0.6055  -16.9516  -41.7655 N.am      7 UNK        -0.5000 
     40 C           1.4159  -16.8796  -42.8312 C.2       6 UNK         0.5000 
     41 O           1.0603  -16.4734  -43.9386 O.2       6 UNK        -0.5000 
     42 CA          2.8532  -17.3942  -42.6276 C.3       6 UNK         0.1400 
     43 CB          2.8701  -18.9327  -42.6310 C.3       6 UNK        -0.1800 
     44 N           3.7572  -16.9235  -43.6761 N.am      6 UNK        -0.5000 
     45 C           4.1441  -15.6542  -43.8701 C.2       5 UNK         0.5000 
     46 O           3.8772  -14.7352  -43.0941 O.2       5 UNK        -0.5000 
     47 CA          4.9909  -15.3651  -45.1287 C.3       5 UNK         0.1400 
     48 CB          6.3883  -14.8538  -44.7418 C.3       5 UNK        -0.1800 
     49 N           5.1459  -16.5508  -45.9768 N.am      5 UNK        -0.5000 
     50 C           4.3343  -16.8842  -46.9869 C.2       4 UNK         0.5000 
     51 O           3.4183  -16.1729  -47.4103 O.2       4 UNK        -0.5000 
     52 CA          4.5815  -18.2704  -47.5998 C.3       4 UNK         0.1400 
     53 CB          4.0689  -19.3861  -46.6709 C.3       4 UNK        -0.1800 
     54 N           3.8779  -18.3523  -48.8701 N.am      4 UNK        -0.5000 
     55 C           4.3503  -18.8959  -49.9956 C.2       3 UNK         0.5000 
     56 O           5.4265  -19.4905  -50.0713 O.2       3 UNK        -0.5000 
     57 CA          3.4786  -18.7435  -51.2581 C.3       3 UNK         0.1400 
     58 CB          2.7149  -20.0458  -51.5401 C.3       3 UNK        -0.1800 
     59 N           2.5207  -17.6358  -51.1772 N.am      3 UNK        -0.5000 
     60 C           2.8485  -16.3362  -51.1810 C.2       2 UNK         0.5000 
     61 O           4.0045  -15.9268  -51.3006 O.2       2 UNK        -0.5000 
     62 CA          1.7132  -15.3169  -50.9995 C.3       2 UNK         0.1400 
     63 CB          0.3068  -15.9352  -50.8788 C.3       2 UNK        -0.1800 
     64 N           2.0223  -14.5138  -49.8217 N.am      2 UNK        -0.5000 
     65 C           1.6035  -13.2608  -49.6139 C.2       1 UNK         0.5000 
     66 O           0.8138  -12.6740  -50.3551 O.2       1 UNK        -0.5000 
     67 C          -1.0014  -21.5783  -46.8535 C.2       11 UNK         0.5000 
     68 O          -0.4370  -22.3331  -47.6451 O.2       11 UNK        -0.5000 
     69 N          -2.3361  -21.4883  -46.7419 N.am      12 UNK        -0.5000 
     70 CA         -3.2853  -22.2838  -47.5203 C.3       12 UNK         0.1400 
     71 CB         -4.7234  -21.8352  -47.2254 C.3       12 UNK        -0.1800 
     72 C          -3.1356  -23.7943  -47.2833 C.2       12 UNK         0.5000 
     73 O          -3.1500  -24.5506  -48.2522 O.2       12 UNK        -0.5000 
     74 N          -2.9582  -24.2076  -46.0206 N.am      13 UNK        -0.5000 
     75 CA         -2.7124  -25.6003  -45.6424 C.3       13 UNK         0.1400 
     76 CB         -2.7315  -25.7383  -44.1128 C.3       13 UNK        -0.1800 
     77 C          -1.4018  -26.1547  -46.2318 C.2       13 UNK         0.5000 
     78 O          -1.4014  -27.2646  -46.7653 O.2       13 UNK        -0.5000 
     79 N          -0.3247  -25.3596  -46.1641 N.am      14 UNK        -0.5000 
     80 CA          0.9861  -25.6830  -46.7306 C.3       14 UNK         0.1400 
     81 CB          2.0192  -24.6541  -46.2455 C.3       14 UNK        -0.1800 
     82 C           0.9758  -25.7605  -48.2694 C.2       14 UNK         0.5000 
     83 O           1.5990  -26.6579  -48.8375 O.2       14 UNK        -0.5000 
     84 N           0.2568  -24.8319  -48.9127 N.am      15 UNK        -0.5000 
     85 CA          0.1167  -24.7386  -50.3669 C.3       15 UNK         0.1400 
     86 CB         -0.2559  -23.2932  -50.7296 C.3       15 UNK        -0.1800 
     87 C          -0.9167  -25.7146  -50.9635 C.2       15 UNK         0.5000 
     88 O          -1.0356  -25.7729  -52.1871 O.2       15 UNK        -0.5000 
     89 N          -1.6745  -26.4231  -50.1129 N.am      16 UNK        -0.5000 
     90 CA         -2.8021  -27.2993  -50.4561 C.3       16 UNK         0.1400 
     91 CB         -2.3187  -28.5487  -51.2215 C.3       16 UNK        -0.1800 
     92 C          -3.9301  -26.5334  -51.1836 C.2       16 UNK         0.5000 
     93 O          -4.4520  -26.9945  -52.1996 O.2       16 UNK        -0.5000 
     94 N          -4.2487  -25.3482  -50.6455 N.am      17 UNK        -0.5000 
     95 CA         -5.2450  -24.3637  -51.0793 C.3       17 UNK         0.1400 
     96 CB         -6.6602  -24.9742  -51.1050 C.3       17 UNK        -0.1800 
     97 C          -4.9121  -23.6235  -52.3917 C.2       17 UNK         0.5000 
     98 O          -5.6877  -22.7562  -52.7935 O.2       17 UNK        -0.5000 
     99 N          -3.7687  -23.9216  -53.0261 N.am      18 UNK        -0.5000 
    100 CA        -3.3524  -23.3207  -54.2981 C.3       18 UNK         0.1400 
    101 CB        -2.1582  -24.1043  -54.8618 C.3       18 UNK        -0.1800 
    102 C         -3.0057  -21.8225  -54.1921 C.2       18 UNK         0.5000 
    103 O         -3.1845  -21.0883  -55.1642 O.2       18 UNK        -0.5000 
    104 N         -2.5225  -21.4004  -53.0166 N.am      19 UNK        -0.5000 
    105 CA        -2.1117  -20.0252  -52.7258 C.3       19 UNK         0.1400 
    106 CB        -0.8508  -20.0702  -51.8503 C.3       19 UNK        -0.1800 
    107 C         -3.2123  -19.2016  -52.0322 C.2       19 UNK         0.5000 
    108 O         -2.9958  -18.0185  -51.7698 O.2       19 UNK        -0.5000 
    109 N         -4.3644  -19.8166  -51.7293 N.am      20 UNK        -0.5000 
    110 CA        -5.4734  -19.2341  -50.9667 C.3       20 UNK         0.1400 
    111 CB        -6.3140  -20.3792  -50.3750 C.3       20 UNK        -0.1800 
    112 C         -6.3270  -18.2405  -51.7876 C.2       20 UNK         0.5000 
    113 O         -7.5566  -18.3230  -51.7780 O.2       20 UNK        -0.5000 
    114 N         -5.6642  -17.3041  -52.4783 N.am      21 UNK        -0.5000 
    115 CA        -6.2616  -16.2967  -53.3609 C.3       21 UNK         0.1400 
    116 CB        -5.1340  -15.5186  -54.0558 C.3       21 UNK        -0.1800 
    117 C         -7.2256  -15.3284  -52.6470 C.2       21 UNK         0.5000 
    118 O         -8.1606  -14.8282  -53.2732 O.2       21 UNK        -0.5000 
    119 N         -6.9885  -15.1033  -51.3503 N.am      22 UNK        -0.5000 
    120 CA        -7.8576  -14.3442  -50.4407 C.3       22 UNK         0.1400 
    121 C         -9.0189  -15.1758  -49.8151 C.2       22 UNK         0.5000 
    122 N         -9.1657  -16.4634  -50.1085 N.am      22 UNK        -0.7600 
    123 O         -9.8235  -14.6348  -49.0612 O.2       22 UNK        -0.5000 
    124 C124       -7.0298  -13.5747  -49.3769 C.3       23 UNK        -0.0398 
    125 S125       -5.8814  -14.6194  -48.4094 S.3       23 UNK        -0.2404 
    126 C126       -4.2904  -14.1576  -49.1629 C.3       23 UNK        -0.0205 
    127 H127        4.1943  -12.3879  -50.6656 H         1 UNK         0.0600 
    128 H128        4.4991  -10.9840  -49.6237 H         1 UNK         0.0600 
    129 H129        5.8385  -11.9677  -50.2020 H         1 UNK         0.0600 
    130 H130        3.4542  -13.6893  -47.2263 H         1 UNK         0.3000 
    131 H131        2.3829  -11.4823  -48.7758 H         1 UNK         0.0600 
    132 H132        0.2111  -12.1611  -47.5863 H         1 UNK         0.0800 
    133 H133        1.5015  -11.5049  -46.6303 H         1 UNK         0.0800 
    134 H134       -0.6704  -14.5708  -44.8085 H         1 UNK         0.0800 
    135 H135       -1.0115  -13.0224  -45.5348 H         1 UNK         0.0800 
    136 H136       -2.6742  -13.1123  -47.2338 H         1 UNK         0.1150 
    137 H137       -3.3457  -16.6805  -49.5029 H         1 UNK         0.1150 
    138 H138       -0.1496  -16.5035  -46.6341 H         1 UNK         0.1150 
    139 H139       -2.1623  -18.8714  -48.1224 H         1 UNK         0.0800 
    140 H140       -1.4303  -18.2956  -49.5932 H         1 UNK         0.0800 
    141 H141        0.6726  -18.7402  -45.6322 H         1 UNK         0.0800 
    142 H142       -1.0280  -18.7487  -45.9544 H         1 UNK         0.0800 
    143 H143        0.8684  -21.1225  -45.9304 H         1 UNK         0.0600 
    144 H144       -0.9522  -20.0657  -44.0359 H         1 UNK         0.3000 
    145 H145       -1.6191  -23.0100  -42.1646 H         1 UNK         0.0600 
    146 H146       -0.8307  -21.4639  -40.3916 H         1 UNK         0.0600 
    147 H147        0.5324  -22.0557  -41.3291 H         1 UNK         0.0600 
    148 H148       -0.0686  -20.4241  -41.5933 H         1 UNK         0.0600 
    149 H149       -2.4671  -20.2339  -42.1050 H         1 UNK         0.3000 
    150 H150       -5.5420  -20.7688  -43.8473 H         1 UNK         0.0600 
    151 H151       -5.9414  -21.5667  -41.5135 H         1 UNK         0.0600 
    152 H152       -6.4533  -19.8993  -41.7186 H         1 UNK         0.0600 
    153 H153       -4.9425  -20.2621  -40.8839 H         1 UNK         0.0600 
    154 H154       -4.4367  -18.4773  -42.5302 H         1 UNK         0.3000 
    155 H155       -2.7427  -17.1697  -45.3892 H         1 UNK         0.0600 
    156 H156       -4.2303  -15.2611  -45.0110 H         1 UNK         0.0600 
    157 H157       -5.2856  -16.2302  -43.9790 H         1 UNK         0.0600 
    158 H158       -5.1507  -16.5850  -45.6988 H         1 UNK         0.0600 
    159 H159       -2.9053  -15.8479  -43.0329 H         1 UNK         0.3000 
    160 H160       -0.9090  -15.5471  -41.9776 H         1 UNK         0.0600 
    161 H161       -0.8802  -16.3114  -39.6030 H         1 UNK         0.0600 
    162 H162       -1.3083  -17.9488  -40.1009 H         1 UNK         0.0600 
    163 H163       -2.4528  -16.6297  -40.3154 H         1 UNK         0.0600 
    164 H164        0.9716  -17.3278  -40.9039 H         1 UNK         0.3000 
    165 H165        3.2221  -17.0324  -41.6657 H         1 UNK         0.0600 
    166 H166        3.8799  -19.3185  -42.4898 H         1 UNK         0.0600 
    167 H167        2.2561  -19.3352  -41.8245 H         1 UNK         0.0600 
    168 H168        2.4830  -19.3374  -43.5675 H         1 UNK         0.0600 
    169 H169        3.9963  -17.5940  -44.3881 H         1 UNK         0.3000 
    170 H170        4.4833  -14.5755  -45.6851 H         1 UNK         0.0600 
    171 H171        6.3213  -13.9468  -44.1398 H         1 UNK         0.0600 
    172 H172        6.9431  -15.5932  -44.1631 H         1 UNK         0.0600 
    173 H173        6.9747  -14.6093  -45.6279 H         1 UNK         0.0600 
    174 H174        5.8896  -17.1834  -45.7175 H         1 UNK         0.3000 
    175 H175        5.6562  -18.3863  -47.7555 H         1 UNK         0.0600 
    176 H176        3.0097  -19.2637  -46.4432 H         1 UNK         0.0600 
    177 H177        4.1985  -20.3677  -47.1273 H         1 UNK         0.0600 
    178 H178        4.6115  -19.3968  -45.7254 H         1 UNK         0.0600 
    179 H179        3.0107  -17.8327  -48.9013 H         1 UNK         0.3000 
    180 H180        4.1509  -18.5527  -52.0973 H         1 UNK         0.0600 
    181 H181        1.9886  -20.2646  -50.7560 H         1 UNK         0.0600 
    182 H182        3.3962  -20.8954  -51.6013 H         1 UNK         0.0600 
    183 H183        2.1863  -19.9895  -52.4914 H         1 UNK         0.0600 
    184 H184        1.5508  -17.8876  -51.0579 H         1 UNK         0.3000 
    185 H185        1.7319  -14.6739  -51.8818 H         1 UNK         0.0600 
    186 H186        0.0402  -16.5064  -51.7687 H         1 UNK         0.0600 
    187 H187        0.2509  -16.5977  -50.0193 H         1 UNK         0.0600 
    188 H188       -0.4575  -15.1684  -50.7516 H         1 UNK         0.0600 
    189 H189        2.6807  -14.9212  -49.1658 H         1 UNK         0.3000 
    190 H190       -2.7429  -20.8170  -46.0950 H         1 UNK         0.3000 
    191 H191       -3.0831  -22.0948  -48.5767 H         1 UNK         0.0600 
    192 H192       -5.4449  -22.4369  -47.7796 H         1 UNK         0.0600 
    193 H193       -4.8776  -20.7951  -47.5124 H         1 UNK         0.0600 
    194 H194       -4.9650  -21.9288  -46.1664 H         1 UNK         0.0600 
    195 H195       -3.0089  -23.5304  -45.2664 H         1 UNK         0.3000 
    196 H196       -3.5326  -26.1996  -46.0432 H         1 UNK         0.0600 
    197 H197       -2.5694  -26.7740  -43.8121 H         1 UNK         0.0600 
    198 H198       -3.6920  -25.4271  -43.7017 H         1 UNK         0.0600 
    199 H199       -1.9558  -25.1346  -43.6420 H         1 UNK         0.0600 
    200 H200       -0.4014  -24.4719  -45.6750 H         1 UNK         0.3000 
    201 H201        1.2811  -26.6636  -46.3514 H         1 UNK         0.0600 
    202 H202        2.0914  -24.6518  -45.1578 H         1 UNK         0.0600 
    203 H203        1.7617  -23.6434  -46.5641 H         1 UNK         0.0600 
    204 H204        3.0114  -24.8804  -46.6377 H         1 UNK         0.0600 
    205 H205       -0.1741  -24.0869  -48.3703 H         1 UNK         0.3000 
    206 H206        1.0804  -24.9652  -50.8274 H         1 UNK         0.0600 
    207 H207        0.4878  -22.5890  -50.3556 H         1 UNK         0.0600 
    208 H208       -0.3102  -23.1614  -51.8108 H         1 UNK         0.0600 
    209 H209       -1.2228  -23.0131  -50.3099 H         1 UNK         0.0600 
    210 H210       -1.5293  -26.2672  -49.1240 H         1 UNK         0.3000 
    211 H211       -3.2242  -27.6367  -49.5083 H         1 UNK         0.0600 
    212 H212       -1.9278  -28.2975  -52.2078 H         1 UNK         0.0600 
    213 H213       -3.1354  -29.2568  -51.3655 H         1 UNK         0.0600 
    214 H214       -1.5333  -29.0669  -50.6714 H         1 UNK         0.0600 
    215 H215       -3.7449  -25.0840  -49.7975 H         1 UNK         0.3000 
    216 H216       -5.2412  -23.5961  -50.3044 H         1 UNK         0.0600 
    217 H217       -6.7713  -25.7107  -51.9010 H         1 UNK         0.0600 
    218 H218       -7.4150  -24.2041  -51.2688 H         1 UNK         0.0600 
    219 H219       -6.8968  -25.4615  -50.1592 H         1 UNK         0.0600 
    220 H220       -3.1798  -24.6547  -52.6535 H         1 UNK         0.3000 
    221 H221       -4.1827  -23.4177  -55.0009 H         1 UNK         0.0600 
    222 H222       -1.2791  -24.0123  -54.2230 H         1 UNK         0.0600 
    223 H223       -2.3909  -25.1647  -54.9616 H         1 UNK         0.0600 
    224 H224       -1.8826  -23.7368  -55.8511 H         1 UNK         0.0600 
    225 H225       -2.4158  -22.0751  -52.2745 H         1 UNK         0.3000 
    226 H226       -1.8568  -19.5096  -53.6540 H         1 UNK         0.0600 
    227 H227       -0.0791  -20.6837  -52.3136 H         1 UNK         0.0600 
    228 H228       -0.4325  -19.0727  -51.7145 H         1 UNK         0.0600 
    229 H229       -1.0571  -20.4781  -50.8600 H         1 UNK         0.0600 
    230 H230       -4.5025  -20.7610  -52.0610 H         1 UNK         0.3000 
    231 H231       -5.0515  -18.6724  -50.1305 H         1 UNK         0.0600 
    232 H232       -6.8485  -20.9284  -51.1508 H         1 UNK         0.0600 
    233 H233       -7.0558  -19.9981  -49.6721 H         1 UNK         0.0600 
    234 H234       -5.6899  -21.0899  -49.8362 H         1 UNK         0.0600 
    235 H235       -4.6507  -17.3077  -52.4036 H         1 UNK         0.3000 
    236 H236       -6.8361  -16.8254  -54.1241 H         1 UNK         0.0600 
    237 H237       -4.4964  -16.1840  -54.6382 H         1 UNK         0.0600 
    238 H238       -5.5375  -14.7729  -54.7422 H         1 UNK         0.0600 
    239 H239       -4.5037  -14.9961  -53.3349 H         1 UNK         0.0600 
    240 H240       -6.2101  -15.5757  -50.9161 H         1 UNK         0.3000 
    241 H241       -8.3650  -13.5811  -51.0338 H         1 UNK         0.0600 
    242 H242       -8.5400  -16.9421  -50.7472 H         1 UNK         0.3800 
    243 H243       -9.9313  -16.9728  -49.6971 H         1 UNK         0.3800 
    244 H244       -6.4619  -12.7867  -49.8729 H         1 UNK         0.0800 
    245 H245       -7.6867  -13.0513  -48.6802 H         1 UNK         0.0800 
    246 H246       -4.1734  -13.0732  -49.1312 H         1 UNK         0.0800 
    247 H247       -4.2859  -14.4377  -50.2173 H         1 UNK         0.0800 
@<TRIPOS>BOND
     1    1    2 1    
     2    1  127 1    
     3    1  128 1    
     4    1  129 1    
     5    2    3 2    
     6    2    4 am   BACKBONE|DICT|INTERRES
     7    4    5 1    
     8    4  130 1    
     9    5    6 1    
    10    5   65 1    
    11    5  131 1    
    12    6    7 1    
    13    6  132 1    
    14    6  133 1    
    15    7    8 1    
    16    8    9 1    
    17    8  134 1    
    18    8  135 1    
    19    9   10 ar   
    20    9   14 ar   
    21   10   11 ar   
    22   10  136 1    
    23   11   12 ar   
    24   11  126 1    
    25   12   13 ar   
    26   12  137 1    
    27   13   14 ar   
    28   13   15 1    
    29   14  138 1    
    30   15   16 1    
    31   15  139 1    
    32   15  140 1    
    33   16   17 1    
    34   17   18 1    
    35   17  141 1    
    36   17  142 1    
    37   18   19 1    
    38   18   67 1    
    39   18  143 1    
    40   19   20 am   BACKBONE|DICT|INTERRES
    41   19  144 1    
    42   20   21 2    
    43   20   22 1    
    44   22   23 1    
    45   22   24 1    
    46   22  145 1    
    47   23  146 1    
    48   23  147 1    
    49   23  148 1    
    50   24   25 am   BACKBONE|DICT|INTERRES
    51   24  149 1    
    52   25   26 2    
    53   25   27 1    
    54   27   28 1    
    55   27   29 1    
    56   27  150 1    
    57   28  151 1    
    58   28  152 1    
    59   28  153 1    
    60   29   30 am   BACKBONE|DICT|INTERRES
    61   29  154 1    
    62   30   31 2    
    63   30   32 1    
    64   32   33 1    
    65   32   34 1    
    66   32  155 1    
    67   33  156 1    
    68   33  157 1    
    69   33  158 1    
    70   34   35 am   BACKBONE|DICT|INTERRES
    71   34  159 1    
    72   35   36 2    
    73   35   37 1    
    74   37   38 1    
    75   37   39 1    
    76   37  160 1    
    77   38  161 1    
    78   38  162 1    
    79   38  163 1    
    80   39   40 am   BACKBONE|DICT|INTERRES
    81   39  164 1    
    82   40   41 2    
    83   40   42 1    
    84   42   43 1    
    85   42   44 1    
    86   42  165 1    
    87   43  166 1    
    88   43  167 1    
    89   43  168 1    
    90   44   45 am   BACKBONE|DICT|INTERRES
    91   44  169 1    
    92   45   46 2    
    93   45   47 1    
    94   47   48 1    
    95   47   49 1    
    96   47  170 1    
    97   48  171 1    
    98   48  172 1    
    99   48  173 1    
   100   49   50 am   BACKBONE|DICT|INTERRES
   101   49  174 1    
   102   50   51 2    
   103   50   52 1    
   104   52   53 1    
   105   52   54 1    
   106   52  175 1    
   107   53  176 1    
   108   53  177 1    
   109   53  178 1    
   110   54   55 am   BACKBONE|DICT|INTERRES
   111   54  179 1    
   112   55   56 2    
   113   55   57 1    
   114   57   58 1    
   115   57   59 1    
   116   57  180 1    
   117   58  181 1    
   118   58  182 1    
   119   58  183 1    
   120   59   60 am   BACKBONE|DICT|INTERRES
   121   59  184 1    
   122   60   61 2    
   123   60   62 1    
   124   62   63 1    
   125   62   64 1    
   126   62  185 1    
   127   63  186 1    
   128   63  187 1    
   129   63  188 1    
   130   64   65 am   BACKBONE|DICT|INTERRES
   131   64  189 1    
   132   65   66 2    
   133   67   68 2    
   134   67   69 am   BACKBONE|DICT|INTERRES
   135   69   70 1    
   136   69  190 1    
   137   70   71 1    
   138   70   72 1    
   139   70  191 1    
   140   71  192 1    
   141   71  193 1    
   142   71  194 1    
   143   72   73 2    
   144   72   74 am   BACKBONE|DICT|INTERRES
   145   74   75 1    
   146   74  195 1    
   147   75   76 1    
   148   75   77 1    
   149   75  196 1    
   150   76  197 1    
   151   76  198 1    
   152   76  199 1    
   153   77   78 2    
   154   77   79 am   BACKBONE|DICT|INTERRES
   155   79   80 1    
   156   79  200 1    
   157   80   81 1    
   158   80   82 1    
   159   80  201 1    
   160   81  202 1    
   161   81  203 1    
   162   81  204 1    
   163   82   83 2    
   164   82   84 am   BACKBONE|DICT|INTERRES
   165   84   85 1    
   166   84  205 1    
   167   85   86 1    
   168   85   87 1    
   169   85  206 1    
   170   86  207 1    
   171   86  208 1    
   172   86  209 1    
   173   87   88 2    
   174   87   89 am   BACKBONE|DICT|INTERRES
   175   89   90 1    
   176   89  210 1    
   177   90   91 1    
   178   90   92 1    
   179   90  211 1    
   180   91  212 1    
   181   91  213 1    
   182   91  214 1    
   183   92   93 2    
   184   92   94 am   BACKBONE|DICT|INTERRES
   185   94   95 1    
   186   94  215 1    
   187   95   96 1    
   188   95   97 1    
   189   95  216 1    
   190   96  217 1    
   191   96  218 1    
   192   96  219 1    
   193   97   98 2    
   194   97   99 am   BACKBONE|DICT|INTERRES
   195   99  100 1    
   196   99  220 1    
   197  100  101 1    
   198  100  102 1    
   199  100  221 1    
   200  101  222 1    
   201  101  223 1    
   202  101  224 1    
   203  102  103 2    
   204  102  104 am   BACKBONE|DICT|INTERRES
   205  104  105 1    
   206  104  225 1    
   207  105  106 1    
   208  105  107 1    
   209  105  226 1    
   210  106  227 1    
   211  106  228 1    
   212  106  229 1    
   213  107  108 2    
   214  107  109 am   BACKBONE|DICT|INTERRES
   215  109  110 1    
   216  109  230 1    
   217  110  111 1    
   218  110  112 1    
   219  110  231 1    
   220  111  232 1    
   221  111  233 1    
   222  111  234 1    
   223  112  113 2    
   224  112  114 am   BACKBONE|DICT|INTERRES
   225  114  115 1    
   226  114  235 1    
   227  115  116 1    
   228  115  117 1    
   229  115  236 1    
   230  116  237 1    
   231  116  238 1    
   232  116  239 1    
   233  117  118 2    
   234  117  119 am   BACKBONE|DICT|INTERRES
   235  119  120 1    
   236  119  240 1    
   237  120  121 1    
   238  120  124 1    
   239  120  241 1    
   240  121  122 am   BACKBONE|DICT|INTERRES
   241  121  123 2    
   242  122  242 1    
   243  122  243 1    
   244  124  125 1    
   245  124  244 1    
   246  124  245 1    
   247  125  126 1    
   248  126  246 1    
   249  126  247 1    
@<TRIPOS>SUBSTRUCTURE
     1 UNK         1 GROUP             0       ****    0 ROOT    
