@<TRIPOS>MOLECULE
3R540
247   249    1
SMALL
USER_CHARGES


@<TRIPOS>ATOM
      1 CA          1.9820  -14.5154  -47.5244 C.3       0 UNK        -0.1800 
      2 C           0.7558  -15.2516  -47.0074 C.2       0 UNK         0.5000 
      3 O           0.8442  -15.9781  -46.0215 O.2       0 UNK        -0.5000 
      4 N          -0.3935  -15.0689  -47.6688 N.am      1 UNK        -0.5000 
      5 CA         -1.6822  -15.6761  -47.3017 C.3       1 UNK         0.1400 
      6 C6         -2.6696  -15.6749  -48.5008 C.3       23 UNK        -0.0398 
      7 S7         -2.3215  -17.0162  -49.6893 S.3       23 UNK        -0.2404 
      8 C8         -1.2015  -16.2376  -50.8981 C.3       23 UNK        -0.0205 
      9 C9         -0.0167  -17.1493  -51.1723 C.ar      23 UNK        -0.0193 
     10 C10         0.0327  -17.9549  -52.3128 C.ar      23 UNK        -0.1150 
     11 C11         1.1097  -18.8264  -52.5177 C.ar      23 UNK        -0.0193 
     12 C12         2.1288  -18.9029  -51.5596 C.ar      23 UNK        -0.1150 
     13 C13         2.0921  -18.0930  -50.4204 C.ar      23 UNK        -0.0193 
     14 C14         1.0314  -17.2026  -50.2555 C.ar      23 UNK        -0.1150 
     15 C15         3.2006  -18.1476  -49.3752 C.3       23 UNK        -0.0205 
     16 S16         2.9658  -19.4674  -48.1348 S.3       23 UNK        -0.2404 
     17 C17         1.4205  -18.9889  -47.2843 C.3       23 UNK        -0.0398 
     18 CA          0.5285  -20.2240  -47.0143 C.3       11 UNK         0.1400 
     19 N           0.8978  -20.8841  -45.7643 N.am      11 UNK        -0.5000 
     20 C           0.7818  -22.1925  -45.5104 C.2       10 UNK         0.5000 
     21 O           0.3105  -23.0001  -46.3111 O.2       10 UNK        -0.5000 
     22 CA          1.2496  -22.6658  -44.1164 C.3       10 UNK         0.1400 
     23 CB          1.8062  -24.1040  -44.1249 C.3       10 UNK        -0.1800 
     24 N           2.1850  -21.7317  -43.4769 N.am      10 UNK        -0.5000 
     25 C           3.4260  -21.3996  -43.8666 C.2       9 UNK         0.5000 
     26 O           4.0240  -21.9364  -44.7988 O.2       9 UNK        -0.5000 
     27 CA          4.0995  -20.2352  -43.1111 C.3       9 UNK         0.1400 
     28 CB          4.1281  -18.9819  -43.9993 C.3       9 UNK        -0.1800 
     29 N           3.4200  -19.9051  -41.8554 N.am      9 UNK        -0.5000 
     30 C           3.5673  -20.5846  -40.7097 C.2       8 UNK         0.5000 
     31 O           4.3836  -21.4923  -40.5502 O.2       8 UNK        -0.5000 
     32 CA          2.5965  -20.2222  -39.5708 C.3       8 UNK         0.1400 
     33 CB          3.1503  -19.0727  -38.7151 C.3       8 UNK        -0.1800 
     34 N           1.2649  -19.8736  -40.0776 N.am      8 UNK        -0.5000 
     35 C           0.3986  -20.7678  -40.5792 C.2       7 UNK         0.5000 
     36 O           0.6248  -21.9761  -40.6277 O.2       7 UNK        -0.5000 
     37 CA         -0.9270  -20.2402  -41.1576 C.3       7 UNK         0.1400 
     38 CB         -2.0603  -20.3856  -40.1317 C.3       7 UNK        -0.1800 
     39 N          -0.8570  -18.8472  -41.5929 N.am      7 UNK        -0.5000 
     40 C          -0.2252  -18.4096  -42.6889 C.2       6 UNK         0.5000 
     41 O           0.3622  -19.1533  -43.4786 O.2       6 UNK        -0.5000 
     42 CA         -0.2813  -16.8930  -42.9689 C.3       6 UNK         0.1400 
     43 CB         -1.0388  -16.0852  -41.8913 C.3       6 UNK        -0.1800 
     44 N           1.0401  -16.3072  -43.1862 N.am      6 UNK        -0.5000 
     45 C           2.0978  -16.3715  -42.3678 C.2       5 UNK         0.5000 
     46 O           2.1287  -17.0576  -41.3455 O.2       5 UNK        -0.5000 
     47 CA          3.3187  -15.5089  -42.7376 C.3       5 UNK         0.1400 
     48 CB          3.4895  -15.2823  -44.2504 C.3       5 UNK        -0.1800 
     49 N           3.2049  -14.2101  -42.0818 N.am      5 UNK        -0.5000 
     50 C           3.5246  -13.9623  -40.8053 C.2       4 UNK         0.5000 
     51 O           4.0664  -14.7820  -40.0626 O.2       4 UNK        -0.5000 
     52 CA          3.2048  -12.5558  -40.2601 C.3       4 UNK         0.1400 
     53 CB          4.4846  -11.7084  -40.1794 C.3       4 UNK        -0.1800 
     54 N           2.2011  -11.8156  -41.0316 N.am      4 UNK        -0.5000 
     55 C           0.8954  -12.1113  -41.0921 C.2       3 UNK         0.5000 
     56 O           0.3951  -13.0934  -40.5412 O.2       3 UNK        -0.5000 
     57 CA         -0.0186  -11.1248  -41.8516 C.3       3 UNK         0.1400 
     58 CB          0.7358  -10.0756  -42.7020 C.3       3 UNK        -0.1800 
     59 N          -1.0398  -11.8113  -42.6485 N.am      3 UNK        -0.5000 
     60 C          -0.8396  -12.5944  -43.7167 C.2       2 UNK         0.5000 
     61 O           0.2734  -12.8542  -44.1850 O.2       2 UNK        -0.5000 
     62 CA         -2.1063  -13.1754  -44.3737 C.3       2 UNK         0.1400 
     63 CB         -3.1137  -12.0795  -44.7715 C.3       2 UNK        -0.1800 
     64 N          -1.7215  -13.9214  -45.5645 N.am      2 UNK        -0.5000 
     65 C          -2.3117  -15.0202  -46.0471 C.2       1 UNK         0.5000 
     66 O          -3.3101  -15.5299  -45.5382 O.2       1 UNK        -0.5000 
     67 C          -0.9677  -19.8640  -47.0254 C.2       11 UNK         0.5000 
     68 O          -1.5760  -19.9027  -48.0922 O.2       11 UNK        -0.5000 
     69 N          -1.5650  -19.5845  -45.8541 N.am      12 UNK        -0.5000 
     70 CA         -3.0004  -19.2900  -45.7123 C.3       12 UNK         0.1400 
     71 CB         -3.3258  -18.9367  -44.2540 C.3       12 UNK        -0.1800 
     72 C          -3.9200  -20.4278  -46.1995 C.2       12 UNK         0.5000 
     73 O          -5.0204  -20.1586  -46.6816 O.2       12 UNK        -0.5000 
     74 N          -3.4242  -21.6708  -46.1183 N.am      13 UNK        -0.5000 
     75 CA         -4.0707  -22.8826  -46.6220 C.3       13 UNK         0.1400 
     76 CB         -3.2604  -24.1025  -46.1573 C.3       13 UNK        -0.1800 
     77 C          -4.2549  -22.9096  -48.1540 C.2       13 UNK         0.5000 
     78 O          -5.0951  -23.6690  -48.6371 O.2       13 UNK        -0.5000 
     79 N          -3.4941  -22.0858  -48.8930 N.am      14 UNK        -0.5000 
     80 CA         -3.6375  -21.9234  -50.3393 C.3       14 UNK         0.1400 
     81 CB         -2.3660  -21.2882  -50.9187 C.3       14 UNK        -0.1800 
     82 C          -4.8733  -21.0944  -50.7323 C.2       14 UNK         0.5000 
     83 O          -5.3146  -21.2033  -51.8767 O.2       14 UNK        -0.5000 
     84 N          -5.4004  -20.2876  -49.7961 N.am      15 UNK        -0.5000 
     85 CA         -6.5960  -19.4471  -49.9230 C.3       15 UNK         0.1400 
     86 CB         -7.8578  -20.3333  -49.9912 C.3       15 UNK        -0.1800 
     87 C          -6.4995  -18.4548  -51.1002 C.2       15 UNK         0.5000 
     88 O          -7.3694  -18.4408  -51.9701 O.2       15 UNK        -0.5000 
     89 N          -5.4024  -17.6831  -51.1411 N.am      16 UNK        -0.5000 
     90 CA         -5.0287  -16.7658  -52.2302 C.3       16 UNK         0.1400 
     91 CB         -6.0293  -15.5966  -52.3454 C.3       16 UNK        -0.1800 
     92 C          -4.7937  -17.5032  -53.5680 C.2       16 UNK         0.5000 
     93 O          -5.1146  -16.9786  -54.6348 O.2       16 UNK        -0.5000 
     94 N          -4.2582  -18.7280  -53.4597 N.am      17 UNK        -0.5000 
     95 CA         -4.0072  -19.7211  -54.5094 C.3       17 UNK         0.1400 
     96 CB         -3.0743  -19.1667  -55.6052 C.3       17 UNK        -0.1800 
     97 C          -5.2785  -20.3737  -55.0958 C.2       17 UNK         0.5000 
     98 O          -5.1548  -21.2032  -55.9985 O.2       17 UNK        -0.5000 
     99 N          -6.4697  -20.0528  -54.5656 N.am      18 UNK        -0.5000 
    100 CA        -7.7531  -20.6022  -55.0144 C.3       18 UNK         0.1400 
    101 CB        -8.9074  -19.7858  -54.4156 C.3       18 UNK        -0.1800 
    102 C         -7.9323  -22.0979  -54.6914 C.2       18 UNK         0.5000 
    103 O         -8.7005  -22.7704  -55.3802 O.2       18 UNK        -0.5000 
    104 N         -7.2102  -22.6049  -53.6807 N.am      19 UNK        -0.5000 
    105 CA        -7.1704  -24.0283  -53.3328 C.3       19 UNK         0.1400 
    106 CB        -6.7152  -24.1778  -51.8728 C.3       19 UNK        -0.1800 
    107 C         -6.2611  -24.8534  -54.2695 C.2       19 UNK         0.5000 
    108 O         -6.2468  -26.0792  -54.1581 O.2       19 UNK        -0.5000 
    109 N         -5.5038  -24.1760  -55.1490 N.am      20 UNK        -0.5000 
    110 CA        -4.5573  -24.7139  -56.1356 C.3       20 UNK         0.1400 
    111 CB        -5.2631  -25.6488  -57.1391 C.3       20 UNK        -0.1800 
    112 C         -3.2918  -25.3537  -55.5249 C.2       20 UNK         0.5000 
    113 O         -2.5124  -25.9717  -56.2529 O.2       20 UNK        -0.5000 
    114 N         -3.0689  -25.1528  -54.2169 N.am      21 UNK        -0.5000 
    115 CA        -1.9138  -25.6491  -53.4585 C.3       21 UNK         0.1400 
    116 CB        -2.1193  -25.3241  -51.9710 C.3       21 UNK        -0.1800 
    117 C         -0.5648  -25.0827  -53.9468 C.2       21 UNK         0.5000 
    118 O          0.4707  -25.7231  -53.7624 O.2       21 UNK        -0.5000 
    119 N         -0.6150  -23.9043  -54.5775 N.am      22 UNK        -0.5000 
    120 CA         0.5104  -23.2354  -55.2444 C.3       22 UNK         0.1400 
    121 C          0.9435  -23.8963  -56.5882 C.2       22 UNK         0.5000 
    122 N          0.2026  -24.8503  -57.1428 N.am      22 UNK        -0.7600 
    123 O          1.9809  -23.5377  -57.1386 O.2       22 UNK        -0.5000 
    124 C124        0.2208  -21.7257  -55.4455 C.3       23 UNK        -0.0398 
    125 S125       -0.1701  -20.8741  -53.8783 S.3       23 UNK        -0.2404 
    126 C126        1.1826  -19.6641  -53.7858 C.3       23 UNK        -0.0205 
    127 H127        1.8474  -14.1810  -48.5533 H         1 UNK         0.0600 
    128 H128        2.8547  -15.1673  -47.4907 H         1 UNK         0.0600 
    129 H129        2.1833  -13.6434  -46.9024 H         1 UNK         0.0600 
    130 H130       -0.4132  -14.4411  -48.4591 H         1 UNK         0.3000 
    131 H131       -1.4936  -16.7146  -47.0210 H         1 UNK         0.0600 
    132 H132       -2.6816  -14.7094  -49.0087 H         1 UNK         0.0800 
    133 H133       -3.6939  -15.8414  -48.1618 H         1 UNK         0.0800 
    134 H134       -1.7431  -16.0282  -51.8207 H         1 UNK         0.0800 
    135 H135       -0.8428  -15.2766  -50.5295 H         1 UNK         0.0800 
    136 H136       -0.7680  -17.9129  -53.0379 H         1 UNK         0.1150 
    137 H137        2.9570  -19.5825  -51.7036 H         1 UNK         0.1150 
    138 H138        1.0037  -16.5663  -49.3891 H         1 UNK         0.1150 
    139 H139        4.1579  -18.3061  -49.8738 H         1 UNK         0.0800 
    140 H140        3.2863  -17.1890  -48.8619 H         1 UNK         0.0800 
    141 H141        0.8901  -18.2559  -47.8860 H         1 UNK         0.0800 
    142 H142        1.6715  -18.4749  -46.3553 H         1 UNK         0.0800 
    143 H143        0.6646  -20.9309  -47.8364 H         1 UNK         0.0600 
    144 H144        1.2134  -20.2827  -45.0128 H         1 UNK         0.3000 
    145 H145        0.3569  -22.6672  -43.4895 H         1 UNK         0.0600 
    146 H146        2.1343  -24.4047  -43.1299 H         1 UNK         0.0600 
    147 H147        1.0433  -24.8156  -44.4427 H         1 UNK         0.0600 
    148 H148        2.6516  -24.2097  -44.8050 H         1 UNK         0.0600 
    149 H149        1.8058  -21.2193  -42.6940 H         1 UNK         0.3000 
    150 H150        5.1292  -20.5290  -42.8972 H         1 UNK         0.0600 
    151 H151        4.6245  -19.1834  -44.9496 H         1 UNK         0.0600 
    152 H152        4.6743  -18.1723  -43.5165 H         1 UNK         0.0600 
    153 H153        3.1218  -18.6284  -44.2263 H         1 UNK         0.0600 
    154 H154        2.7504  -19.1457  -41.8779 H         1 UNK         0.3000 
    155 H155        2.4984  -21.0990  -38.9270 H         1 UNK         0.0600 
    156 H156        3.3044  -18.1652  -39.2988 H         1 UNK         0.0600 
    157 H157        4.1118  -19.3443  -38.2777 H         1 UNK         0.0600 
    158 H158        2.4761  -18.8324  -37.8930 H         1 UNK         0.0600 
    159 H159        1.0359  -18.8893  -40.1152 H         1 UNK         0.3000 
    160 H160       -1.1734  -20.8570  -42.0246 H         1 UNK         0.0600 
    161 H161       -1.8807  -19.7780  -39.2439 H         1 UNK         0.0600 
    162 H162       -2.1621  -21.4216  -39.8056 H         1 UNK         0.0600 
    163 H163       -3.0180  -20.0852  -40.5574 H         1 UNK         0.0600 
    164 H164       -1.3120  -18.1688  -40.9992 H         1 UNK         0.3000 
    165 H165       -0.8169  -16.7769  -43.9113 H         1 UNK         0.0600 
    166 H166       -1.0455  -15.0246  -42.1342 H         1 UNK         0.0600 
    167 H167       -2.0804  -16.3993  -41.8138 H         1 UNK         0.0600 
    168 H168       -0.5784  -16.1813  -40.9070 H         1 UNK         0.0600 
    169 H169        1.1411  -15.8246  -44.0743 H         1 UNK         0.3000 
    170 H170        4.2078  -16.0273  -42.3730 H         1 UNK         0.0600 
    171 H171        3.4322  -16.2177  -44.8077 H         1 UNK         0.0600 
    172 H172        2.7277  -14.6099  -44.6447 H         1 UNK         0.0600 
    173 H173        4.4602  -14.8368  -44.4678 H         1 UNK         0.0600 
    174 H174        2.7289  -13.4848  -42.5989 H         1 UNK         0.3000 
    175 H175        2.8192  -12.6851  -39.2466 H         1 UNK         0.0600 
    176 H176        4.9087  -11.5261  -41.1676 H         1 UNK         0.0600 
    177 H177        4.2908  -10.7426  -39.7123 H         1 UNK         0.0600 
    178 H178        5.2484  -12.2080  -39.5819 H         1 UNK         0.0600 
    179 H179        2.5277  -10.9917  -41.5155 H         1 UNK         0.3000 
    180 H180       -0.5634  -10.5793  -41.0798 H         1 UNK         0.0600 
    181 H181        0.0362   -9.4256  -43.2277 H         1 UNK         0.0600 
    182 H182        1.3812  -10.5374  -43.4500 H         1 UNK         0.0600 
    183 H183        1.3562   -9.4310  -42.0783 H         1 UNK         0.0600 
    184 H184       -1.9867  -11.6917  -42.3178 H         1 UNK         0.3000 
    185 H185       -2.5718  -13.8507  -43.6533 H         1 UNK         0.0600 
    186 H186       -3.9816  -12.5068  -45.2742 H         1 UNK         0.0600 
    187 H187       -3.4853  -11.5402  -43.9000 H         1 UNK         0.0600 
    188 H188       -2.6646  -11.3493  -45.4458 H         1 UNK         0.0600 
    189 H189       -0.8464  -13.6225  -45.9744 H         1 UNK         0.3000 
    190 H190       -0.9999  -19.5786  -45.0135 H         1 UNK         0.3000 
    191 H191       -3.2225  -18.4174  -46.3301 H         1 UNK         0.0600 
    192 H192       -2.9987  -19.7157  -43.5649 H         1 UNK         0.0600 
    193 H193       -4.3996  -18.8052  -44.1129 H         1 UNK         0.0600 
    194 H194       -2.8583  -17.9980  -43.9636 H         1 UNK         0.0600 
    195 H195       -2.4994  -21.7868  -45.7322 H         1 UNK         0.3000 
    196 H196       -5.0651  -22.9396  -46.1747 H         1 UNK         0.0600 
    197 H197       -2.2509  -24.0944  -46.5701 H         1 UNK         0.0600 
    198 H198       -3.1795  -24.1343  -45.0706 H         1 UNK         0.0600 
    199 H199       -3.7361  -25.0317  -46.4737 H         1 UNK         0.0600 
    200 H200       -2.8274  -21.4712  -48.4372 H         1 UNK         0.3000 
    201 H201       -3.7513  -22.9128  -50.7835 H         1 UNK         0.0600 
    202 H202       -2.2455  -20.2512  -50.6033 H         1 UNK         0.0600 
    203 H203       -2.4000  -21.2937  -52.0071 H         1 UNK         0.0600 
    204 H204       -1.4722  -21.8365  -50.6206 H         1 UNK         0.0600 
    205 H205       -4.9715  -20.2864  -48.8784 H         1 UNK         0.3000 
    206 H206       -6.6573  -18.8489  -49.0127 H         1 UNK         0.0600 
    207 H207       -7.9128  -21.0051  -49.1346 H         1 UNK         0.0600 
    208 H208       -8.7630  -19.7252  -49.9866 H         1 UNK         0.0600 
    209 H209       -7.8784  -20.9429  -50.8955 H         1 UNK         0.0600 
    210 H210       -4.7241  -17.7744  -50.3964 H         1 UNK         0.3000 
    211 H211       -4.0682  -16.3336  -51.9559 H         1 UNK         0.0600 
    212 H212       -5.6675  -14.8424  -53.0451 H         1 UNK         0.0600 
    213 H213       -6.1709  -15.1036  -51.3837 H         1 UNK         0.0600 
    214 H214       -7.0055  -15.9268  -52.7010 H         1 UNK         0.0600 
    215 H215       -4.0912  -19.0644  -52.5226 H         1 UNK         0.3000 
    216 H216       -3.4705  -20.5320  -54.0166 H         1 UNK         0.0600 
    217 H217       -3.5660  -18.4094  -56.2157 H         1 UNK         0.0600 
    218 H218       -2.7479  -19.9613  -56.2769 H         1 UNK         0.0600 
    219 H219       -2.1777  -18.7225  -55.1729 H         1 UNK         0.0600 
    220 H220       -6.5038  -19.4097  -53.7839 H         1 UNK         0.3000 
    221 H221       -7.7947  -20.4945  -56.1002 H         1 UNK         0.0600 
    222 H222       -8.7767  -18.7185  -54.5950 H         1 UNK         0.0600 
    223 H223       -8.9924  -19.9406  -53.3397 H         1 UNK         0.0600 
    224 H224       -9.8596  -20.0775  -54.8601 H         1 UNK         0.0600 
    225 H225       -6.6023  -21.9881  -53.1476 H         1 UNK         0.3000 
    226 H226       -8.1803  -24.4359  -53.4126 H         1 UNK         0.0600 
    227 H227       -5.6681  -23.9055  -51.7493 H         1 UNK         0.0600 
    228 H228       -7.3068  -23.5538  -51.2024 H         1 UNK         0.0600 
    229 H229       -6.8220  -25.2091  -51.5347 H         1 UNK         0.0600 
    230 H230       -5.5967  -23.1670  -55.1662 H         1 UNK         0.3000 
    231 H231       -4.2028  -23.8488  -56.6978 H         1 UNK         0.0600 
    232 H232       -5.5742  -26.5849  -56.6753 H         1 UNK         0.0600 
    233 H233       -4.6017  -25.9028  -57.9682 H         1 UNK         0.0600 
    234 H234       -6.1468  -25.1741  -57.5656 H         1 UNK         0.0600 
    235 H235       -3.7622  -24.6356  -53.6986 H         1 UNK         0.3000 
    236 H236       -1.8804  -26.7341  -53.5757 H         1 UNK         0.0600 
    237 H237       -3.0676  -25.7164  -51.6026 H         1 UNK         0.0600 
    238 H238       -1.3276  -25.7648  -51.3639 H         1 UNK         0.0600 
    239 H239       -2.1040  -24.2489  -51.7933 H         1 UNK         0.0600 
    240 H240       -1.5108  -23.4502  -54.6631 H         1 UNK         0.3000 
    241 H241        1.3743  -23.3173  -54.5821 H         1 UNK         0.0600 
    242 H242        0.5055  -25.2656  -58.0096 H         1 UNK         0.3800 
    243 H243       -0.6549  -25.1741  -56.7105 H         1 UNK         0.3800 
    244 H244       -0.6218  -21.5878  -56.1250 H         1 UNK         0.0800 
    245 H245        1.0723  -21.2336  -55.9189 H         1 UNK         0.0800 
    246 H246        2.1368  -20.1901  -53.8451 H         1 UNK         0.0800 
    247 H247        1.1354  -19.0027  -54.6521 H         1 UNK         0.0800 
@<TRIPOS>BOND
     1    1    2 1    
     2    1  127 1    
     3    1  128 1    
     4    1  129 1    
     5    2    3 2    
     6    2    4 am   BACKBONE|DICT|INTERRES
     7    4    5 1    
     8    4  130 1    
     9    5    6 1    
    10    5   65 1    
    11    5  131 1    
    12    6    7 1    
    13    6  132 1    
    14    6  133 1    
    15    7    8 1    
    16    8    9 1    
    17    8  134 1    
    18    8  135 1    
    19    9   10 ar   
    20    9   14 ar   
    21   10   11 ar   
    22   10  136 1    
    23   11   12 ar   
    24   11  126 1    
    25   12   13 ar   
    26   12  137 1    
    27   13   14 ar   
    28   13   15 1    
    29   14  138 1    
    30   15   16 1    
    31   15  139 1    
    32   15  140 1    
    33   16   17 1    
    34   17   18 1    
    35   17  141 1    
    36   17  142 1    
    37   18   19 1    
    38   18   67 1    
    39   18  143 1    
    40   19   20 am   BACKBONE|DICT|INTERRES
    41   19  144 1    
    42   20   21 2    
    43   20   22 1    
    44   22   23 1    
    45   22   24 1    
    46   22  145 1    
    47   23  146 1    
    48   23  147 1    
    49   23  148 1    
    50   24   25 am   BACKBONE|DICT|INTERRES
    51   24  149 1    
    52   25   26 2    
    53   25   27 1    
    54   27   28 1    
    55   27   29 1    
    56   27  150 1    
    57   28  151 1    
    58   28  152 1    
    59   28  153 1    
    60   29   30 am   BACKBONE|DICT|INTERRES
    61   29  154 1    
    62   30   31 2    
    63   30   32 1    
    64   32   33 1    
    65   32   34 1    
    66   32  155 1    
    67   33  156 1    
    68   33  157 1    
    69   33  158 1    
    70   34   35 am   BACKBONE|DICT|INTERRES
    71   34  159 1    
    72   35   36 2    
    73   35   37 1    
    74   37   38 1    
    75   37   39 1    
    76   37  160 1    
    77   38  161 1    
    78   38  162 1    
    79   38  163 1    
    80   39   40 am   BACKBONE|DICT|INTERRES
    81   39  164 1    
    82   40   41 2    
    83   40   42 1    
    84   42   43 1    
    85   42   44 1    
    86   42  165 1    
    87   43  166 1    
    88   43  167 1    
    89   43  168 1    
    90   44   45 am   BACKBONE|DICT|INTERRES
    91   44  169 1    
    92   45   46 2    
    93   45   47 1    
    94   47   48 1    
    95   47   49 1    
    96   47  170 1    
    97   48  171 1    
    98   48  172 1    
    99   48  173 1    
   100   49   50 am   BACKBONE|DICT|INTERRES
   101   49  174 1    
   102   50   51 2    
   103   50   52 1    
   104   52   53 1    
   105   52   54 1    
   106   52  175 1    
   107   53  176 1    
   108   53  177 1    
   109   53  178 1    
   110   54   55 am   BACKBONE|DICT|INTERRES
   111   54  179 1    
   112   55   56 2    
   113   55   57 1    
   114   57   58 1    
   115   57   59 1    
   116   57  180 1    
   117   58  181 1    
   118   58  182 1    
   119   58  183 1    
   120   59   60 am   BACKBONE|DICT|INTERRES
   121   59  184 1    
   122   60   61 2    
   123   60   62 1    
   124   62   63 1    
   125   62   64 1    
   126   62  185 1    
   127   63  186 1    
   128   63  187 1    
   129   63  188 1    
   130   64   65 am   BACKBONE|DICT|INTERRES
   131   64  189 1    
   132   65   66 2    
   133   67   68 2    
   134   67   69 am   BACKBONE|DICT|INTERRES
   135   69   70 1    
   136   69  190 1    
   137   70   71 1    
   138   70   72 1    
   139   70  191 1    
   140   71  192 1    
   141   71  193 1    
   142   71  194 1    
   143   72   73 2    
   144   72   74 am   BACKBONE|DICT|INTERRES
   145   74   75 1    
   146   74  195 1    
   147   75   76 1    
   148   75   77 1    
   149   75  196 1    
   150   76  197 1    
   151   76  198 1    
   152   76  199 1    
   153   77   78 2    
   154   77   79 am   BACKBONE|DICT|INTERRES
   155   79   80 1    
   156   79  200 1    
   157   80   81 1    
   158   80   82 1    
   159   80  201 1    
   160   81  202 1    
   161   81  203 1    
   162   81  204 1    
   163   82   83 2    
   164   82   84 am   BACKBONE|DICT|INTERRES
   165   84   85 1    
   166   84  205 1    
   167   85   86 1    
   168   85   87 1    
   169   85  206 1    
   170   86  207 1    
   171   86  208 1    
   172   86  209 1    
   173   87   88 2    
   174   87   89 am   BACKBONE|DICT|INTERRES
   175   89   90 1    
   176   89  210 1    
   177   90   91 1    
   178   90   92 1    
   179   90  211 1    
   180   91  212 1    
   181   91  213 1    
   182   91  214 1    
   183   92   93 2    
   184   92   94 am   BACKBONE|DICT|INTERRES
   185   94   95 1    
   186   94  215 1    
   187   95   96 1    
   188   95   97 1    
   189   95  216 1    
   190   96  217 1    
   191   96  218 1    
   192   96  219 1    
   193   97   98 2    
   194   97   99 am   BACKBONE|DICT|INTERRES
   195   99  100 1    
   196   99  220 1    
   197  100  101 1    
   198  100  102 1    
   199  100  221 1    
   200  101  222 1    
   201  101  223 1    
   202  101  224 1    
   203  102  103 2    
   204  102  104 am   BACKBONE|DICT|INTERRES
   205  104  105 1    
   206  104  225 1    
   207  105  106 1    
   208  105  107 1    
   209  105  226 1    
   210  106  227 1    
   211  106  228 1    
   212  106  229 1    
   213  107  108 2    
   214  107  109 am   BACKBONE|DICT|INTERRES
   215  109  110 1    
   216  109  230 1    
   217  110  111 1    
   218  110  112 1    
   219  110  231 1    
   220  111  232 1    
   221  111  233 1    
   222  111  234 1    
   223  112  113 2    
   224  112  114 am   BACKBONE|DICT|INTERRES
   225  114  115 1    
   226  114  235 1    
   227  115  116 1    
   228  115  117 1    
   229  115  236 1    
   230  116  237 1    
   231  116  238 1    
   232  116  239 1    
   233  117  118 2    
   234  117  119 am   BACKBONE|DICT|INTERRES
   235  119  120 1    
   236  119  240 1    
   237  120  121 1    
   238  120  124 1    
   239  120  241 1    
   240  121  122 am   BACKBONE|DICT|INTERRES
   241  121  123 2    
   242  122  242 1    
   243  122  243 1    
   244  124  125 1    
   245  124  244 1    
   246  124  245 1    
   247  125  126 1    
   248  126  246 1    
   249  126  247 1    
@<TRIPOS>SUBSTRUCTURE
     1 UNK         1 GROUP             0       ****    0 ROOT    
