@<TRIPOS>MOLECULE
3R540
247   249    1
SMALL
USER_CHARGES


@<TRIPOS>ATOM
      1 CA          0.6707  -12.0572  -46.2059 C.3       0 UNK        -0.1800 
      2 C           2.0306  -12.3667  -46.8105 C.2       0 UNK         0.5000 
      3 O           2.7385  -11.4493  -47.2241 O.2       0 UNK        -0.5000 
      4 N           2.3838  -13.6571  -46.8837 N.am      1 UNK        -0.5000 
      5 CA          3.6059  -14.1520  -47.5243 C.3       1 UNK         0.1400 
      6 C6          3.5174  -15.6702  -47.8161 C.3       23 UNK        -0.0398 
      7 S7          4.6640  -16.1958  -49.1348 S.3       23 UNK        -0.2404 
      8 C8          3.5848  -16.1777  -50.6057 C.3       23 UNK        -0.0205 
      9 C9          2.5144  -17.2593  -50.5560 C.ar      23 UNK        -0.0193 
     10 C10         1.1575  -16.9180  -50.5719 C.ar      23 UNK        -0.1150 
     11 C11         0.1757  -17.9123  -50.5140 C.ar      23 UNK        -0.0193 
     12 C12         0.5606  -19.2527  -50.4212 C.ar      23 UNK        -0.1150 
     13 C13         1.9121  -19.6059  -50.4154 C.ar      23 UNK        -0.0193 
     14 C14         2.8834  -18.6061  -50.4973 C.ar      23 UNK        -0.1150 
     15 C15         2.3209  -21.0658  -50.2959 C.3       23 UNK        -0.0205 
     16 S16         3.1371  -21.4302  -48.7061 S.3       23 UNK        -0.2404 
     17 C17         1.9158  -20.8362  -47.4838 C.3       23 UNK        -0.0398 
     18 CA          1.0153  -21.9527  -46.9137 C.3       11 UNK         0.1400 
     19 N           0.3733  -21.5317  -45.6683 N.am      11 UNK        -0.5000 
     20 C          -0.2723  -22.3553  -44.8329 C.2       10 UNK         0.5000 
     21 O          -0.3618  -23.5705  -45.0052 O.2       10 UNK        -0.5000 
     22 CA         -0.9691  -21.7073  -43.6245 C.3       10 UNK         0.1400 
     23 CB          0.0410  -21.4368  -42.4999 C.3       10 UNK        -0.1800 
     24 N          -1.6660  -20.4681  -43.9740 N.am      10 UNK        -0.5000 
     25 C          -2.7062  -20.3974  -44.8176 C.2       9 UNK         0.5000 
     26 O          -3.2092  -21.3790  -45.3630 O.2       9 UNK        -0.5000 
     27 CA         -3.2480  -18.9943  -45.1458 C.3       9 UNK         0.1400 
     28 CB         -4.1322  -18.4680  -44.0061 C.3       9 UNK        -0.1800 
     29 N          -2.1896  -18.0265  -45.4364 N.am      9 UNK        -0.5000 
     30 C          -1.3151  -18.1350  -46.4469 C.2       8 UNK         0.5000 
     31 O          -1.3099  -19.0628  -47.2535 O.2       8 UNK        -0.5000 
     32 CA         -0.2267  -17.0533  -46.5391 C.3       8 UNK         0.1400 
     33 CB         -0.7784  -15.7626  -47.1647 C.3       8 UNK        -0.1800 
     34 N           0.3638  -16.7649  -45.2317 N.am      8 UNK        -0.5000 
     35 C           1.0914  -17.6452  -44.5281 C.2       7 UNK         0.5000 
     36 O           1.3980  -18.7652  -44.9363 O.2       7 UNK        -0.5000 
     37 CA          1.5018  -17.2144  -43.1108 C.3       7 UNK         0.1400 
     38 CB          2.7328  -16.2983  -43.1565 C.3       7 UNK        -0.1800 
     39 N           0.4112  -16.5402  -42.4050 N.am      7 UNK        -0.5000 
     40 C          -0.7015  -17.1606  -41.9829 C.2       6 UNK         0.5000 
     41 O          -0.9091  -18.3632  -42.1347 O.2       6 UNK        -0.5000 
     42 CA         -1.7847  -16.2938  -41.3140 C.3       6 UNK         0.1400 
     43 CB         -1.5353  -16.1980  -39.8017 C.3       6 UNK        -0.1800 
     44 N          -1.8763  -14.9449  -41.8701 N.am      6 UNK        -0.5000 
     45 C          -2.1483  -14.6476  -43.1487 C.2       5 UNK         0.5000 
     46 O          -2.3949  -15.4919  -44.0100 O.2       5 UNK        -0.5000 
     47 CA         -2.0800  -13.1588  -43.5384 C.3       5 UNK         0.1400 
     48 CB         -3.4774  -12.5254  -43.4805 C.3       5 UNK        -0.1800 
     49 N          -1.1601  -12.3768  -42.7033 N.am      5 UNK        -0.5000 
     50 C           0.1608  -12.5813  -42.6114 C.2       4 UNK         0.5000 
     51 O           0.7664  -13.4615  -43.2301 O.2       4 UNK        -0.5000 
     52 CA          0.9154  -11.7039  -41.6016 C.3       4 UNK         0.1400 
     53 CB          1.0033  -12.4248  -40.2474 C.3       4 UNK        -0.1800 
     54 N           2.2684  -11.4153  -42.0685 N.am      4 UNK        -0.5000 
     55 C           2.5851  -10.4532  -42.9458 C.2       3 UNK         0.5000 
     56 O           1.7715   -9.6671  -43.4309 O.2       3 UNK        -0.5000 
     57 CA          4.0605  -10.3808  -43.3598 C.3       3 UNK         0.1400 
     58 CB          4.8955   -9.7634  -42.2171 C.3       3 UNK        -0.1800 
     59 N           4.5077  -11.7277  -43.7155 N.am      3 UNK        -0.5000 
     60 C           5.7327  -12.1090  -44.0984 C.2       2 UNK         0.5000 
     61 O           6.7033  -11.3578  -44.1930 O.2       2 UNK        -0.5000 
     62 CA          5.8781  -13.5945  -44.4681 C.3       2 UNK         0.1400 
     63 CB          5.8370  -14.4805  -43.2125 C.3       2 UNK        -0.1800 
     64 N           4.8232  -14.0032  -45.3972 N.am      2 UNK        -0.5000 
     65 C           4.8682  -13.7791  -46.7185 C.2       1 UNK         0.5000 
     66 O           5.8334  -13.2751  -47.2950 O.2       1 UNK        -0.5000 
     67 C          -0.0163  -22.4654  -47.9424 C.2       11 UNK         0.5000 
     68 O           0.2051  -23.5143  -48.5461 O.2       11 UNK        -0.5000 
     69 N          -1.1460  -21.7582  -48.0924 N.am      12 UNK        -0.5000 
     70 CA         -2.2657  -22.1653  -48.9435 C.3       12 UNK         0.1400 
     71 CB         -3.3003  -21.0340  -49.0268 C.3       12 UNK        -0.1800 
     72 C          -2.9203  -23.4790  -48.4772 C.2       12 UNK         0.5000 
     73 O          -3.2431  -24.3210  -49.3150 O.2       12 UNK        -0.5000 
     74 N          -3.0635  -23.6549  -47.1559 N.am      13 UNK        -0.5000 
     75 CA         -3.5428  -24.8887  -46.5317 C.3       13 UNK         0.1400 
     76 CB         -3.8009  -24.6536  -45.0362 C.3       13 UNK        -0.1800 
     77 C          -2.5810  -26.0716  -46.7480 C.2       13 UNK         0.5000 
     78 O          -3.0376  -27.1650  -47.0818 O.2       13 UNK        -0.5000 
     79 N          -1.2687  -25.8280  -46.6130 N.am      14 UNK        -0.5000 
     80 CA         -0.2066  -26.7972  -46.9052 C.3       14 UNK         0.1400 
     81 CB          1.1465  -26.2368  -46.4424 C.3       14 UNK        -0.1800 
     82 C          -0.1550  -27.2012  -48.3929 C.2       14 UNK         0.5000 
     83 O           0.1302  -28.3585  -48.7009 O.2       14 UNK        -0.5000 
     84 N          -0.4899  -26.2563  -49.2812 N.am      15 UNK        -0.5000 
     85 CA         -0.6757  -26.4561  -50.7198 C.3       15 UNK         0.1400 
     86 CB         -0.4774  -25.1086  -51.4358 C.3       15 UNK        -0.1800 
     87 C          -2.0402  -27.0840  -51.0871 C.2       15 UNK         0.5000 
     88 O          -2.3502  -27.1808  -52.2747 O.2       15 UNK        -0.5000 
     89 N          -2.8419  -27.4797  -50.0853 N.am      16 UNK        -0.5000 
     90 CA         -4.1547  -28.1274  -50.1911 C.3       16 UNK         0.1400 
     91 CB         -4.0175  -29.5334  -50.8119 C.3       16 UNK        -0.1800 
     92 C          -5.2172  -27.2595  -50.8980 C.2       16 UNK         0.5000 
     93 O          -6.1156  -27.7957  -51.5490 O.2       16 UNK        -0.5000 
     94 N          -5.0887  -25.9315  -50.7578 N.am      17 UNK        -0.5000 
     95 CA         -5.9277  -24.8857  -51.3481 C.3       17 UNK         0.1400 
     96 CB         -7.3586  -24.9330  -50.7740 C.3       17 UNK        -0.1800 
     97 C          -5.8991  -24.8600  -52.8913 C.2       17 UNK         0.5000 
     98 O          -6.8448  -24.3692  -53.5095 O.2       17 UNK        -0.5000 
     99 N          -4.8024  -25.3414  -53.4987 N.am      18 UNK        -0.5000 
    100 CA        -4.5863  -25.3556  -54.9516 C.3       18 UNK         0.1400 
    101 CB        -3.3031  -26.1392  -55.2633 C.3       18 UNK        -0.1800 
    102 C         -4.5271  -23.9498  -55.5855 C.2       18 UNK         0.5000 
    103 O         -4.8472  -23.7973  -56.7645 O.2       18 UNK        -0.5000 
    104 N         -4.1507  -22.9480  -54.7802 N.am      19 UNK        -0.5000 
    105 CA        -4.1461  -21.5274  -55.1313 C.3       19 UNK         0.1400 
    106 CB        -3.0893  -20.8257  -54.2656 C.3       19 UNK        -0.1800 
    107 C         -5.5251  -20.8497  -54.9659 C.2       19 UNK         0.5000 
    108 O         -5.6306  -19.6457  -55.2096 O.2       19 UNK        -0.5000 
    109 N         -6.5473  -21.6089  -54.5382 N.am      20 UNK        -0.5000 
    110 CA        -7.9135  -21.1759  -54.2384 C.3       20 UNK         0.1400 
    111 CB        -8.6507  -20.7532  -55.5298 C.3       20 UNK        -0.1800 
    112 C         -7.9202  -20.1165  -53.1185 C.2       20 UNK         0.5000 
    113 O         -7.5228  -20.4309  -51.9953 O.2       20 UNK        -0.5000 
    114 N         -8.3438  -18.8868  -53.4384 N.am      21 UNK        -0.5000 
    115 CA        -8.3378  -17.7376  -52.5313 C.3       21 UNK         0.1400 
    116 CB        -9.1957  -16.6192  -53.1431 C.3       21 UNK        -0.1800 
    117 C         -6.9230  -17.2150  -52.2062 C.2       21 UNK         0.5000 
    118 O         -6.7524  -16.5531  -51.1819 O.2       21 UNK        -0.5000 
    119 N         -5.9419  -17.5167  -53.0702 N.am      22 UNK        -0.5000 
    120 CA        -4.5266  -17.1316  -52.9374 C.3       22 UNK         0.1400 
    121 C         -4.2485  -15.5999  -53.0677 C.2       22 UNK         0.5000 
    122 N         -5.1363  -14.8239  -53.6782 N.am      22 UNK        -0.7600 
    123 O         -3.2130  -15.1026  -52.6344 O.2       22 UNK        -0.5000 
    124 C124       -3.8599  -17.7891  -51.6942 C.3       23 UNK        -0.0398 
    125 S125       -2.1251  -18.2588  -51.9995 S.3       23 UNK        -0.2404 
    126 C126       -1.3008  -17.5483  -50.5442 C.3       23 UNK        -0.0205 
    127 H127        0.0355  -11.5648  -46.9418 H         1 UNK         0.0600 
    128 H128        0.7791  -11.3927  -45.3501 H         1 UNK         0.0600 
    129 H129        0.1667  -12.9643  -45.8759 H         1 UNK         0.0600 
    130 H130        1.7627  -14.3577  -46.5093 H         1 UNK         0.3000 
    131 H131        3.6769  -13.6367  -48.4854 H         1 UNK         0.0600 
    132 H132        3.7146  -16.2607  -46.9196 H         1 UNK         0.0800 
    133 H133        2.5042  -15.9346  -48.1193 H         1 UNK         0.0800 
    134 H134        4.1987  -16.3326  -51.4939 H         1 UNK         0.0800 
    135 H135        3.1380  -15.1877  -50.7101 H         1 UNK         0.0800 
    136 H136        0.8652  -15.8790  -50.6304 H         1 UNK         0.1150 
    137 H137       -0.1985  -20.0197  -50.3567 H         1 UNK         0.1150 
    138 H138        3.9304  -18.8755  -50.4848 H         1 UNK         0.1150 
    139 H139        1.4584  -21.7225  -50.4184 H         1 UNK         0.0800 
    140 H140        3.0061  -21.3122  -51.1081 H         1 UNK         0.0800 
    141 H141        1.3201  -20.0100  -47.8705 H         1 UNK         0.0800 
    142 H142        2.5047  -20.4053  -46.6737 H         1 UNK         0.0800 
    143 H143        1.6598  -22.7969  -46.6588 H         1 UNK         0.0600 
    144 H144        0.4268  -20.5444  -45.4418 H         1 UNK         0.3000 
    145 H145       -1.7120  -22.4150  -43.2511 H         1 UNK         0.0600 
    146 H146       -0.4588  -21.0734  -41.6019 H         1 UNK         0.0600 
    147 H147        0.5773  -22.3466  -42.2274 H         1 UNK         0.0600 
    148 H148        0.7818  -20.6924  -42.7946 H         1 UNK         0.0600 
    149 H149       -1.3360  -19.6202  -43.5212 H         1 UNK         0.3000 
    150 H150       -3.8668  -19.0803  -46.0413 H         1 UNK         0.0600 
    151 H151       -4.9638  -19.1468  -43.8132 H         1 UNK         0.0600 
    152 H152       -4.5560  -17.4941  -44.2520 H         1 UNK         0.0600 
    153 H153       -3.5717  -18.3646  -43.0775 H         1 UNK         0.0600 
    154 H154       -2.1472  -17.2044  -44.8402 H         1 UNK         0.3000 
    155 H155        0.5595  -17.4365  -47.1939 H         1 UNK         0.0600 
    156 H156       -1.4848  -15.2583  -46.5057 H         1 UNK         0.0600 
    157 H157       -1.3014  -15.9718  -48.0974 H         1 UNK         0.0600 
    158 H158        0.0210  -15.0630  -47.4007 H         1 UNK         0.0600 
    159 H159        0.0958  -15.8998  -44.7852 H         1 UNK         0.3000 
    160 H160        1.7680  -18.1139  -42.5512 H         1 UNK         0.0600 
    161 H161        2.5319  -15.3778  -43.7038 H         1 UNK         0.0600 
    162 H162        3.5711  -16.7965  -43.6453 H         1 UNK         0.0600 
    163 H163        3.0565  -16.0272  -42.1515 H         1 UNK         0.0600 
    164 H164        0.4907  -15.5379  -42.2928 H         1 UNK         0.3000 
    165 H165       -2.7471  -16.7834  -41.4717 H         1 UNK         0.0600 
    166 H166       -2.3411  -15.6602  -39.3018 H         1 UNK         0.0600 
    167 H167       -1.4807  -17.1902  -39.3514 H         1 UNK         0.0600 
    168 H168       -0.5990  -15.6843  -39.5792 H         1 UNK         0.0600 
    169 H169       -1.6908  -14.1822  -41.2366 H         1 UNK         0.3000 
    170 H170       -1.7289  -13.1085  -44.5696 H         1 UNK         0.0600 
    171 H171       -4.1807  -13.0728  -44.1098 H         1 UNK         0.0600 
    172 H172       -3.8777  -12.5233  -42.4659 H         1 UNK         0.0600 
    173 H173       -3.4589  -11.4955  -43.8374 H         1 UNK         0.0600 
    174 H174       -1.5779  -11.6396  -42.1536 H         1 UNK         0.3000 
    175 H175        0.3744  -10.7650  -41.4645 H         1 UNK         0.0600 
    176 H176        1.5273  -13.3783  -40.3298 H         1 UNK         0.0600 
    177 H177        1.5290  -11.8166  -39.5111 H         1 UNK         0.0600 
    178 H178        0.0100  -12.6301  -39.8461 H         1 UNK         0.0600 
    179 H179        2.9989  -12.0166  -41.7176 H         1 UNK         0.3000 
    180 H180        4.1368   -9.7471  -44.2454 H         1 UNK         0.0600 
    181 H181        4.9664  -10.4338  -41.3599 H         1 UNK         0.0600 
    182 H182        4.4502   -8.8307  -41.8681 H         1 UNK         0.0600 
    183 H183        5.9081   -9.5241  -42.5396 H         1 UNK         0.0600 
    184 H184        3.7727  -12.4203  -43.7284 H         1 UNK         0.3000 
    185 H185        6.8517  -13.7347  -44.9432 H         1 UNK         0.0600 
    186 H186        5.9575  -15.5331  -43.4688 H         1 UNK         0.0600 
    187 H187        6.6453  -14.2193  -42.5283 H         1 UNK         0.0600 
    188 H188        4.9004  -14.3726  -42.6652 H         1 UNK         0.0600 
    189 H189        3.9904  -14.4091  -45.0007 H         1 UNK         0.3000 
    190 H190       -1.2478  -20.8723  -47.6012 H         1 UNK         0.3000 
    191 H191       -1.8721  -22.3315  -49.9481 H         1 UNK         0.0600 
    192 H192       -3.7067  -20.7862  -48.0460 H         1 UNK         0.0600 
    193 H193       -4.1357  -21.3131  -49.6703 H         1 UNK         0.0600 
    194 H194       -2.8588  -20.1292  -49.4434 H         1 UNK         0.0600 
    195 H195       -2.8379  -22.8854  -46.5317 H         1 UNK         0.3000 
    196 H196       -4.4947  -25.1482  -46.9998 H         1 UNK         0.0600 
    197 H197       -4.1836  -25.5568  -44.5595 H         1 UNK         0.0600 
    198 H198       -4.5400  -23.8670  -44.8838 H         1 UNK         0.0600 
    199 H199       -2.8922  -24.3639  -44.5089 H         1 UNK         0.0600 
    200 H200       -0.9719  -24.9149  -46.2801 H         1 UNK         0.3000 
    201 H201       -0.4142  -27.6996  -46.3266 H         1 UNK         0.0600 
    202 H202        1.1344  -26.0071  -45.3768 H         1 UNK         0.0600 
    203 H203        1.4109  -25.3252  -46.9778 H         1 UNK         0.0600 
    204 H204        1.9460  -26.9593  -46.6107 H         1 UNK         0.0600 
    205 H205       -0.6320  -25.3108  -48.9402 H         1 UNK         0.3000 
    206 H206        0.0958  -27.1415  -51.0759 H         1 UNK         0.0600 
    207 H207        0.4902  -24.6699  -51.1912 H         1 UNK         0.0600 
    208 H208       -0.5132  -25.2281  -52.5193 H         1 UNK         0.0600 
    209 H209       -1.2487  -24.3900  -51.1604 H         1 UNK         0.0600 
    210 H210       -2.5293  -27.3146  -49.1360 H         1 UNK         0.3000 
    211 H211       -4.5101  -28.2561  -49.1681 H         1 UNK         0.0600 
    212 H212       -3.7312  -29.4861  -51.8630 H         1 UNK         0.0600 
    213 H213       -4.9588  -30.0811  -50.7541 H         1 UNK         0.0600 
    214 H214       -3.2679  -30.1246  -50.2859 H         1 UNK         0.0600 
    215 H215       -4.3079  -25.5804  -50.2061 H         1 UNK         0.3000 
    216 H216       -5.4855  -23.9400  -51.0320 H         1 UNK         0.0600 
    217 H217       -7.9340  -24.0603  -51.0856 H         1 UNK         0.0600 
    218 H218       -7.3455  -24.9375  -49.6841 H         1 UNK         0.0600 
    219 H219       -7.9012  -25.8176  -51.1081 H         1 UNK         0.0600 
    220 H220       -4.0772  -25.7633  -52.9315 H         1 UNK         0.3000 
    221 H221       -5.4272  -25.8825  -55.4071 H         1 UNK         0.0600 
    222 H222       -2.4297  -25.6826  -54.7957 H         1 UNK         0.0600 
    223 H223       -3.3739  -27.1673  -54.9075 H         1 UNK         0.0600 
    224 H224       -3.1185  -26.1803  -56.3376 H         1 UNK         0.0600 
    225 H225       -3.9004  -23.1763  -53.8296 H         1 UNK         0.3000 
    226 H226       -3.8549  -21.4193  -56.1781 H         1 UNK         0.0600 
    227 H227       -2.1077  -21.2838  -54.3872 H         1 UNK         0.0600 
    228 H228       -2.9898  -19.7764  -54.5452 H         1 UNK         0.0600 
    229 H229       -3.3486  -20.8620  -53.2067 H         1 UNK         0.0600 
    230 H230       -6.3672  -22.5853  -54.3324 H         1 UNK         0.3000 
    231 H231       -8.4324  -22.0467  -53.8352 H         1 UNK         0.0600 
    232 H232       -8.6655  -21.5715  -56.2499 H         1 UNK         0.0600 
    233 H233       -8.1834  -19.8976  -56.0181 H         1 UNK         0.0600 
    234 H234       -9.6895  -20.4935  -55.3222 H         1 UNK         0.0600 
    235 H235       -8.6375  -18.7125  -54.3886 H         1 UNK         0.3000 
    236 H236       -8.7974  -18.0440  -51.5893 H         1 UNK         0.0600 
    237 H237       -9.2371  -15.7520  -52.4825 H         1 UNK         0.0600 
    238 H238       -8.7967  -16.2834  -54.1010 H         1 UNK         0.0600 
    239 H239      -10.2214  -16.9518  -53.3039 H         1 UNK         0.0600 
    240 H240       -6.1590  -18.0907  -53.8776 H         1 UNK         0.3000 
    241 H241       -4.0624  -17.5625  -53.8249 H         1 UNK         0.0600 
    242 H242       -4.9529  -13.8368  -53.7676 H         1 UNK         0.3800 
    243 H243       -5.9880  -15.2122  -54.0500 H         1 UNK         0.3800 
    244 H244       -3.9414  -17.1436  -50.8181 H         1 UNK         0.0800 
    245 H245       -4.3805  -18.7108  -51.4295 H         1 UNK         0.0800 
    246 H246       -1.7802  -17.9202  -49.6387 H         1 UNK         0.0800 
    247 H247       -1.4360  -16.4656  -50.5544 H         1 UNK         0.0800 
@<TRIPOS>BOND
     1    1    2 1    
     2    1  127 1    
     3    1  128 1    
     4    1  129 1    
     5    2    3 2    
     6    2    4 am   BACKBONE|DICT|INTERRES
     7    4    5 1    
     8    4  130 1    
     9    5    6 1    
    10    5   65 1    
    11    5  131 1    
    12    6    7 1    
    13    6  132 1    
    14    6  133 1    
    15    7    8 1    
    16    8    9 1    
    17    8  134 1    
    18    8  135 1    
    19    9   10 ar   
    20    9   14 ar   
    21   10   11 ar   
    22   10  136 1    
    23   11   12 ar   
    24   11  126 1    
    25   12   13 ar   
    26   12  137 1    
    27   13   14 ar   
    28   13   15 1    
    29   14  138 1    
    30   15   16 1    
    31   15  139 1    
    32   15  140 1    
    33   16   17 1    
    34   17   18 1    
    35   17  141 1    
    36   17  142 1    
    37   18   19 1    
    38   18   67 1    
    39   18  143 1    
    40   19   20 am   BACKBONE|DICT|INTERRES
    41   19  144 1    
    42   20   21 2    
    43   20   22 1    
    44   22   23 1    
    45   22   24 1    
    46   22  145 1    
    47   23  146 1    
    48   23  147 1    
    49   23  148 1    
    50   24   25 am   BACKBONE|DICT|INTERRES
    51   24  149 1    
    52   25   26 2    
    53   25   27 1    
    54   27   28 1    
    55   27   29 1    
    56   27  150 1    
    57   28  151 1    
    58   28  152 1    
    59   28  153 1    
    60   29   30 am   BACKBONE|DICT|INTERRES
    61   29  154 1    
    62   30   31 2    
    63   30   32 1    
    64   32   33 1    
    65   32   34 1    
    66   32  155 1    
    67   33  156 1    
    68   33  157 1    
    69   33  158 1    
    70   34   35 am   BACKBONE|DICT|INTERRES
    71   34  159 1    
    72   35   36 2    
    73   35   37 1    
    74   37   38 1    
    75   37   39 1    
    76   37  160 1    
    77   38  161 1    
    78   38  162 1    
    79   38  163 1    
    80   39   40 am   BACKBONE|DICT|INTERRES
    81   39  164 1    
    82   40   41 2    
    83   40   42 1    
    84   42   43 1    
    85   42   44 1    
    86   42  165 1    
    87   43  166 1    
    88   43  167 1    
    89   43  168 1    
    90   44   45 am   BACKBONE|DICT|INTERRES
    91   44  169 1    
    92   45   46 2    
    93   45   47 1    
    94   47   48 1    
    95   47   49 1    
    96   47  170 1    
    97   48  171 1    
    98   48  172 1    
    99   48  173 1    
   100   49   50 am   BACKBONE|DICT|INTERRES
   101   49  174 1    
   102   50   51 2    
   103   50   52 1    
   104   52   53 1    
   105   52   54 1    
   106   52  175 1    
   107   53  176 1    
   108   53  177 1    
   109   53  178 1    
   110   54   55 am   BACKBONE|DICT|INTERRES
   111   54  179 1    
   112   55   56 2    
   113   55   57 1    
   114   57   58 1    
   115   57   59 1    
   116   57  180 1    
   117   58  181 1    
   118   58  182 1    
   119   58  183 1    
   120   59   60 am   BACKBONE|DICT|INTERRES
   121   59  184 1    
   122   60   61 2    
   123   60   62 1    
   124   62   63 1    
   125   62   64 1    
   126   62  185 1    
   127   63  186 1    
   128   63  187 1    
   129   63  188 1    
   130   64   65 am   BACKBONE|DICT|INTERRES
   131   64  189 1    
   132   65   66 2    
   133   67   68 2    
   134   67   69 am   BACKBONE|DICT|INTERRES
   135   69   70 1    
   136   69  190 1    
   137   70   71 1    
   138   70   72 1    
   139   70  191 1    
   140   71  192 1    
   141   71  193 1    
   142   71  194 1    
   143   72   73 2    
   144   72   74 am   BACKBONE|DICT|INTERRES
   145   74   75 1    
   146   74  195 1    
   147   75   76 1    
   148   75   77 1    
   149   75  196 1    
   150   76  197 1    
   151   76  198 1    
   152   76  199 1    
   153   77   78 2    
   154   77   79 am   BACKBONE|DICT|INTERRES
   155   79   80 1    
   156   79  200 1    
   157   80   81 1    
   158   80   82 1    
   159   80  201 1    
   160   81  202 1    
   161   81  203 1    
   162   81  204 1    
   163   82   83 2    
   164   82   84 am   BACKBONE|DICT|INTERRES
   165   84   85 1    
   166   84  205 1    
   167   85   86 1    
   168   85   87 1    
   169   85  206 1    
   170   86  207 1    
   171   86  208 1    
   172   86  209 1    
   173   87   88 2    
   174   87   89 am   BACKBONE|DICT|INTERRES
   175   89   90 1    
   176   89  210 1    
   177   90   91 1    
   178   90   92 1    
   179   90  211 1    
   180   91  212 1    
   181   91  213 1    
   182   91  214 1    
   183   92   93 2    
   184   92   94 am   BACKBONE|DICT|INTERRES
   185   94   95 1    
   186   94  215 1    
   187   95   96 1    
   188   95   97 1    
   189   95  216 1    
   190   96  217 1    
   191   96  218 1    
   192   96  219 1    
   193   97   98 2    
   194   97   99 am   BACKBONE|DICT|INTERRES
   195   99  100 1    
   196   99  220 1    
   197  100  101 1    
   198  100  102 1    
   199  100  221 1    
   200  101  222 1    
   201  101  223 1    
   202  101  224 1    
   203  102  103 2    
   204  102  104 am   BACKBONE|DICT|INTERRES
   205  104  105 1    
   206  104  225 1    
   207  105  106 1    
   208  105  107 1    
   209  105  226 1    
   210  106  227 1    
   211  106  228 1    
   212  106  229 1    
   213  107  108 2    
   214  107  109 am   BACKBONE|DICT|INTERRES
   215  109  110 1    
   216  109  230 1    
   217  110  111 1    
   218  110  112 1    
   219  110  231 1    
   220  111  232 1    
   221  111  233 1    
   222  111  234 1    
   223  112  113 2    
   224  112  114 am   BACKBONE|DICT|INTERRES
   225  114  115 1    
   226  114  235 1    
   227  115  116 1    
   228  115  117 1    
   229  115  236 1    
   230  116  237 1    
   231  116  238 1    
   232  116  239 1    
   233  117  118 2    
   234  117  119 am   BACKBONE|DICT|INTERRES
   235  119  120 1    
   236  119  240 1    
   237  120  121 1    
   238  120  124 1    
   239  120  241 1    
   240  121  122 am   BACKBONE|DICT|INTERRES
   241  121  123 2    
   242  122  242 1    
   243  122  243 1    
   244  124  125 1    
   245  124  244 1    
   246  124  245 1    
   247  125  126 1    
   248  126  246 1    
   249  126  247 1    
@<TRIPOS>SUBSTRUCTURE
     1 UNK         1 GROUP             0       ****    0 ROOT    
