@<TRIPOS>MOLECULE
3R540
247   249    1
SMALL
USER_CHARGES


@<TRIPOS>ATOM
      1 CA          3.7448  -11.4241  -52.3431 C.3       0 UNK        -0.1800 
      2 C           3.6397  -12.2504  -51.0690 C.2       0 UNK         0.5000 
      3 O           4.5835  -12.9594  -50.7201 O.2       0 UNK        -0.5000 
      4 N           2.4964  -12.1620  -50.3767 N.am      1 UNK        -0.5000 
      5 CA          2.2144  -12.8739  -49.1238 C.3       1 UNK         0.1400 
      6 C6          0.7044  -12.8417  -48.7752 C.3       23 UNK        -0.0398 
      7 S7         -0.2361  -14.1383  -49.6458 S.3       23 UNK        -0.2404 
      8 C8         -0.2910  -15.4049  -48.3386 C.3       23 UNK        -0.0205 
      9 C9         -1.0127  -16.6627  -48.7905 C.ar      23 UNK        -0.0193 
     10 C10        -2.3965  -16.7721  -48.6334 C.ar      23 UNK        -0.1150 
     11 C11        -3.0655  -17.9339  -49.0270 C.ar      23 UNK        -0.0193 
     12 C12        -2.3358  -18.9918  -49.5786 C.ar      23 UNK        -0.1150 
     13 C13        -0.9511  -18.8941  -49.7473 C.ar      23 UNK        -0.0193 
     14 C14        -0.2958  -17.7258  -49.3471 C.ar      23 UNK        -0.1150 
     15 C15        -0.1579  -20.0359  -50.3759 C.3       23 UNK        -0.0205 
     16 S16        -0.5307  -21.6627  -49.6423 S.3       23 UNK        -0.2404 
     17 C17        -0.1726  -21.3352  -47.8851 C.3       23 UNK        -0.0398 
     18 CA          0.4116  -22.5535  -47.1356 C.3       11 UNK         0.1400 
     19 N           1.0997  -22.1414  -45.9071 N.am      11 UNK        -0.5000 
     20 C           1.8078  -22.9405  -45.0965 C.2       10 UNK         0.5000 
     21 O           1.9715  -24.1436  -45.2967 O.2       10 UNK        -0.5000 
     22 CA          2.3891  -22.2934  -43.8250 C.3       10 UNK         0.1400 
     23 CB          3.6668  -21.5003  -44.1385 C.3       10 UNK        -0.1800 
     24 N           1.4162  -21.4221  -43.1651 N.am      10 UNK        -0.5000 
     25 C           0.3173  -21.8642  -42.5377 C.2       9 UNK         0.5000 
     26 O           0.0725  -23.0562  -42.3538 O.2       9 UNK        -0.5000 
     27 CA         -0.7001  -20.8048  -42.0729 C.3       9 UNK         0.1400 
     28 CB         -0.3434  -20.2761  -40.6760 C.3       9 UNK        -0.1800 
     29 N          -0.8287  -19.6882  -43.0128 N.am      9 UNK        -0.5000 
     30 C          -1.3158  -19.8056  -44.2578 C.2       8 UNK         0.5000 
     31 O          -1.7484  -20.8597  -44.7219 O.2       8 UNK        -0.5000 
     32 CA         -1.2715  -18.5538  -45.1528 C.3       8 UNK         0.1400 
     33 CB         -2.5052  -17.6731  -44.9111 C.3       8 UNK        -0.1800 
     34 N          -0.0493  -17.7700  -44.9647 N.am      8 UNK        -0.5000 
     35 C           1.1789  -18.2091  -45.2757 C.2       7 UNK         0.5000 
     36 O           1.3966  -19.3075  -45.7832 O.2       7 UNK        -0.5000 
     37 CA          2.3711  -17.3107  -44.9046 C.3       7 UNK         0.1400 
     38 CB          2.5595  -16.1805  -45.9215 C.3       7 UNK        -0.1800 
     39 N           2.2575  -16.7480  -43.5617 N.am      7 UNK        -0.5000 
     40 C           2.2598  -17.4740  -42.4360 C.2       6 UNK         0.5000 
     41 O           2.3684  -18.7001  -42.4119 O.2       6 UNK        -0.5000 
     42 CA          2.0748  -16.7002  -41.1213 C.3       6 UNK         0.1400 
     43 CB          3.4020  -16.0799  -40.6584 C.3       6 UNK        -0.1800 
     44 N           1.0636  -15.6523  -41.2498 N.am      6 UNK        -0.5000 
     45 C          -0.2539  -15.8817  -41.3319 C.2       5 UNK         0.5000 
     46 O          -0.7595  -17.0031  -41.2821 O.2       5 UNK        -0.5000 
     47 CA         -1.1512  -14.6485  -41.5452 C.3       5 UNK         0.1400 
     48 CB         -1.3815  -13.9046  -40.2211 C.3       5 UNK        -0.1800 
     49 N          -0.6077  -13.7203  -42.5390 N.am      5 UNK        -0.5000 
     50 C          -0.4575  -14.0206  -43.8355 C.2       4 UNK         0.5000 
     51 O          -0.7687  -15.1025  -44.3278 O.2       4 UNK        -0.5000 
     52 CA          0.1788  -12.9568  -44.7403 C.3       4 UNK         0.1400 
     53 CB         -0.8907  -12.0114  -45.3059 C.3       4 UNK        -0.1800 
     54 N           1.2522  -12.1701  -44.1352 N.am      4 UNK        -0.5000 
     55 C           2.3671  -12.6587  -43.5770 C.2       3 UNK         0.5000 
     56 O           2.5423  -13.8512  -43.3177 O.2       3 UNK        -0.5000 
     57 CA          3.4934  -11.6330  -43.3369 C.3       3 UNK         0.1400 
     58 CB          4.5869  -12.1735  -42.3985 C.3       3 UNK        -0.1800 
     59 N           4.1067  -11.2578  -44.6127 N.am      3 UNK        -0.5000 
     60 C           3.5584  -10.4575  -45.5381 C.2       2 UNK         0.5000 
     61 O           2.5220   -9.8160  -45.3524 O.2       2 UNK        -0.5000 
     62 CA          4.2436  -10.3893  -46.9209 C.3       2 UNK         0.1400 
     63 CB          5.7028  -10.8980  -46.9268 C.3       2 UNK        -0.1800 
     64 N           3.4548  -11.0816  -47.9495 N.am      2 UNK        -0.5000 
     65 C           3.0605  -12.3665  -47.9346 C.2       1 UNK         0.5000 
     66 O           3.3364  -13.1566  -47.0329 O.2       1 UNK        -0.5000 
     67 C          -0.6699  -23.6273  -46.8897 C.2       11 UNK         0.5000 
     68 O          -0.8569  -24.4988  -47.7373 O.2       11 UNK        -0.5000 
     69 N          -1.3295  -23.5848  -45.7228 N.am      12 UNK        -0.5000 
     70 CA         -2.3501  -24.5432  -45.2899 C.3       12 UNK         0.1400 
     71 CB         -2.9501  -24.0822  -43.9542 C.3       12 UNK        -0.1800 
     72 C          -1.8599  -26.0038  -45.1945 C.2       12 UNK         0.5000 
     73 O          -2.6847  -26.9146  -45.2732 O.2       12 UNK        -0.5000 
     74 N          -0.5384  -26.2193  -45.0924 N.am      13 UNK        -0.5000 
     75 CA          0.0964  -27.5373  -45.2071 C.3       13 UNK         0.1400 
     76 CB          1.5657  -27.4339  -44.7733 C.3       13 UNK        -0.1800 
     77 C          -0.0074  -28.1372  -46.6272 C.2       13 UNK         0.5000 
     78 O           0.0539  -29.3579  -46.7740 O.2       13 UNK        -0.5000 
     79 N          -0.1996  -27.2759  -47.6351 N.am      14 UNK        -0.5000 
     80 CA         -0.5011  -27.6125  -49.0252 C.3       14 UNK         0.1400 
     81 CB          0.5114  -26.8975  -49.9378 C.3       14 UNK        -0.1800 
     82 C          -1.9603  -27.2289  -49.3548 C.2       14 UNK         0.5000 
     83 O          -2.2594  -26.8370  -50.4834 O.2       14 UNK        -0.5000 
     84 N          -2.8404  -27.3207  -48.3467 N.am      15 UNK        -0.5000 
     85 CA         -4.2860  -27.0677  -48.3340 C.3       15 UNK         0.1400 
     86 CB         -5.0179  -27.9476  -49.3667 C.3       15 UNK        -0.1800 
     87 C          -4.7138  -25.5926  -48.4691 C.2       15 UNK         0.5000 
     88 O          -5.7886  -25.2563  -47.9716 O.2       15 UNK        -0.5000 
     89 N          -3.8982  -24.7499  -49.1231 N.am      16 UNK        -0.5000 
     90 CA         -4.1772  -23.3546  -49.4942 C.3       16 UNK         0.1400 
     91 CB         -4.2072  -22.4390  -48.2524 C.3       16 UNK        -0.1800 
     92 C          -5.4581  -23.2591  -50.3509 C.2       16 UNK         0.5000 
     93 O          -6.4502  -22.6564  -49.9361 O.2       16 UNK        -0.5000 
     94 N          -5.4218  -23.9427  -51.5032 N.am      17 UNK        -0.5000 
     95 CA         -6.5386  -24.2059  -52.4142 C.3       17 UNK         0.1400 
     96 CB         -6.1037  -25.3101  -53.3950 C.3       17 UNK        -0.1800 
     97 C          -7.0928  -22.9589  -53.1411 C.2       17 UNK         0.5000 
     98 O          -7.0133  -22.8693  -54.3681 O.2       17 UNK        -0.5000 
     99 N          -7.6723  -22.0349  -52.3653 N.am      18 UNK        -0.5000 
    100 CA        -8.3580  -20.8101  -52.7855 C.3       18 UNK         0.1400 
    101 CB        -9.6814  -21.1594  -53.5027 C.3       18 UNK        -0.1800 
    102 C         -7.4439  -19.8658  -53.5938 C.2       18 UNK         0.5000 
    103 O         -6.2373  -19.8340  -53.3501 O.2       18 UNK        -0.5000 
    104 N         -8.0179  -19.1090  -54.5393 N.am      19 UNK        -0.5000 
    105 CA        -7.3381  -18.0983  -55.3575 C.3       19 UNK         0.1400 
    106 CB        -8.3699  -17.4197  -56.2706 C.3       19 UNK        -0.1800 
    107 C         -6.1494  -18.6244  -56.1873 C.2       19 UNK         0.5000 
    108 O         -5.2399  -17.8510  -56.4877 O.2       19 UNK        -0.5000 
    109 N         -6.1475  -19.9265  -56.5067 N.am      20 UNK        -0.5000 
    110 CA        -5.0365  -20.6138  -57.1685 C.3       20 UNK         0.1400 
    111 CB        -5.4916  -22.0172  -57.5959 C.3       20 UNK        -0.1800 
    112 C         -3.7657  -20.6947  -56.2970 C.2       20 UNK         0.5000 
    113 O         -2.6657  -20.7625  -56.8470 O.2       20 UNK        -0.5000 
    114 N         -3.9350  -20.6693  -54.9684 N.am      21 UNK        -0.5000 
    115 CA        -2.8533  -20.6046  -53.9909 C.3       21 UNK         0.1400 
    116 CB        -3.1672  -21.5620  -52.8295 C.3       21 UNK        -0.1800 
    117 C         -2.6763  -19.1666  -53.4771 C.2       21 UNK         0.5000 
    118 O         -1.5535  -18.6623  -53.4598 O.2       21 UNK        -0.5000 
    119 N         -3.7849  -18.5430  -53.0605 N.am      22 UNK        -0.5000 
    120 CA        -3.8135  -17.2414  -52.3761 C.3       22 UNK         0.1400 
    121 C         -3.6274  -16.0038  -53.2999 C.2       22 UNK         0.5000 
    122 N         -3.7287  -16.1222  -54.6178 N.am      22 UNK        -0.7600 
    123 O         -3.3828  -14.9055  -52.8091 O.2       22 UNK        -0.5000 
    124 C124       -5.0782  -17.0764  -51.4871 C.3       23 UNK        -0.0398 
    125 S125       -5.4295  -18.5031  -50.3953 S.3       23 UNK        -0.2404 
    126 C126       -4.5743  -18.0417  -48.8542 C.3       23 UNK        -0.0205 
    127 H127        4.5812  -10.7289  -52.2713 H         1 UNK         0.0600 
    128 H128        2.8384  -10.8475  -52.5291 H         1 UNK         0.0600 
    129 H129        3.9144  -12.0760  -53.2000 H         1 UNK         0.0600 
    130 H130        1.7512  -11.5783  -50.7295 H         1 UNK         0.3000 
    131 H131        2.5099  -13.9161  -49.2667 H         1 UNK         0.0600 
    132 H132        0.2704  -11.8694  -49.0133 H         1 UNK         0.0800 
    133 H133        0.5354  -12.9735  -47.7090 H         1 UNK         0.0800 
    134 H134        0.7293  -15.6536  -48.0506 H         1 UNK         0.0800 
    135 H135       -0.7766  -15.0013  -47.4482 H         1 UNK         0.0800 
    136 H136       -2.9503  -15.9495  -48.2034 H         1 UNK         0.1150 
    137 H137       -2.8507  -19.8886  -49.8923 H         1 UNK         0.1150 
    138 H138        0.7744  -17.6394  -49.4717 H         1 UNK         0.1150 
    139 H139       -0.3767  -20.0717  -51.4429 H         1 UNK         0.0800 
    140 H140        0.9144  -19.8540  -50.2891 H         1 UNK         0.0800 
    141 H141       -1.0771  -20.9651  -47.4005 H         1 UNK         0.0800 
    142 H142        0.5445  -20.5155  -47.8528 H         1 UNK         0.0800 
    143 H143        1.1743  -23.0083  -47.7711 H         1 UNK         0.0600 
    144 H144        1.0666  -21.1479  -45.6911 H         1 UNK         0.3000 
    145 H145        2.6534  -23.0958  -43.1330 H         1 UNK         0.0600 
    146 H146        4.4187  -22.1406  -44.6011 H         1 UNK         0.0600 
    147 H147        3.4755  -20.6729  -44.8216 H         1 UNK         0.0600 
    148 H148        4.1048  -21.0863  -43.2301 H         1 UNK         0.0600 
    149 H149        1.5831  -20.4226  -43.2149 H         1 UNK         0.3000 
    150 H150       -1.6738  -21.2951  -42.0067 H         1 UNK         0.0600 
    151 H151       -0.2613  -21.0936  -39.9588 H         1 UNK         0.0600 
    152 H152       -1.1099  -19.5956  -40.3054 H         1 UNK         0.0600 
    153 H153        0.6068  -19.7427  -40.6750 H         1 UNK         0.0600 
    154 H154       -0.5143  -18.7816  -42.6900 H         1 UNK         0.3000 
    155 H155       -1.2970  -18.8838  -46.1932 H         1 UNK         0.0600 
    156 H156       -2.5254  -17.2800  -43.8937 H         1 UNK         0.0600 
    157 H157       -2.5242  -16.8271  -45.5980 H         1 UNK         0.0600 
    158 H158       -3.4251  -18.2378  -45.0671 H         1 UNK         0.0600 
    159 H159       -0.1680  -16.8352  -44.5809 H         1 UNK         0.3000 
    160 H160        3.2688  -17.9321  -44.9269 H         1 UNK         0.0600 
    161 H161        1.7112  -15.4985  -45.9203 H         1 UNK         0.0600 
    162 H162        2.6728  -16.5757  -46.9315 H         1 UNK         0.0600 
    163 H163        3.4530  -15.5972  -45.6982 H         1 UNK         0.0600 
    164 H164        2.2043  -15.7353  -43.4886 H         1 UNK         0.3000 
    165 H165        1.7459  -17.4081  -40.3575 H         1 UNK         0.0600 
    166 H166        3.2875  -15.5754  -39.6990 H         1 UNK         0.0600 
    167 H167        4.1669  -16.8472  -40.5331 H         1 UNK         0.0600 
    168 H168        3.7823  -15.3522  -41.3763 H         1 UNK         0.0600 
    169 H169        1.4023  -14.7101  -41.3850 H         1 UNK         0.3000 
    170 H170       -2.1183  -15.0027  -41.9088 H         1 UNK         0.0600 
    171 H171       -1.7988  -14.5725  -39.4664 H         1 UNK         0.0600 
    172 H172       -0.4535  -13.4950  -39.8203 H         1 UNK         0.0600 
    173 H173       -2.0844  -13.0812  -40.3490 H         1 UNK         0.0600 
    174 H174       -0.3136  -12.8109  -42.2142 H         1 UNK         0.3000 
    175 H175        0.6314  -13.4950  -45.5715 H         1 UNK         0.0600 
    176 H176       -1.3607  -11.4212  -44.5184 H         1 UNK         0.0600 
    177 H177       -0.4639  -11.3198  -46.0326 H         1 UNK         0.0600 
    178 H178       -1.6781  -12.5704  -45.8138 H         1 UNK         0.0600 
    179 H179        1.2524  -11.1807  -44.3552 H         1 UNK         0.3000 
    180 H180        3.0552  -10.7473  -42.8722 H         1 UNK         0.0600 
    181 H181        5.0870  -13.0468  -42.8195 H         1 UNK         0.0600 
    182 H182        4.1646  -12.4691  -41.4372 H         1 UNK         0.0600 
    183 H183        5.3457  -11.4162  -42.2010 H         1 UNK         0.0600 
    184 H184        4.9221  -11.7893  -44.8810 H         1 UNK         0.3000 
    185 H185        4.2631   -9.3345  -47.1991 H         1 UNK         0.0600 
    186 H186        6.3069  -10.3683  -46.1890 H         1 UNK         0.0600 
    187 H187        5.7739  -11.9648  -46.7127 H         1 UNK         0.0600 
    188 H188        6.1659  -10.7301  -47.8992 H         1 UNK         0.0600 
    189 H189        3.1602  -10.5111  -48.7292 H         1 UNK         0.3000 
    190 H190       -1.1709  -22.7892  -45.1137 H         1 UNK         0.3000 
    191 H191       -3.1442  -24.5224  -46.0384 H         1 UNK         0.0600 
    192 H192       -2.2091  -24.0938  -43.1556 H         1 UNK         0.0600 
    193 H193       -3.7692  -24.7345  -43.6492 H         1 UNK         0.0600 
    194 H194       -3.3512  -23.0712  -44.0278 H         1 UNK         0.0600 
    195 H195        0.0837  -25.4214  -45.0453 H         1 UNK         0.3000 
    196 H196       -0.4137  -28.2178  -44.5222 H         1 UNK         0.0600 
    197 H197        2.0358  -28.4179  -44.7544 H         1 UNK         0.0600 
    198 H198        1.6558  -27.0103  -43.7728 H         1 UNK         0.0600 
    199 H199        2.1432  -26.8102  -45.4564 H         1 UNK         0.0600 
    200 H200       -0.2816  -26.2848  -47.4222 H         1 UNK         0.3000 
    201 H201       -0.4086  -28.6878  -49.1879 H         1 UNK         0.0600 
    202 H202        1.5347  -27.1684  -49.6777 H         1 UNK         0.0600 
    203 H203        0.4229  -25.8128  -49.8631 H         1 UNK         0.0600 
    204 H204        0.3602  -27.1700  -50.9829 H         1 UNK         0.0600 
    205 H205       -2.4674  -27.5865  -47.4443 H         1 UNK         0.3000 
    206 H206       -4.6194  -27.3869  -47.3453 H         1 UNK         0.0600 
    207 H207       -6.0992  -27.8586  -49.2549 H         1 UNK         0.0600 
    208 H208       -4.7760  -27.6630  -50.3910 H         1 UNK         0.0600 
    209 H209       -4.7645  -29.0001  -49.2401 H         1 UNK         0.0600 
    210 H210       -3.0499  -25.1487  -49.5085 H         1 UNK         0.3000 
    211 H211       -3.3494  -23.0248  -50.1232 H         1 UNK         0.0600 
    212 H212       -4.9982  -22.7166  -47.5557 H         1 UNK         0.0600 
    213 H213       -4.3764  -21.4010  -48.5409 H         1 UNK         0.0600 
    214 H214       -3.2610  -22.4724  -47.7151 H         1 UNK         0.0600 
    215 H215       -4.5578  -24.4072  -51.7410 H         1 UNK         0.3000 
    216 H216       -7.3596  -24.6078  -51.8171 H         1 UNK         0.0600 
    217 H217       -5.2597  -24.9925  -54.0088 H         1 UNK         0.0600 
    218 H218       -6.9179  -25.5793  -54.0692 H         1 UNK         0.0600 
    219 H219       -5.8116  -26.2172  -52.8652 H         1 UNK         0.0600 
    220 H220       -7.5577  -22.1552  -51.3617 H         1 UNK         0.3000 
    221 H221       -8.6055  -20.2748  -51.8680 H         1 UNK         0.0600 
    222 H222       -9.5073  -21.6143  -54.4787 H         1 UNK         0.0600 
    223 H223      -10.2709  -21.8613  -52.9125 H         1 UNK         0.0600 
    224 H224      -10.3022  -20.2753  -53.6509 H         1 UNK         0.0600 
    225 H225       -9.0113  -19.2074  -54.6897 H         1 UNK         0.3000 
    226 H226       -6.9397  -17.3448  -54.6749 H         1 UNK         0.0600 
    227 H227       -9.1622  -16.9473  -55.6896 H         1 UNK         0.0600 
    228 H228       -7.9046  -16.6399  -56.8754 H         1 UNK         0.0600 
    229 H229       -8.8322  -18.1332  -56.9538 H         1 UNK         0.0600 
    230 H230       -6.9174  -20.5016  -56.1958 H         1 UNK         0.3000 
    231 H231       -4.7817  -20.0506  -58.0687 H         1 UNK         0.0600 
    232 H232       -4.6987  -22.5363  -58.1359 H         1 UNK         0.0600 
    233 H233       -6.3568  -21.9686  -58.2572 H         1 UNK         0.0600 
    234 H234       -5.7586  -22.6328  -56.7365 H         1 UNK         0.0600 
    235 H235       -4.8751  -20.5736  -54.5983 H         1 UNK         0.3000 
    236 H236       -1.9108  -20.9227  -54.4413 H         1 UNK         0.0600 
    237 H237       -4.0945  -21.2931  -52.3221 H         1 UNK         0.0600 
    238 H238       -3.2648  -22.5883  -53.1830 H         1 UNK         0.0600 
    239 H239       -2.3704  -21.5471  -52.0863 H         1 UNK         0.0600 
    240 H240       -4.6755  -19.0352  -53.1043 H         1 UNK         0.3000 
    241 H241       -2.9505  -17.2197  -51.7098 H         1 UNK         0.0600 
    242 H242       -3.9839  -16.9980  -55.0562 H         1 UNK         0.3800 
    243 H243       -3.5987  -15.3058  -55.1933 H         1 UNK         0.3800 
    244 H244       -4.9979  -16.1771  -50.8740 H         1 UNK         0.0800 
    245 H245       -5.9567  -16.9338  -52.1185 H         1 UNK         0.0800 
    246 H246       -4.7844  -18.7976  -48.0965 H         1 UNK         0.0800 
    247 H247       -4.9947  -17.1064  -48.4818 H         1 UNK         0.0800 
@<TRIPOS>BOND
     1    1    2 1    
     2    1  127 1    
     3    1  128 1    
     4    1  129 1    
     5    2    3 2    
     6    2    4 am   BACKBONE|DICT|INTERRES
     7    4    5 1    
     8    4  130 1    
     9    5    6 1    
    10    5   65 1    
    11    5  131 1    
    12    6    7 1    
    13    6  132 1    
    14    6  133 1    
    15    7    8 1    
    16    8    9 1    
    17    8  134 1    
    18    8  135 1    
    19    9   10 ar   
    20    9   14 ar   
    21   10   11 ar   
    22   10  136 1    
    23   11   12 ar   
    24   11  126 1    
    25   12   13 ar   
    26   12  137 1    
    27   13   14 ar   
    28   13   15 1    
    29   14  138 1    
    30   15   16 1    
    31   15  139 1    
    32   15  140 1    
    33   16   17 1    
    34   17   18 1    
    35   17  141 1    
    36   17  142 1    
    37   18   19 1    
    38   18   67 1    
    39   18  143 1    
    40   19   20 am   BACKBONE|DICT|INTERRES
    41   19  144 1    
    42   20   21 2    
    43   20   22 1    
    44   22   23 1    
    45   22   24 1    
    46   22  145 1    
    47   23  146 1    
    48   23  147 1    
    49   23  148 1    
    50   24   25 am   BACKBONE|DICT|INTERRES
    51   24  149 1    
    52   25   26 2    
    53   25   27 1    
    54   27   28 1    
    55   27   29 1    
    56   27  150 1    
    57   28  151 1    
    58   28  152 1    
    59   28  153 1    
    60   29   30 am   BACKBONE|DICT|INTERRES
    61   29  154 1    
    62   30   31 2    
    63   30   32 1    
    64   32   33 1    
    65   32   34 1    
    66   32  155 1    
    67   33  156 1    
    68   33  157 1    
    69   33  158 1    
    70   34   35 am   BACKBONE|DICT|INTERRES
    71   34  159 1    
    72   35   36 2    
    73   35   37 1    
    74   37   38 1    
    75   37   39 1    
    76   37  160 1    
    77   38  161 1    
    78   38  162 1    
    79   38  163 1    
    80   39   40 am   BACKBONE|DICT|INTERRES
    81   39  164 1    
    82   40   41 2    
    83   40   42 1    
    84   42   43 1    
    85   42   44 1    
    86   42  165 1    
    87   43  166 1    
    88   43  167 1    
    89   43  168 1    
    90   44   45 am   BACKBONE|DICT|INTERRES
    91   44  169 1    
    92   45   46 2    
    93   45   47 1    
    94   47   48 1    
    95   47   49 1    
    96   47  170 1    
    97   48  171 1    
    98   48  172 1    
    99   48  173 1    
   100   49   50 am   BACKBONE|DICT|INTERRES
   101   49  174 1    
   102   50   51 2    
   103   50   52 1    
   104   52   53 1    
   105   52   54 1    
   106   52  175 1    
   107   53  176 1    
   108   53  177 1    
   109   53  178 1    
   110   54   55 am   BACKBONE|DICT|INTERRES
   111   54  179 1    
   112   55   56 2    
   113   55   57 1    
   114   57   58 1    
   115   57   59 1    
   116   57  180 1    
   117   58  181 1    
   118   58  182 1    
   119   58  183 1    
   120   59   60 am   BACKBONE|DICT|INTERRES
   121   59  184 1    
   122   60   61 2    
   123   60   62 1    
   124   62   63 1    
   125   62   64 1    
   126   62  185 1    
   127   63  186 1    
   128   63  187 1    
   129   63  188 1    
   130   64   65 am   BACKBONE|DICT|INTERRES
   131   64  189 1    
   132   65   66 2    
   133   67   68 2    
   134   67   69 am   BACKBONE|DICT|INTERRES
   135   69   70 1    
   136   69  190 1    
   137   70   71 1    
   138   70   72 1    
   139   70  191 1    
   140   71  192 1    
   141   71  193 1    
   142   71  194 1    
   143   72   73 2    
   144   72   74 am   BACKBONE|DICT|INTERRES
   145   74   75 1    
   146   74  195 1    
   147   75   76 1    
   148   75   77 1    
   149   75  196 1    
   150   76  197 1    
   151   76  198 1    
   152   76  199 1    
   153   77   78 2    
   154   77   79 am   BACKBONE|DICT|INTERRES
   155   79   80 1    
   156   79  200 1    
   157   80   81 1    
   158   80   82 1    
   159   80  201 1    
   160   81  202 1    
   161   81  203 1    
   162   81  204 1    
   163   82   83 2    
   164   82   84 am   BACKBONE|DICT|INTERRES
   165   84   85 1    
   166   84  205 1    
   167   85   86 1    
   168   85   87 1    
   169   85  206 1    
   170   86  207 1    
   171   86  208 1    
   172   86  209 1    
   173   87   88 2    
   174   87   89 am   BACKBONE|DICT|INTERRES
   175   89   90 1    
   176   89  210 1    
   177   90   91 1    
   178   90   92 1    
   179   90  211 1    
   180   91  212 1    
   181   91  213 1    
   182   91  214 1    
   183   92   93 2    
   184   92   94 am   BACKBONE|DICT|INTERRES
   185   94   95 1    
   186   94  215 1    
   187   95   96 1    
   188   95   97 1    
   189   95  216 1    
   190   96  217 1    
   191   96  218 1    
   192   96  219 1    
   193   97   98 2    
   194   97   99 am   BACKBONE|DICT|INTERRES
   195   99  100 1    
   196   99  220 1    
   197  100  101 1    
   198  100  102 1    
   199  100  221 1    
   200  101  222 1    
   201  101  223 1    
   202  101  224 1    
   203  102  103 2    
   204  102  104 am   BACKBONE|DICT|INTERRES
   205  104  105 1    
   206  104  225 1    
   207  105  106 1    
   208  105  107 1    
   209  105  226 1    
   210  106  227 1    
   211  106  228 1    
   212  106  229 1    
   213  107  108 2    
   214  107  109 am   BACKBONE|DICT|INTERRES
   215  109  110 1    
   216  109  230 1    
   217  110  111 1    
   218  110  112 1    
   219  110  231 1    
   220  111  232 1    
   221  111  233 1    
   222  111  234 1    
   223  112  113 2    
   224  112  114 am   BACKBONE|DICT|INTERRES
   225  114  115 1    
   226  114  235 1    
   227  115  116 1    
   228  115  117 1    
   229  115  236 1    
   230  116  237 1    
   231  116  238 1    
   232  116  239 1    
   233  117  118 2    
   234  117  119 am   BACKBONE|DICT|INTERRES
   235  119  120 1    
   236  119  240 1    
   237  120  121 1    
   238  120  124 1    
   239  120  241 1    
   240  121  122 am   BACKBONE|DICT|INTERRES
   241  121  123 2    
   242  122  242 1    
   243  122  243 1    
   244  124  125 1    
   245  124  244 1    
   246  124  245 1    
   247  125  126 1    
   248  126  246 1    
   249  126  247 1    
@<TRIPOS>SUBSTRUCTURE
     1 UNK         1 GROUP             0       ****    0 ROOT    
