@<TRIPOS>MOLECULE
3R540
247   249    1
SMALL
USER_CHARGES


@<TRIPOS>ATOM
      1 CA          1.4138  -10.1169  -48.3682 C.3       0 UNK        -0.1800 
      2 C           1.1500  -11.2209  -47.3558 C.2       0 UNK         0.5000 
      3 O           1.7978  -11.2587  -46.3100 O.2       0 UNK        -0.5000 
      4 N           0.1890  -12.1077  -47.6485 N.am      1 UNK        -0.5000 
      5 CA         -0.1806  -13.2752  -46.8342 C.3       1 UNK         0.1400 
      6 C6         -1.2551  -14.1447  -47.5327 C.3       23 UNK        -0.0398 
      7 S7         -0.6094  -14.9942  -49.0165 S.3       23 UNK        -0.2404 
      8 C8         -1.2432  -16.6753  -48.7255 C.3       23 UNK        -0.0205 
      9 C9         -0.6480  -17.7018  -49.6776 C.ar      23 UNK        -0.0193 
     10 C10        -1.3818  -18.1618  -50.7754 C.ar      23 UNK        -0.1150 
     11 C11        -0.8539  -19.1410  -51.6233 C.ar      23 UNK        -0.0193 
     12 C12         0.4160  -19.6637  -51.3612 C.ar      23 UNK        -0.1150 
     13 C13         1.1673  -19.1996  -50.2786 C.ar      23 UNK        -0.0193 
     14 C14         0.6277  -18.2208  -49.4385 C.ar      23 UNK        -0.1150 
     15 C15         2.5737  -19.7339  -50.0428 C.3       23 UNK        -0.0205 
     16 S16         2.5808  -21.4152  -49.3421 S.3       23 UNK        -0.2404 
     17 C17         2.0028  -21.0978  -47.6424 C.3       23 UNK        -0.0398 
     18 CA          0.9903  -22.1447  -47.1265 C.3       11 UNK         0.1400 
     19 N           0.8257  -22.0527  -45.6730 N.am      11 UNK        -0.5000 
     20 C           0.1496  -22.9287  -44.9168 C.2       10 UNK         0.5000 
     21 O          -0.3564  -23.9613  -45.3550 O.2       10 UNK        -0.5000 
     22 CA         -0.0389  -22.5603  -43.4325 C.3       10 UNK         0.1400 
     23 CB          1.1953  -22.9481  -42.6050 C.3       10 UNK        -0.1800 
     24 N          -0.3254  -21.1370  -43.2480 N.am      10 UNK        -0.5000 
     25 C          -1.4301  -20.5226  -43.6946 C.2       9 UNK         0.5000 
     26 O          -2.3686  -21.1122  -44.2296 O.2       9 UNK        -0.5000 
     27 CA         -1.4577  -18.9862  -43.5899 C.3       9 UNK         0.1400 
     28 CB         -1.8988  -18.5239  -42.1927 C.3       9 UNK        -0.1800 
     29 N          -0.1607  -18.3960  -43.9322 N.am      9 UNK        -0.5000 
     30 C           0.3505  -18.4002  -45.1711 C.2       8 UNK         0.5000 
     31 O          -0.2446  -18.8579  -46.1423 O.2       8 UNK        -0.5000 
     32 CA          1.7719  -17.8459  -45.3669 C.3       8 UNK         0.1400 
     33 CB          1.7245  -16.3754  -45.7824 C.3       8 UNK        -0.1800 
     34 N           2.6233  -18.0093  -44.1896 N.am      8 UNK        -0.5000 
     35 C           3.0759  -19.1973  -43.7679 C.2       7 UNK         0.5000 
     36 O           2.8465  -20.2579  -44.3508 O.2       7 UNK        -0.5000 
     37 CA          3.8466  -19.2056  -42.4351 C.3       7 UNK         0.1400 
     38 CB          5.2858  -18.7036  -42.6248 C.3       7 UNK        -0.1800 
     39 N           3.1798  -18.4224  -41.3886 N.am      7 UNK        -0.5000 
     40 C           1.9500  -18.6811  -40.9206 C.2       6 UNK         0.5000 
     41 O           1.2509  -19.6009  -41.3436 O.2       6 UNK        -0.5000 
     42 CA          1.3784  -17.7662  -39.8200 C.3       6 UNK         0.1400 
     43 CB          1.1815  -18.5629  -38.5212 C.3       6 UNK        -0.1800 
     44 N           2.2116  -16.5974  -39.5237 N.am      6 UNK        -0.5000 
     45 C           2.2431  -15.4154  -40.1559 C.2       5 UNK         0.5000 
     46 O           2.9730  -14.5094  -39.7520 O.2       5 UNK        -0.5000 
     47 CA          1.3403  -15.1597  -41.3894 C.3       5 UNK         0.1400 
     48 CB         -0.0236  -14.5963  -40.9598 C.3       5 UNK        -0.1800 
     49 N           1.9606  -14.2122  -42.3152 N.am      5 UNK        -0.5000 
     50 C           3.0891  -14.4375  -42.9995 C.2       4 UNK         0.5000 
     51 O           3.6327  -15.5431  -43.0364 O.2       4 UNK        -0.5000 
     52 CA          3.7131  -13.2556  -43.7743 C.3       4 UNK         0.1400 
     53 CB          4.0009  -13.6171  -45.2396 C.3       4 UNK        -0.1800 
     54 N           2.9003  -12.0387  -43.7547 N.am      4 UNK        -0.5000 
     55 C           2.8777  -11.1299  -42.7718 C.2       3 UNK         0.5000 
     56 O           3.5409  -11.2191  -41.7390 O.2       3 UNK        -0.5000 
     57 CA          1.9387   -9.9293  -42.9747 C.3       3 UNK         0.1400 
     58 CB          2.6309   -8.8341  -43.8009 C.3       3 UNK        -0.1800 
     59 N           0.6970  -10.3234  -43.6415 N.am      3 UNK        -0.5000 
     60 C          -0.3775  -10.8179  -43.0119 C.2       2 UNK         0.5000 
     61 O          -0.4408  -10.9770  -41.7927 O.2       2 UNK        -0.5000 
     62 CA         -1.5842  -11.2047  -43.8896 C.3       2 UNK         0.1400 
     63 CB         -2.5173   -9.9997  -44.0826 C.3       2 UNK        -0.1800 
     64 N          -1.1920  -11.7225  -45.2015 N.am      2 UNK        -0.5000 
     65 C          -0.6270  -12.9220  -45.3976 C.2       1 UNK         0.5000 
     66 O          -0.4339  -13.7348  -44.4947 O.2       1 UNK        -0.5000 
     67 C          -0.3661  -22.0717  -47.8641 C.2       11 UNK         0.5000 
     68 O          -0.6286  -22.9080  -48.7275 O.2       11 UNK        -0.5000 
     69 N          -1.2295  -21.1240  -47.4699 N.am      12 UNK        -0.5000 
     70 CA         -2.5956  -20.9848  -47.9737 C.3       12 UNK         0.1400 
     71 CB         -3.2465  -19.7181  -47.4022 C.3       12 UNK        -0.1800 
     72 C          -3.4638  -22.2168  -47.6715 C.2       12 UNK         0.5000 
     73 O          -4.1835  -22.6739  -48.5581 O.2       12 UNK        -0.5000 
     74 N          -3.3583  -22.7568  -46.4490 N.am      13 UNK        -0.5000 
     75 CA         -4.0324  -23.9855  -46.0256 C.3       13 UNK         0.1400 
     76 CB         -3.8227  -24.2063  -44.5205 C.3       13 UNK        -0.1800 
     77 C          -3.5861  -25.2167  -46.8367 C.2       13 UNK         0.5000 
     78 O          -4.4382  -25.9888  -47.2777 O.2       13 UNK        -0.5000 
     79 N          -2.2721  -25.3448  -47.0749 N.am      14 UNK        -0.5000 
     80 CA         -1.6750  -26.3682  -47.9398 C.3       14 UNK         0.1400 
     81 CB         -0.1452  -26.3224  -47.8104 C.3       14 UNK        -0.1800 
     82 C          -2.1075  -26.2371  -49.4149 C.2       14 UNK         0.5000 
     83 O          -2.2776  -27.2505  -50.0926 O.2       14 UNK        -0.5000 
     84 N          -2.3404  -24.9968  -49.8627 N.am      15 UNK        -0.5000 
     85 CA         -2.9159  -24.6338  -51.1590 C.3       15 UNK         0.1400 
     86 CB         -2.4264  -23.2236  -51.5379 C.3       15 UNK        -0.1800 
     87 C          -4.4594  -24.7365  -51.2007 C.2       15 UNK         0.5000 
     88 O          -5.0714  -24.1557  -52.0977 O.2       15 UNK        -0.5000 
     89 N          -5.0655  -25.4560  -50.2428 N.am      16 UNK        -0.5000 
     90 CA         -6.4964  -25.7514  -50.1102 C.3       16 UNK         0.1400 
     91 CB         -6.9840  -26.6309  -51.2807 C.3       16 UNK        -0.1800 
     92 C          -7.3522  -24.4868  -49.8988 C.2       16 UNK         0.5000 
     93 O          -8.3782  -24.3126  -50.5573 O.2       16 UNK        -0.5000 
     94 N          -6.8922  -23.6271  -48.9793 N.am      17 UNK        -0.5000 
     95 CA         -7.4139  -22.2917  -48.6674 C.3       17 UNK         0.1400 
     96 CB         -8.8732  -22.3440  -48.1673 C.3       17 UNK        -0.1800 
     97 C          -7.1890  -21.3146  -49.8388 C.2       17 UNK         0.5000 
     98 O          -8.0906  -20.5592  -50.2059 O.2       17 UNK        -0.5000 
     99 N          -5.9673  -21.3653  -50.3906 N.am      18 UNK        -0.5000 
    100 CA        -5.4496  -20.5797  -51.5120 C.3       18 UNK         0.1400 
    101 CB        -5.2419  -19.1109  -51.0880 C.3       18 UNK        -0.1800 
    102 C         -6.2946  -20.7319  -52.7933 C.2       18 UNK         0.5000 
    103 O         -6.7016  -19.7361  -53.3956 O.2       18 UNK        -0.5000 
    104 N         -6.5351  -21.9844  -53.2027 N.am      19 UNK        -0.5000 
    105 CA        -7.3469  -22.3717  -54.3608 C.3       19 UNK         0.1400 
    106 CB        -7.8360  -23.8166  -54.1584 C.3       19 UNK        -0.1800 
    107 C         -6.6110  -22.1812  -55.7070 C.2       19 UNK         0.5000 
    108 O         -6.5752  -23.0973  -56.5298 O.2       19 UNK        -0.5000 
    109 N         -6.0207  -20.9930  -55.8972 N.am      20 UNK        -0.5000 
    110 CA        -5.3018  -20.5043  -57.0817 C.3       20 UNK         0.1400 
    111 CB        -6.2523  -20.4105  -58.2928 C.3       20 UNK        -0.1800 
    112 C         -4.0014  -21.2629  -57.4303 C.2       20 UNK         0.5000 
    113 O         -3.4057  -20.9821  -58.4718 O.2       20 UNK        -0.5000 
    114 N         -3.5479  -22.1741  -56.5562 N.am      21 UNK        -0.5000 
    115 CA        -2.3537  -23.0084  -56.7425 C.3       21 UNK         0.1400 
    116 CB        -2.2763  -24.0321  -55.5997 C.3       21 UNK        -0.1800 
    117 C         -1.0408  -22.2044  -56.8373 C.2       21 UNK         0.5000 
    118 O         -0.0996  -22.6443  -57.4985 O.2       21 UNK        -0.5000 
    119 N         -1.0207  -21.0331  -56.1932 N.am      22 UNK        -0.5000 
    120 CA         0.0404  -20.0197  -56.2730 C.3       22 UNK         0.1400 
    121 C         -0.0581  -19.0751  -57.5098 C.2       22 UNK         0.5000 
    122 N         -1.0483  -19.2038  -58.3861 N.am      22 UNK        -0.7600 
    123 O          0.7991  -18.2150  -57.6938 O.2       22 UNK        -0.5000 
    124 C124        0.1753  -19.2388  -54.9376 C.3       23 UNK        -0.0398 
    125 S125       -1.4085  -18.5894  -54.2865 S.3       23 UNK        -0.2404 
    126 C126       -1.6599  -19.6350  -52.8158 C.3       23 UNK        -0.0205 
    127 H127        1.2557   -9.1416  -47.9080 H         1 UNK         0.0600 
    128 H128        0.7577  -10.1961  -49.2352 H         1 UNK         0.0600 
    129 H129        2.4457  -10.1679  -48.7154 H         1 UNK         0.0600 
    130 H130       -0.3011  -12.0243  -48.5280 H         1 UNK         0.3000 
    131 H131        0.7252  -13.8730  -46.7267 H         1 UNK         0.0600 
    132 H132       -2.1146  -13.5375  -47.8219 H         1 UNK         0.0800 
    133 H133       -1.6421  -14.8967  -46.8421 H         1 UNK         0.0800 
    134 H134       -1.0216  -16.9736  -47.7019 H         1 UNK         0.0800 
    135 H135       -2.3308  -16.6629  -48.8113 H         1 UNK         0.0800 
    136 H136       -2.3660  -17.7595  -50.9695 H         1 UNK         0.1150 
    137 H137        0.8294  -20.4296  -52.0011 H         1 UNK         0.1150 
    138 H138        1.1980  -17.8597  -48.5950 H         1 UNK         0.1150 
    139 H139        3.1106  -19.7499  -50.9923 H         1 UNK         0.0800 
    140 H140        3.1375  -19.0662  -49.3894 H         1 UNK         0.0800 
    141 H141        1.5759  -20.0997  -47.5782 H         1 UNK         0.0800 
    142 H142        2.8864  -21.0889  -47.0026 H         1 UNK         0.0800 
    143 H143        1.4091  -23.1337  -47.3247 H         1 UNK         0.0600 
    144 H144        1.2631  -21.2614  -45.2141 H         1 UNK         0.3000 
    145 H145       -0.8925  -23.1264  -43.0542 H         1 UNK         0.0600 
    146 H146        1.0398  -22.7398  -41.5463 H         1 UNK         0.0600 
    147 H147        1.4095  -24.0133  -42.7004 H         1 UNK         0.0600 
    148 H148        2.0845  -22.4041  -42.9236 H         1 UNK         0.0600 
    149 H149        0.3779  -20.5860  -42.7642 H         1 UNK         0.3000 
    150 H150       -2.1932  -18.6177  -44.3083 H         1 UNK         0.0600 
    151 H151       -2.9136  -18.8622  -41.9799 H         1 UNK         0.0600 
    152 H152       -1.8966  -17.4364  -42.1157 H         1 UNK         0.0600 
    153 H153       -1.2573  -18.9199  -41.4067 H         1 UNK         0.0600 
    154 H154        0.4091  -18.0598  -43.1728 H         1 UNK         0.3000 
    155 H155        2.2310  -18.3985  -46.1876 H         1 UNK         0.0600 
    156 H156        1.3257  -15.7441  -44.9889 H         1 UNK         0.0600 
    157 H157        2.7206  -16.0221  -46.0423 H         1 UNK         0.0600 
    158 H158        1.0962  -16.2398  -46.6623 H         1 UNK         0.0600 
    159 H159        2.9028  -17.1683  -43.6901 H         1 UNK         0.3000 
    160 H160        3.8935  -20.2414  -42.0922 H         1 UNK         0.0600 
    161 H161        5.3143  -17.6588  -42.9349 H         1 UNK         0.0600 
    162 H162        5.8041  -19.2861  -43.3876 H         1 UNK         0.0600 
    163 H163        5.8593  -18.7948  -41.7023 H         1 UNK         0.0600 
    164 H164        3.6916  -17.6381  -41.0105 H         1 UNK         0.3000 
    165 H165        0.3929  -17.4368  -40.1504 H         1 UNK         0.0600 
    166 H166        0.7186  -17.9491  -37.7481 H         1 UNK         0.0600 
    167 H167        0.5296  -19.4229  -38.6818 H         1 UNK         0.0600 
    168 H168        2.1284  -18.9378  -38.1304 H         1 UNK         0.0600 
    169 H169        2.8209  -16.7086  -38.7265 H         1 UNK         0.3000 
    170 H170        1.1812  -16.0876  -41.9382 H         1 UNK         0.0600 
    171 H171        0.0812  -13.6325  -40.4597 H         1 UNK         0.0600 
    172 H172       -0.6794  -14.4551  -41.8193 H         1 UNK         0.0600 
    173 H173       -0.5351  -15.2676  -40.2699 H         1 UNK         0.0600 
    174 H174        1.5703  -13.2823  -42.3394 H         1 UNK         0.3000 
    175 H175        4.6702  -13.0456  -43.2928 H         1 UNK         0.0600 
    176 H176        4.5722  -12.8286  -45.7295 H         1 UNK         0.0600 
    177 H177        3.0795  -13.7519  -45.8052 H         1 UNK         0.0600 
    178 H178        4.5847  -14.5348  -45.3198 H         1 UNK         0.0600 
    179 H179        2.3597  -11.8500  -44.5950 H         1 UNK         0.3000 
    180 H180        1.7057   -9.5129  -41.9921 H         1 UNK         0.0600 
    181 H181        2.8920   -9.1842  -44.8004 H         1 UNK         0.0600 
    182 H182        3.5517   -8.5048  -43.3177 H         1 UNK         0.0600 
    183 H183        1.9901   -7.9590  -43.9095 H         1 UNK         0.0600 
    184 H184        0.6993  -10.2906  -44.6525 H         1 UNK         0.3000 
    185 H185       -2.1402  -11.9840  -43.3636 H         1 UNK         0.0600 
    186 H186       -3.4115  -10.2787  -44.6404 H         1 UNK         0.0600 
    187 H187       -2.8460   -9.6030  -43.1211 H         1 UNK         0.0600 
    188 H188       -2.0240   -9.1893  -44.6208 H         1 UNK         0.0600 
    189 H189       -1.3174  -11.1105  -45.9946 H         1 UNK         0.3000 
    190 H190       -0.9200  -20.4213  -46.8024 H         1 UNK         0.3000 
    191 H191       -2.5355  -20.8710  -49.0576 H         1 UNK         0.0600 
    192 H192       -2.6716  -18.8319  -47.6611 H         1 UNK         0.0600 
    193 H193       -4.2528  -19.5823  -47.8001 H         1 UNK         0.0600 
    194 H194       -3.3260  -19.7563  -46.3163 H         1 UNK         0.0600 
    195 H195       -2.7863  -22.2852  -45.7545 H         1 UNK         0.3000 
    196 H196       -5.1020  -23.8480  -46.1970 H         1 UNK         0.0600 
    197 H197       -4.3573  -25.0933  -44.1788 H         1 UNK         0.0600 
    198 H198       -4.1940  -23.3595  -43.9430 H         1 UNK         0.0600 
    199 H199       -2.7705  -24.3428  -44.2733 H         1 UNK         0.0600 
    200 H200       -1.6306  -24.6886  -46.6378 H         1 UNK         0.3000 
    201 H201       -2.0157  -27.3422  -47.5831 H         1 UNK         0.0600 
    202 H202        0.1676  -26.4788  -46.7778 H         1 UNK         0.0600 
    203 H203        0.2598  -25.3658  -48.1402 H         1 UNK         0.0600 
    204 H204        0.3212  -27.1019  -48.4140 H         1 UNK         0.0600 
    205 H205       -2.1076  -24.2214  -49.2508 H         1 UNK         0.3000 
    206 H206       -2.5396  -25.3276  -51.9131 H         1 UNK         0.0600 
    207 H207       -1.3385  -23.1889  -51.5995 H         1 UNK         0.0600 
    208 H208       -2.8154  -22.9092  -52.5058 H         1 UNK         0.0600 
    209 H209       -2.7382  -22.4810  -50.8058 H         1 UNK         0.0600 
    210 H210       -4.4838  -25.8401  -49.5092 H         1 UNK         0.3000 
    211 H211       -6.6002  -26.3401  -49.1976 H         1 UNK         0.0600 
    212 H212       -6.9458  -26.1004  -52.2319 H         1 UNK         0.0600 
    213 H213       -8.0156  -26.9494  -51.1264 H         1 UNK         0.0600 
    214 H214       -6.3777  -27.5317  -51.3751 H         1 UNK         0.0600 
    215 H215       -5.9896  -23.8326  -48.5681 H         1 UNK         0.3000 
    216 H216       -6.8067  -21.9169  -47.8422 H         1 UNK         0.0600 
    217 H217       -9.1879  -21.3695  -47.7924 H         1 UNK         0.0600 
    218 H218       -8.9850  -23.0573  -47.3509 H         1 UNK         0.0600 
    219 H219       -9.5691  -22.6251  -48.9579 H         1 UNK         0.0600 
    220 H220       -5.3107  -22.0185  -49.9730 H         1 UNK         0.3000 
    221 H221       -4.4709  -20.9968  -51.7470 H         1 UNK         0.0600 
    222 H222       -6.1820  -18.6324  -50.8121 H         1 UNK         0.0600 
    223 H223       -4.5665  -19.0399  -50.2358 H         1 UNK         0.0600 
    224 H224       -4.8044  -18.5247  -51.8967 H         1 UNK         0.0600 
    225 H225       -6.1108  -22.7545  -52.6877 H         1 UNK         0.3000 
    226 H226       -8.2291  -21.7292  -54.3909 H         1 UNK         0.0600 
    227 H227       -8.3910  -23.9175  -53.2262 H         1 UNK         0.0600 
    228 H228       -8.5029  -24.1246  -54.9645 H         1 UNK         0.0600 
    229 H229       -7.0032  -24.5202  -54.1310 H         1 UNK         0.0600 
    230 H230       -6.1238  -20.3205  -55.1417 H         1 UNK         0.3000 
    231 H231       -4.9889  -19.4888  -56.8351 H         1 UNK         0.0600 
    232 H232       -6.5633  -21.3956  -58.6415 H         1 UNK         0.0600 
    233 H233       -5.7720  -19.9056  -59.1318 H         1 UNK         0.0600 
    234 H234       -7.1496  -19.8424  -58.0471 H         1 UNK         0.0600 
    235 H235       -4.1052  -22.3559  -55.7350 H         1 UNK         0.3000 
    236 H236       -2.4744  -23.5517  -57.6819 H         1 UNK         0.0600 
    237 H237       -3.1846  -24.6323  -55.5408 H         1 UNK         0.0600 
    238 H238       -1.4420  -24.7190  -55.7480 H         1 UNK         0.0600 
    239 H239       -2.1302  -23.5454  -54.6361 H         1 UNK         0.0600 
    240 H240       -1.8496  -20.7493  -55.6928 H         1 UNK         0.3000 
    241 H241        0.9853  -20.5481  -56.4136 H         1 UNK         0.0600 
    242 H242       -1.7628  -19.9171  -58.2873 H         1 UNK         0.3800 
    243 H243       -1.0799  -18.5845  -59.1803 H         1 UNK         0.3800 
    244 H244        0.6223  -19.9010  -54.1984 H         1 UNK         0.0800 
    245 H245        0.8782  -18.4095  -55.0325 H         1 UNK         0.0800 
    246 H246       -1.4132  -20.6728  -53.0453 H         1 UNK         0.0800 
    247 H247       -2.7194  -19.6250  -52.5656 H         1 UNK         0.0800 
@<TRIPOS>BOND
     1    1    2 1    
     2    1  127 1    
     3    1  128 1    
     4    1  129 1    
     5    2    3 2    
     6    2    4 am   BACKBONE|DICT|INTERRES
     7    4    5 1    
     8    4  130 1    
     9    5    6 1    
    10    5   65 1    
    11    5  131 1    
    12    6    7 1    
    13    6  132 1    
    14    6  133 1    
    15    7    8 1    
    16    8    9 1    
    17    8  134 1    
    18    8  135 1    
    19    9   10 ar   
    20    9   14 ar   
    21   10   11 ar   
    22   10  136 1    
    23   11   12 ar   
    24   11  126 1    
    25   12   13 ar   
    26   12  137 1    
    27   13   14 ar   
    28   13   15 1    
    29   14  138 1    
    30   15   16 1    
    31   15  139 1    
    32   15  140 1    
    33   16   17 1    
    34   17   18 1    
    35   17  141 1    
    36   17  142 1    
    37   18   19 1    
    38   18   67 1    
    39   18  143 1    
    40   19   20 am   BACKBONE|DICT|INTERRES
    41   19  144 1    
    42   20   21 2    
    43   20   22 1    
    44   22   23 1    
    45   22   24 1    
    46   22  145 1    
    47   23  146 1    
    48   23  147 1    
    49   23  148 1    
    50   24   25 am   BACKBONE|DICT|INTERRES
    51   24  149 1    
    52   25   26 2    
    53   25   27 1    
    54   27   28 1    
    55   27   29 1    
    56   27  150 1    
    57   28  151 1    
    58   28  152 1    
    59   28  153 1    
    60   29   30 am   BACKBONE|DICT|INTERRES
    61   29  154 1    
    62   30   31 2    
    63   30   32 1    
    64   32   33 1    
    65   32   34 1    
    66   32  155 1    
    67   33  156 1    
    68   33  157 1    
    69   33  158 1    
    70   34   35 am   BACKBONE|DICT|INTERRES
    71   34  159 1    
    72   35   36 2    
    73   35   37 1    
    74   37   38 1    
    75   37   39 1    
    76   37  160 1    
    77   38  161 1    
    78   38  162 1    
    79   38  163 1    
    80   39   40 am   BACKBONE|DICT|INTERRES
    81   39  164 1    
    82   40   41 2    
    83   40   42 1    
    84   42   43 1    
    85   42   44 1    
    86   42  165 1    
    87   43  166 1    
    88   43  167 1    
    89   43  168 1    
    90   44   45 am   BACKBONE|DICT|INTERRES
    91   44  169 1    
    92   45   46 2    
    93   45   47 1    
    94   47   48 1    
    95   47   49 1    
    96   47  170 1    
    97   48  171 1    
    98   48  172 1    
    99   48  173 1    
   100   49   50 am   BACKBONE|DICT|INTERRES
   101   49  174 1    
   102   50   51 2    
   103   50   52 1    
   104   52   53 1    
   105   52   54 1    
   106   52  175 1    
   107   53  176 1    
   108   53  177 1    
   109   53  178 1    
   110   54   55 am   BACKBONE|DICT|INTERRES
   111   54  179 1    
   112   55   56 2    
   113   55   57 1    
   114   57   58 1    
   115   57   59 1    
   116   57  180 1    
   117   58  181 1    
   118   58  182 1    
   119   58  183 1    
   120   59   60 am   BACKBONE|DICT|INTERRES
   121   59  184 1    
   122   60   61 2    
   123   60   62 1    
   124   62   63 1    
   125   62   64 1    
   126   62  185 1    
   127   63  186 1    
   128   63  187 1    
   129   63  188 1    
   130   64   65 am   BACKBONE|DICT|INTERRES
   131   64  189 1    
   132   65   66 2    
   133   67   68 2    
   134   67   69 am   BACKBONE|DICT|INTERRES
   135   69   70 1    
   136   69  190 1    
   137   70   71 1    
   138   70   72 1    
   139   70  191 1    
   140   71  192 1    
   141   71  193 1    
   142   71  194 1    
   143   72   73 2    
   144   72   74 am   BACKBONE|DICT|INTERRES
   145   74   75 1    
   146   74  195 1    
   147   75   76 1    
   148   75   77 1    
   149   75  196 1    
   150   76  197 1    
   151   76  198 1    
   152   76  199 1    
   153   77   78 2    
   154   77   79 am   BACKBONE|DICT|INTERRES
   155   79   80 1    
   156   79  200 1    
   157   80   81 1    
   158   80   82 1    
   159   80  201 1    
   160   81  202 1    
   161   81  203 1    
   162   81  204 1    
   163   82   83 2    
   164   82   84 am   BACKBONE|DICT|INTERRES
   165   84   85 1    
   166   84  205 1    
   167   85   86 1    
   168   85   87 1    
   169   85  206 1    
   170   86  207 1    
   171   86  208 1    
   172   86  209 1    
   173   87   88 2    
   174   87   89 am   BACKBONE|DICT|INTERRES
   175   89   90 1    
   176   89  210 1    
   177   90   91 1    
   178   90   92 1    
   179   90  211 1    
   180   91  212 1    
   181   91  213 1    
   182   91  214 1    
   183   92   93 2    
   184   92   94 am   BACKBONE|DICT|INTERRES
   185   94   95 1    
   186   94  215 1    
   187   95   96 1    
   188   95   97 1    
   189   95  216 1    
   190   96  217 1    
   191   96  218 1    
   192   96  219 1    
   193   97   98 2    
   194   97   99 am   BACKBONE|DICT|INTERRES
   195   99  100 1    
   196   99  220 1    
   197  100  101 1    
   198  100  102 1    
   199  100  221 1    
   200  101  222 1    
   201  101  223 1    
   202  101  224 1    
   203  102  103 2    
   204  102  104 am   BACKBONE|DICT|INTERRES
   205  104  105 1    
   206  104  225 1    
   207  105  106 1    
   208  105  107 1    
   209  105  226 1    
   210  106  227 1    
   211  106  228 1    
   212  106  229 1    
   213  107  108 2    
   214  107  109 am   BACKBONE|DICT|INTERRES
   215  109  110 1    
   216  109  230 1    
   217  110  111 1    
   218  110  112 1    
   219  110  231 1    
   220  111  232 1    
   221  111  233 1    
   222  111  234 1    
   223  112  113 2    
   224  112  114 am   BACKBONE|DICT|INTERRES
   225  114  115 1    
   226  114  235 1    
   227  115  116 1    
   228  115  117 1    
   229  115  236 1    
   230  116  237 1    
   231  116  238 1    
   232  116  239 1    
   233  117  118 2    
   234  117  119 am   BACKBONE|DICT|INTERRES
   235  119  120 1    
   236  119  240 1    
   237  120  121 1    
   238  120  124 1    
   239  120  241 1    
   240  121  122 am   BACKBONE|DICT|INTERRES
   241  121  123 2    
   242  122  242 1    
   243  122  243 1    
   244  124  125 1    
   245  124  244 1    
   246  124  245 1    
   247  125  126 1    
   248  126  246 1    
   249  126  247 1    
@<TRIPOS>SUBSTRUCTURE
     1 UNK         1 GROUP             0       ****    0 ROOT    
