@<TRIPOS>MOLECULE
3R540
247   249    1
SMALL
USER_CHARGES


@<TRIPOS>ATOM
      1 CA         -1.7975  -14.9348  -48.6316 C.3       0 UNK        -0.1800 
      2 C          -0.6956  -13.9161  -48.8870 C.2       0 UNK         0.5000 
      3 O          -0.8485  -13.0519  -49.7492 O.2       0 UNK        -0.5000 
      4 N           0.4158  -14.0347  -48.1490 N.am      1 UNK        -0.5000 
      5 CA          1.6236  -13.2069  -48.2614 C.3       1 UNK         0.1400 
      6 C6          2.8033  -13.6953  -47.3749 C.3       23 UNK        -0.0398 
      7 S7          3.0590  -15.5029  -47.3658 S.3       23 UNK        -0.2404 
      8 C8          3.6106  -15.8272  -49.0677 C.3       23 UNK        -0.0205 
      9 C9          2.8430  -16.9950  -49.6653 C.ar      23 UNK        -0.0193 
     10 C10         1.5771  -16.7976  -50.2248 C.ar      23 UNK        -0.1150 
     11 C11         0.8695  -17.8681  -50.7805 C.ar      23 UNK        -0.0193 
     12 C12         1.4461  -19.1402  -50.7868 C.ar      23 UNK        -0.1150 
     13 C13         2.7012  -19.3566  -50.2068 C.ar      23 UNK        -0.0193 
     14 C14         3.3951  -18.2778  -49.6519 C.ar      23 UNK        -0.1150 
     15 C15         3.3163  -20.7501  -50.1650 C.3       23 UNK        -0.0205 
     16 S16         2.1542  -22.0393  -49.6091 S.3       23 UNK        -0.2404 
     17 C17         1.6002  -21.3838  -47.9955 C.3       23 UNK        -0.0398 
     18 CA          0.5549  -22.3110  -47.3359 C.3       11 UNK         0.1400 
     19 N           0.4660  -22.1223  -45.8894 N.am      11 UNK        -0.5000 
     20 C          -0.1077  -23.0062  -45.0613 C.2       10 UNK         0.5000 
     21 O          -0.6155  -24.0648  -45.4355 O.2       10 UNK        -0.5000 
     22 CA         -0.1533  -22.6292  -43.5713 C.3       10 UNK         0.1400 
     23 CB          1.2248  -22.8147  -42.9190 C.3       10 UNK        -0.1800 
     24 N          -0.6276  -21.2633  -43.3490 N.am      10 UNK        -0.5000 
     25 C          -1.8516  -20.8270  -43.6811 C.2       9 UNK         0.5000 
     26 O          -2.7128  -21.5322  -44.2077 O.2       9 UNK        -0.5000 
     27 CA         -2.1573  -19.3446  -43.4104 C.3       9 UNK         0.1400 
     28 CB         -2.4473  -19.1130  -41.9199 C.3       9 UNK        -0.1800 
     29 N          -1.0847  -18.4523  -43.8481 N.am      9 UNK        -0.5000 
     30 C          -0.6748  -18.3203  -45.1182 C.2       8 UNK         0.5000 
     31 O          -1.1528  -18.9397  -46.0654 O.2       8 UNK        -0.5000 
     32 CA          0.5059  -17.3719  -45.3680 C.3       8 UNK         0.1400 
     33 CB          0.0748  -15.9079  -45.1814 C.3       8 UNK        -0.1800 
     34 N           1.6385  -17.6673  -44.4955 N.am      8 UNK        -0.5000 
     35 C           2.2815  -18.8417  -44.4253 C.2       7 UNK         0.5000 
     36 O           2.0205  -19.8202  -45.1254 O.2       7 UNK        -0.5000 
     37 CA          3.3677  -18.9554  -43.3449 C.3       7 UNK         0.1400 
     38 CB          4.6813  -18.3177  -43.8223 C.3       7 UNK        -0.1800 
     39 N           2.9463  -18.3399  -42.0862 N.am      7 UNK        -0.5000 
     40 C           1.9709  -18.8160  -41.2989 C.2       6 UNK         0.5000 
     41 O           1.3367  -19.8446  -41.5352 O.2       6 UNK        -0.5000 
     42 CA          1.6206  -17.9740  -40.0591 C.3       6 UNK         0.1400 
     43 CB          2.6451  -18.1994  -38.9369 C.3       6 UNK        -0.1800 
     44 N           1.5324  -16.5444  -40.3614 N.am      6 UNK        -0.5000 
     45 C           0.5878  -16.0011  -41.1411 C.2       5 UNK         0.5000 
     46 O          -0.3159  -16.6473  -41.6706 O.2       5 UNK        -0.5000 
     47 CA          0.6842  -14.4873  -41.4019 C.3       5 UNK         0.1400 
     48 CB          0.0018  -13.7004  -40.2736 C.3       5 UNK        -0.1800 
     49 N           2.0453  -13.9769  -41.5896 N.am      5 UNK        -0.5000 
     50 C           2.9263  -14.4101  -42.5008 C.2       4 UNK         0.5000 
     51 O           2.7514  -15.4071  -43.2008 O.2       4 UNK        -0.5000 
     52 CA          4.1734  -13.5304  -42.7080 C.3       4 UNK         0.1400 
     53 CB          5.2273  -14.2015  -43.6073 C.3       4 UNK        -0.1800 
     54 N           3.7656  -12.2681  -43.3216 N.am      4 UNK        -0.5000 
     55 C           3.2837  -11.2071  -42.6608 C.2       3 UNK         0.5000 
     56 O           3.2619  -11.1186  -41.4324 O.2       3 UNK        -0.5000 
     57 CA          2.6591  -10.0937  -43.5234 C.3       3 UNK         0.1400 
     58 CB          3.7404   -9.1307  -44.0363 C.3       3 UNK        -0.1800 
     59 N           1.8955  -10.6200  -44.6610 N.am      3 UNK        -0.5000 
     60 C           0.7852  -11.3693  -44.5587 C.2       2 UNK         0.5000 
     61 O           0.2690  -11.6686  -43.4822 O.2       2 UNK        -0.5000 
     62 CA          0.1490  -11.8818  -45.8663 C.3       2 UNK         0.1400 
     63 CB         -1.3800  -11.7108  -45.8536 C.3       2 UNK        -0.1800 
     64 N           0.6929  -11.1933  -47.0429 N.am      2 UNK        -0.5000 
     65 C           1.3906  -11.6845  -48.0813 C.2       1 UNK         0.5000 
     66 O           1.8595  -10.9245  -48.9271 O.2       1 UNK        -0.5000 
     67 C          -0.8284  -22.2234  -48.0128 C.2       11 UNK         0.5000 
     68 O          -1.1083  -23.0396  -48.8876 O.2       11 UNK        -0.5000 
     69 N          -1.6953  -21.2972  -47.5725 N.am      12 UNK        -0.5000 
     70 CA         -3.0775  -21.1859  -48.0461 C.3       12 UNK         0.1400 
     71 CB         -3.7571  -19.9431  -47.4547 C.3       12 UNK        -0.1800 
     72 C          -3.9080  -22.4445  -47.7486 C.2       12 UNK         0.5000 
     73 O          -4.6300  -22.9043  -48.6326 O.2       12 UNK        -0.5000 
     74 N          -3.7641  -23.0017  -46.5375 N.am      13 UNK        -0.5000 
     75 CA         -4.3913  -24.2588  -46.1279 C.3       13 UNK         0.1400 
     76 CB         -4.1500  -24.5001  -44.6305 C.3       13 UNK        -0.1800 
     77 C          -3.9097  -25.4563  -46.9667 C.2       13 UNK         0.5000 
     78 O          -4.7393  -26.2330  -47.4425 O.2       13 UNK        -0.5000 
     79 N          -2.5888  -25.5511  -47.1824 N.am      14 UNK        -0.5000 
     80 CA         -1.9563  -26.5537  -48.0459 C.3       14 UNK         0.1400 
     81 CB         -0.4294  -26.4552  -47.9114 C.3       14 UNK        -0.1800 
     82 C          -2.3839  -26.4339  -49.5229 C.2       14 UNK         0.5000 
     83 O          -2.5484  -27.4515  -50.1957 O.2       14 UNK        -0.5000 
     84 N          -2.6054  -25.1957  -49.9809 N.am      15 UNK        -0.5000 
     85 CA         -3.1063  -24.8373  -51.3068 C.3       15 UNK         0.1400 
     86 CB         -2.6004  -23.4286  -51.6629 C.3       15 UNK        -0.1800 
     87 C          -4.6415  -24.9329  -51.4438 C.2       15 UNK         0.5000 
     88 O          -5.1847  -24.3814  -52.4031 O.2       15 UNK        -0.5000 
     89 N          -5.3131  -25.6160  -50.5043 N.am      16 UNK        -0.5000 
     90 CA         -6.7503  -25.9036  -50.4678 C.3       16 UNK         0.1400 
     91 CB         -7.1557  -26.8155  -51.6452 C.3       16 UNK        -0.1800 
     92 C          -7.6081  -24.6277  -50.3598 C.2       16 UNK         0.5000 
     93 O          -8.5145  -24.4146  -51.1660 O.2       16 UNK        -0.5000 
     94 N          -7.2820  -23.8033  -49.3550 N.am      17 UNK        -0.5000 
     95 CA         -7.8602  -22.4896  -49.0522 C.3       17 UNK         0.1400 
     96 CB         -9.3685  -22.5868  -48.7380 C.3       17 UNK        -0.1800 
     97 C          -7.5165  -21.4531  -50.1399 C.2       17 UNK         0.5000 
     98 O          -8.3892  -20.7117  -50.5950 O.2       17 UNK        -0.5000 
     99 N          -6.2310  -21.4371  -50.5232 N.am      18 UNK        -0.5000 
    100 CA        -5.6097  -20.5769  -51.5351 C.3       18 UNK         0.1400 
    101 CB        -5.5559  -19.1134  -51.0484 C.3       18 UNK        -0.1800 
    102 C         -6.2477  -20.7322  -52.9326 C.2       18 UNK         0.5000 
    103 O         -6.5210  -19.7395  -53.6096 O.2       18 UNK        -0.5000 
    104 N         -6.4854  -21.9868  -53.3337 N.am      19 UNK        -0.5000 
    105 CA        -6.9876  -22.3484  -54.6562 C.3       19 UNK         0.1400 
    106 CB        -7.9296  -23.5555  -54.5298 C.3       19 UNK        -0.1800 
    107 C         -5.8230  -22.6636  -55.6078 C.2       19 UNK         0.5000 
    108 O         -5.8287  -22.2048  -56.7505 O.2       19 UNK        -0.5000 
    109 N         -4.8416  -23.4352  -55.1192 N.am      20 UNK        -0.5000 
    110 CA        -3.6783  -23.8810  -55.8907 C.3       20 UNK         0.1400 
    111 CB        -3.1501  -25.1885  -55.2818 C.3       20 UNK        -0.1800 
    112 C         -2.5523  -22.8310  -55.9693 C.2       20 UNK         0.5000 
    113 O         -1.6808  -22.9501  -56.8317 O.2       20 UNK        -0.5000 
    114 N         -2.5771  -21.8340  -55.0784 N.am      21 UNK        -0.5000 
    115 CA        -1.6164  -20.7399  -54.9989 C.3       21 UNK         0.1400 
    116 CB        -0.4437  -21.1329  -54.0833 C.3       21 UNK        -0.1800 
    117 C         -2.3449  -19.5085  -54.4534 C.2       21 UNK         0.5000 
    118 O         -3.1666  -19.6527  -53.5473 O.2       21 UNK        -0.5000 
    119 N         -2.0246  -18.3336  -55.0076 N.am      22 UNK        -0.5000 
    120 CA        -2.6037  -17.0193  -54.6632 C.3       22 UNK         0.1400 
    121 C         -4.1051  -16.8396  -55.0518 C.2       22 UNK         0.5000 
    122 N         -4.6733  -17.6812  -55.9062 N.am      22 UNK        -0.7600 
    123 O         -4.7587  -15.9003  -54.6055 O.2       22 UNK        -0.5000 
    124 C124       -2.3159  -16.5747  -53.2004 C.3       23 UNK        -0.0398 
    125 S125       -0.5357  -16.5759  -52.7933 S.3       23 UNK        -0.2404 
    126 C126       -0.5314  -17.6624  -51.3364 C.3       23 UNK        -0.0205 
    127 H127       -2.3176  -15.1707  -49.5603 H         1 UNK         0.0600 
    128 H128       -2.5242  -14.5339  -47.9251 H         1 UNK         0.0600 
    129 H129       -1.3972  -15.8652  -48.2280 H         1 UNK         0.0600 
    130 H130        0.4884  -14.7972  -47.4927 H         1 UNK         0.3000 
    131 H131        1.9414  -13.3267  -49.2985 H         1 UNK         0.0600 
    132 H132        2.6566  -13.3990  -46.3360 H         1 UNK         0.0800 
    133 H133        3.7337  -13.2196  -47.6905 H         1 UNK         0.0800 
    134 H134        4.6809  -16.0386  -49.0567 H         1 UNK         0.0800 
    135 H135        3.4865  -14.9485  -49.7000 H         1 UNK         0.0800 
    136 H136        1.1401  -15.8100  -50.2282 H         1 UNK         0.1150 
    137 H137        0.9052  -19.9717  -51.2165 H         1 UNK         0.1150 
    138 H138        4.3667  -18.4351  -49.2049 H         1 UNK         0.1150 
    139 H139        3.6745  -21.0051  -51.1630 H         1 UNK         0.0800 
    140 H140        4.1880  -20.7676  -49.5089 H         1 UNK         0.0800 
    141 H141        1.2097  -20.3701  -48.1021 H         1 UNK         0.0800 
    142 H142        2.4836  -21.3042  -47.3606 H         1 UNK         0.0800 
    143 H143        0.9066  -23.3355  -47.4783 H         1 UNK         0.0600 
    144 H144        0.8744  -21.2692  -45.5137 H         1 UNK         0.3000 
    145 H145       -0.8540  -23.3080  -43.0807 H         1 UNK         0.0600 
    146 H146        1.1754  -22.6496  -41.8426 H         1 UNK         0.0600 
    147 H147        1.9615  -22.1230  -43.3292 H         1 UNK         0.0600 
    148 H148        1.5994  -23.8270  -43.0757 H         1 UNK         0.0600 
    149 H149        0.0207  -20.6243  -42.9000 H         1 UNK         0.3000 
    150 H150       -3.0550  -19.0840  -43.9747 H         1 UNK         0.0600 
    151 H151       -1.5667  -19.3017  -41.3045 H         1 UNK         0.0600 
    152 H152       -3.2434  -19.7706  -41.5685 H         1 UNK         0.0600 
    153 H153       -2.7682  -18.0874  -41.7369 H         1 UNK         0.0600 
    154 H154       -0.6443  -17.8885  -43.1262 H         1 UNK         0.3000 
    155 H155        0.8390  -17.5081  -46.3991 H         1 UNK         0.0600 
    156 H156       -0.7192  -15.6408  -45.8780 H         1 UNK         0.0600 
    157 H157        0.9081  -15.2261  -45.3421 H         1 UNK         0.0600 
    158 H158       -0.3063  -15.7240  -44.1783 H         1 UNK         0.0600 
    159 H159        1.9675  -16.9042  -43.9077 H         1 UNK         0.3000 
    160 H160        3.5502  -20.0162  -43.1607 H         1 UNK         0.0600 
    161 H161        4.5589  -17.2577  -44.0459 H         1 UNK         0.0600 
    162 H162        5.0387  -18.8023  -44.7317 H         1 UNK         0.0600 
    163 H163        5.4651  -18.4156  -43.0712 H         1 UNK         0.0600 
    164 H164        3.3614  -17.4488  -41.8575 H         1 UNK         0.3000 
    165 H165        0.6443  -18.3054  -39.6986 H         1 UNK         0.0600 
    166 H166        2.3565  -17.6706  -38.0283 H         1 UNK         0.0600 
    167 H167        2.7206  -19.2582  -38.6853 H         1 UNK         0.0600 
    168 H168        3.6408  -17.8578  -39.2223 H         1 UNK         0.0600 
    169 H169        2.2434  -15.9430  -39.9722 H         1 UNK         0.3000 
    170 H170        0.1397  -14.2836  -42.3255 H         1 UNK         0.0600 
    171 H171        0.5311  -13.8125  -39.3267 H         1 UNK         0.0600 
    172 H172       -0.0444  -12.6370  -40.5100 H         1 UNK         0.0600 
    173 H173       -1.0228  -14.0426  -40.1216 H         1 UNK         0.0600 
    174 H174        2.2690  -13.1196  -41.1001 H         1 UNK         0.3000 
    175 H175        4.6273  -13.3438  -41.7325 H         1 UNK         0.0600 
    176 H176        4.8329  -14.4267  -44.5995 H         1 UNK         0.0600 
    177 H177        6.1017  -13.5628  -43.7324 H         1 UNK         0.0600 
    178 H178        5.5713  -15.1391  -43.1693 H         1 UNK         0.0600 
    179 H179        3.7202  -12.2580  -44.3287 H         1 UNK         0.3000 
    180 H180        1.9719   -9.5297  -42.8892 H         1 UNK         0.0600 
    181 H181        3.2986   -8.2955  -44.5801 H         1 UNK         0.0600 
    182 H182        4.4448   -9.6306  -44.7023 H         1 UNK         0.0600 
    183 H183        4.3131   -8.7108  -43.2082 H         1 UNK         0.0600 
    184 H184        2.2504  -10.4065  -45.5816 H         1 UNK         0.3000 
    185 H185        0.3683  -12.9456  -45.8840 H         1 UNK         0.0600 
    186 H186       -1.6655  -10.6644  -45.7400 H         1 UNK         0.0600 
    187 H187       -1.8278  -12.0790  -46.7761 H         1 UNK         0.0600 
    188 H188       -1.8331  -12.2674  -45.0322 H         1 UNK         0.0600 
    189 H189        0.5473  -10.1938  -47.0309 H         1 UNK         0.3000 
    190 H190       -1.4030  -20.6198  -46.8721 H         1 UNK         0.3000 
    191 H191       -3.0452  -21.0620  -49.1302 H         1 UNK         0.0600 
    192 H192       -3.2593  -19.0301  -47.7815 H         1 UNK         0.0600 
    193 H193       -3.7487  -19.9601  -46.3645 H         1 UNK         0.0600 
    194 H194       -4.7983  -19.8760  -47.7729 H         1 UNK         0.0600 
    195 H195       -3.1829  -22.5367  -45.8458 H         1 UNK         0.3000 
    196 H196       -5.4674  -24.1579  -46.2832 H         1 UNK         0.0600 
    197 H197       -4.5751  -23.6957  -44.0300 H         1 UNK         0.0600 
    198 H198       -3.0871  -24.5635  -44.3966 H         1 UNK         0.0600 
    199 H199       -4.6155  -25.4308  -44.3040 H         1 UNK         0.0600 
    200 H200       -1.9708  -24.8838  -46.7312 H         1 UNK         0.3000 
    201 H201       -2.2661  -27.5387  -47.6910 H         1 UNK         0.0600 
    202 H202       -0.1146  -26.5890  -46.8763 H         1 UNK         0.0600 
    203 H203       -0.0569  -25.4891  -48.2520 H         1 UNK         0.0600 
    204 H204        0.0650  -27.2250  -48.5051 H         1 UNK         0.0600 
    205 H205       -2.3663  -24.4142  -49.3767 H         1 UNK         0.3000 
    206 H206       -2.6845  -25.5381  -52.0285 H         1 UNK         0.0600 
    207 H207       -1.5116  -23.3841  -51.6367 H         1 UNK         0.0600 
    208 H208       -2.9815  -22.6808  -50.9684 H         1 UNK         0.0600 
    209 H209       -2.9086  -23.1322  -52.6640 H         1 UNK         0.0600 
    210 H210       -4.7822  -25.9801  -49.7235 H         1 UNK         0.3000 
    211 H211       -6.9241  -26.4649  -49.5485 H         1 UNK         0.0600 
    212 H212       -7.0332  -26.3198  -52.6081 H         1 UNK         0.0600 
    213 H213       -8.2012  -27.1149  -51.5638 H         1 UNK         0.0600 
    214 H214       -6.5579  -27.7268  -51.6602 H         1 UNK         0.0600 
    215 H215       -6.4495  -24.0285  -48.8235 H         1 UNK         0.3000 
    216 H216       -7.3649  -22.1461  -48.1428 H         1 UNK         0.0600 
    217 H217       -9.7494  -21.6331  -48.3713 H         1 UNK         0.0600 
    218 H218       -9.5634  -23.3320  -47.9669 H         1 UNK         0.0600 
    219 H219       -9.9548  -22.8519  -49.6180 H         1 UNK         0.0600 
    220 H220       -5.6092  -22.0909  -50.0554 H         1 UNK         0.3000 
    221 H221       -4.5808  -20.9234  -51.6348 H         1 UNK         0.0600 
    222 H222       -6.5526  -18.6874  -50.9320 H         1 UNK         0.0600 
    223 H223       -5.0408  -19.0338  -50.0919 H         1 UNK         0.0600 
    224 H224       -5.0140  -18.4872  -51.7582 H         1 UNK         0.0600 
    225 H225       -6.2184  -22.7595  -52.7315 H         1 UNK         0.3000 
    226 H226       -7.5604  -21.5215  -55.0813 H         1 UNK         0.0600 
    227 H227       -8.7773  -23.3248  -53.8842 H         1 UNK         0.0600 
    228 H228       -8.3287  -23.8440  -55.5028 H         1 UNK         0.0600 
    229 H229       -7.4217  -24.4245  -54.1108 H         1 UNK         0.0600 
    230 H230       -4.9266  -23.7879  -54.1692 H         1 UNK         0.3000 
    231 H231       -3.9982  -24.0947  -56.9128 H         1 UNK         0.0600 
    232 H232       -2.3572  -25.6126  -55.8992 H         1 UNK         0.0600 
    233 H233       -2.7362  -25.0282  -54.2879 H         1 UNK         0.0600 
    234 H234       -3.9378  -25.9381  -55.2035 H         1 UNK         0.0600 
    235 H235       -3.3536  -21.7629  -54.4348 H         1 UNK         0.3000 
    236 H236       -1.2365  -20.5118  -55.9972 H         1 UNK         0.0600 
    237 H237       -0.7821  -21.3577  -53.0712 H         1 UNK         0.0600 
    238 H238        0.0796  -22.0100  -54.4641 H         1 UNK         0.0600 
    239 H239        0.2839  -20.3233  -54.0123 H         1 UNK         0.0600 
    240 H240       -1.3328  -18.3161  -55.7431 H         1 UNK         0.3000 
    241 H241       -2.0833  -16.3108  -55.3084 H         1 UNK         0.0600 
    242 H242       -5.6445  -17.5603  -56.1458 H         1 UNK         0.3800 
    243 H243       -4.1561  -18.4570  -56.2855 H         1 UNK         0.3800 
    244 H244       -2.8640  -17.2043  -52.4983 H         1 UNK         0.0800 
    245 H245       -2.6775  -15.5589  -53.0331 H         1 UNK         0.0800 
    246 H246       -0.9831  -18.6190  -51.6057 H         1 UNK         0.0800 
    247 H247       -1.1623  -17.2304  -50.5590 H         1 UNK         0.0800 
@<TRIPOS>BOND
     1    1    2 1    
     2    1  127 1    
     3    1  128 1    
     4    1  129 1    
     5    2    3 2    
     6    2    4 am   BACKBONE|DICT|INTERRES
     7    4    5 1    
     8    4  130 1    
     9    5    6 1    
    10    5   65 1    
    11    5  131 1    
    12    6    7 1    
    13    6  132 1    
    14    6  133 1    
    15    7    8 1    
    16    8    9 1    
    17    8  134 1    
    18    8  135 1    
    19    9   10 ar   
    20    9   14 ar   
    21   10   11 ar   
    22   10  136 1    
    23   11   12 ar   
    24   11  126 1    
    25   12   13 ar   
    26   12  137 1    
    27   13   14 ar   
    28   13   15 1    
    29   14  138 1    
    30   15   16 1    
    31   15  139 1    
    32   15  140 1    
    33   16   17 1    
    34   17   18 1    
    35   17  141 1    
    36   17  142 1    
    37   18   19 1    
    38   18   67 1    
    39   18  143 1    
    40   19   20 am   BACKBONE|DICT|INTERRES
    41   19  144 1    
    42   20   21 2    
    43   20   22 1    
    44   22   23 1    
    45   22   24 1    
    46   22  145 1    
    47   23  146 1    
    48   23  147 1    
    49   23  148 1    
    50   24   25 am   BACKBONE|DICT|INTERRES
    51   24  149 1    
    52   25   26 2    
    53   25   27 1    
    54   27   28 1    
    55   27   29 1    
    56   27  150 1    
    57   28  151 1    
    58   28  152 1    
    59   28  153 1    
    60   29   30 am   BACKBONE|DICT|INTERRES
    61   29  154 1    
    62   30   31 2    
    63   30   32 1    
    64   32   33 1    
    65   32   34 1    
    66   32  155 1    
    67   33  156 1    
    68   33  157 1    
    69   33  158 1    
    70   34   35 am   BACKBONE|DICT|INTERRES
    71   34  159 1    
    72   35   36 2    
    73   35   37 1    
    74   37   38 1    
    75   37   39 1    
    76   37  160 1    
    77   38  161 1    
    78   38  162 1    
    79   38  163 1    
    80   39   40 am   BACKBONE|DICT|INTERRES
    81   39  164 1    
    82   40   41 2    
    83   40   42 1    
    84   42   43 1    
    85   42   44 1    
    86   42  165 1    
    87   43  166 1    
    88   43  167 1    
    89   43  168 1    
    90   44   45 am   BACKBONE|DICT|INTERRES
    91   44  169 1    
    92   45   46 2    
    93   45   47 1    
    94   47   48 1    
    95   47   49 1    
    96   47  170 1    
    97   48  171 1    
    98   48  172 1    
    99   48  173 1    
   100   49   50 am   BACKBONE|DICT|INTERRES
   101   49  174 1    
   102   50   51 2    
   103   50   52 1    
   104   52   53 1    
   105   52   54 1    
   106   52  175 1    
   107   53  176 1    
   108   53  177 1    
   109   53  178 1    
   110   54   55 am   BACKBONE|DICT|INTERRES
   111   54  179 1    
   112   55   56 2    
   113   55   57 1    
   114   57   58 1    
   115   57   59 1    
   116   57  180 1    
   117   58  181 1    
   118   58  182 1    
   119   58  183 1    
   120   59   60 am   BACKBONE|DICT|INTERRES
   121   59  184 1    
   122   60   61 2    
   123   60   62 1    
   124   62   63 1    
   125   62   64 1    
   126   62  185 1    
   127   63  186 1    
   128   63  187 1    
   129   63  188 1    
   130   64   65 am   BACKBONE|DICT|INTERRES
   131   64  189 1    
   132   65   66 2    
   133   67   68 2    
   134   67   69 am   BACKBONE|DICT|INTERRES
   135   69   70 1    
   136   69  190 1    
   137   70   71 1    
   138   70   72 1    
   139   70  191 1    
   140   71  192 1    
   141   71  193 1    
   142   71  194 1    
   143   72   73 2    
   144   72   74 am   BACKBONE|DICT|INTERRES
   145   74   75 1    
   146   74  195 1    
   147   75   76 1    
   148   75   77 1    
   149   75  196 1    
   150   76  197 1    
   151   76  198 1    
   152   76  199 1    
   153   77   78 2    
   154   77   79 am   BACKBONE|DICT|INTERRES
   155   79   80 1    
   156   79  200 1    
   157   80   81 1    
   158   80   82 1    
   159   80  201 1    
   160   81  202 1    
   161   81  203 1    
   162   81  204 1    
   163   82   83 2    
   164   82   84 am   BACKBONE|DICT|INTERRES
   165   84   85 1    
   166   84  205 1    
   167   85   86 1    
   168   85   87 1    
   169   85  206 1    
   170   86  207 1    
   171   86  208 1    
   172   86  209 1    
   173   87   88 2    
   174   87   89 am   BACKBONE|DICT|INTERRES
   175   89   90 1    
   176   89  210 1    
   177   90   91 1    
   178   90   92 1    
   179   90  211 1    
   180   91  212 1    
   181   91  213 1    
   182   91  214 1    
   183   92   93 2    
   184   92   94 am   BACKBONE|DICT|INTERRES
   185   94   95 1    
   186   94  215 1    
   187   95   96 1    
   188   95   97 1    
   189   95  216 1    
   190   96  217 1    
   191   96  218 1    
   192   96  219 1    
   193   97   98 2    
   194   97   99 am   BACKBONE|DICT|INTERRES
   195   99  100 1    
   196   99  220 1    
   197  100  101 1    
   198  100  102 1    
   199  100  221 1    
   200  101  222 1    
   201  101  223 1    
   202  101  224 1    
   203  102  103 2    
   204  102  104 am   BACKBONE|DICT|INTERRES
   205  104  105 1    
   206  104  225 1    
   207  105  106 1    
   208  105  107 1    
   209  105  226 1    
   210  106  227 1    
   211  106  228 1    
   212  106  229 1    
   213  107  108 2    
   214  107  109 am   BACKBONE|DICT|INTERRES
   215  109  110 1    
   216  109  230 1    
   217  110  111 1    
   218  110  112 1    
   219  110  231 1    
   220  111  232 1    
   221  111  233 1    
   222  111  234 1    
   223  112  113 2    
   224  112  114 am   BACKBONE|DICT|INTERRES
   225  114  115 1    
   226  114  235 1    
   227  115  116 1    
   228  115  117 1    
   229  115  236 1    
   230  116  237 1    
   231  116  238 1    
   232  116  239 1    
   233  117  118 2    
   234  117  119 am   BACKBONE|DICT|INTERRES
   235  119  120 1    
   236  119  240 1    
   237  120  121 1    
   238  120  124 1    
   239  120  241 1    
   240  121  122 am   BACKBONE|DICT|INTERRES
   241  121  123 2    
   242  122  242 1    
   243  122  243 1    
   244  124  125 1    
   245  124  244 1    
   246  124  245 1    
   247  125  126 1    
   248  126  246 1    
   249  126  247 1    
@<TRIPOS>SUBSTRUCTURE
     1 UNK         1 GROUP             0       ****    0 ROOT    
