@<TRIPOS>MOLECULE
3R540
247   249    1
SMALL
USER_CHARGES


@<TRIPOS>ATOM
      1 CA          5.5511   -9.0484  -53.5181 C.3       0 UNK        -0.1800 
      2 C           5.3295  -10.0662  -52.4079 C.2       0 UNK         0.5000 
      3 O           6.1579  -10.1761  -51.5035 O.2       0 UNK        -0.5000 
      4 N           4.2217  -10.8147  -52.4772 N.am      1 UNK        -0.5000 
      5 CA          3.8048  -11.7912  -51.4682 C.3       1 UNK         0.1400 
      6 C6          2.7174  -12.7394  -52.0312 C.3       23 UNK        -0.0398 
      7 S7          2.4206  -14.2199  -51.0019 S.3       23 UNK        -0.2404 
      8 C8          3.6399  -15.3872  -51.6819 C.3       23 UNK        -0.0205 
      9 C9          3.2163  -16.8284  -51.4451 C.ar      23 UNK        -0.0193 
     10 C10         2.4628  -17.4978  -52.4140 C.ar      23 UNK        -0.1150 
     11 C11         2.0850  -18.8293  -52.2243 C.ar      23 UNK        -0.0193 
     12 C12         2.4646  -19.4917  -51.0548 C.ar      23 UNK        -0.1150 
     13 C13         3.2017  -18.8296  -50.0694 C.ar      23 UNK        -0.0193 
     14 C14         3.5817  -17.4983  -50.2724 C.ar      23 UNK        -0.1150 
     15 C15         3.5937  -19.5633  -48.7947 C.3       23 UNK        -0.0205 
     16 S16         2.6104  -19.0453  -47.3507 S.3       23 UNK        -0.2404 
     17 C17         0.9166  -19.5487  -47.8087 C.3       23 UNK        -0.0398 
     18 CA          0.5610  -20.9999  -47.3999 C.3       11 UNK         0.1400 
     19 N           0.5958  -21.2276  -45.9488 N.am      11 UNK        -0.5000 
     20 C           0.4178  -22.4194  -45.3568 C.2       10 UNK         0.5000 
     21 O           0.2815  -23.4750  -45.9760 O.2       10 UNK        -0.5000 
     22 CA          0.3110  -22.4358  -43.8196 C.3       10 UNK         0.1400 
     23 CB          1.6976  -22.4381  -43.1586 C.3       10 UNK        -0.1800 
     24 N          -0.4967  -21.3291  -43.3026 N.am      10 UNK        -0.5000 
     25 C          -1.8159  -21.2041  -43.5101 C.2       9 UNK         0.5000 
     26 O          -2.4907  -22.0393  -44.1097 O.2       9 UNK        -0.5000 
     27 CA         -2.4930  -19.9141  -43.0111 C.3       9 UNK         0.1400 
     28 CB         -2.8673  -20.0298  -41.5265 C.3       9 UNK        -0.1800 
     29 N          -1.6693  -18.7249  -43.2263 N.am      9 UNK        -0.5000 
     30 C          -1.3050  -18.2665  -44.4330 C.2       8 UNK         0.5000 
     31 O          -1.6909  -18.7558  -45.4947 O.2       8 UNK        -0.5000 
     32 CA         -0.2915  -17.1085  -44.4580 C.3       8 UNK         0.1400 
     33 CB         -0.9995  -15.7597  -44.2621 C.3       8 UNK        -0.1800 
     34 N           0.7563  -17.2615  -43.4490 N.am      8 UNK        -0.5000 
     35 C           1.6251  -18.2788  -43.3877 C.2       7 UNK         0.5000 
     36 O           1.6599  -19.1913  -44.2088 O.2       7 UNK        -0.5000 
     37 CA          2.5605  -18.3261  -42.1682 C.3       7 UNK         0.1400 
     38 CB          3.7744  -17.4013  -42.3407 C.3       7 UNK        -0.1800 
     39 N           1.8553  -17.9875  -40.9339 N.am      7 UNK        -0.5000 
     40 C           0.9749  -18.7916  -40.3244 C.2       6 UNK         0.5000 
     41 O           0.6975  -19.9239  -40.7206 O.2       6 UNK        -0.5000 
     42 CA          0.2703  -18.2232  -39.0781 C.3       6 UNK         0.1400 
     43 CB          1.1255  -18.4525  -37.8230 C.3       6 UNK        -0.1800 
     44 N          -0.0378  -16.7958  -39.1994 N.am      6 UNK        -0.5000 
     45 C          -0.9625  -16.2958  -40.0305 C.2       5 UNK         0.5000 
     46 O          -1.6550  -16.9886  -40.7762 O.2       5 UNK        -0.5000 
     47 CA         -1.1052  -14.7602  -40.0695 C.3       5 UNK         0.1400 
     48 CB         -1.9811  -14.2704  -38.9066 C.3       5 UNK        -0.1800 
     49 N           0.1657  -14.0222  -40.0674 N.am      5 UNK        -0.5000 
     50 C           1.1564  -14.2073  -40.9494 C.2       4 UNK         0.5000 
     51 O           1.1540  -15.1094  -41.7867 O.2       4 UNK        -0.5000 
     52 CA          2.3681  -13.2590  -40.8723 C.3       4 UNK         0.1400 
     53 CB          3.3051  -13.6837  -39.7309 C.3       4 UNK        -0.1800 
     54 N           3.1187  -13.2888  -42.1305 N.am      4 UNK        -0.5000 
     55 C           2.6922  -12.7508  -43.2797 C.2       3 UNK         0.5000 
     56 O           1.7338  -11.9774  -43.3683 O.2       3 UNK        -0.5000 
     57 CA          3.4389  -13.1882  -44.5472 C.3       3 UNK         0.1400 
     58 CB          2.9273  -14.5612  -45.0311 C.3       3 UNK        -0.1800 
     59 N           3.2342  -12.1906  -45.5915 N.am      3 UNK        -0.5000 
     60 C           3.9520  -12.0938  -46.7126 C.2       2 UNK         0.5000 
     61 O           4.9145  -12.8202  -46.9791 O.2       2 UNK        -0.5000 
     62 CA          3.5292  -11.0066  -47.7080 C.3       2 UNK         0.1400 
     63 CB          4.2341   -9.6711  -47.4107 C.3       2 UNK        -0.1800 
     64 N           3.8773  -11.4773  -49.0420 N.am      2 UNK        -0.5000 
     65 C           3.3341  -11.0660  -50.1895 C.2       1 UNK         0.5000 
     66 O           2.4903  -10.1693  -50.2701 O.2       1 UNK        -0.5000 
     67 C          -0.8029  -21.3973  -48.0012 C.2       11 UNK         0.5000 
     68 O          -0.8352  -22.1052  -49.0071 O.2       11 UNK        -0.5000 
     69 N          -1.8977  -20.9752  -47.3505 N.am      12 UNK        -0.5000 
     70 CA         -3.2658  -21.3259  -47.7282 C.3       12 UNK         0.1400 
     71 CB         -4.2686  -20.5158  -46.8946 C.3       12 UNK        -0.1800 
     72 C          -3.5454  -22.8331  -47.6140 C.2       12 UNK         0.5000 
     73 O          -4.1343  -23.4025  -48.5311 O.2       12 UNK        -0.5000 
     74 N          -3.0957  -23.4643  -46.5201 N.am      13 UNK        -0.5000 
     75 CA         -3.2065  -24.9061  -46.2854 C.3       13 UNK         0.1400 
     76 CB         -2.7206  -25.2454  -44.8690 C.3       13 UNK        -0.1800 
     77 C          -2.4556  -25.7421  -47.3374 C.2       13 UNK         0.5000 
     78 O          -3.0094  -26.7223  -47.8369 O.2       13 UNK        -0.5000 
     79 N          -1.2407  -25.3068  -47.7030 N.am      14 UNK        -0.5000 
     80 CA         -0.4364  -25.8866  -48.7836 C.3       14 UNK         0.1400 
     81 CB          0.9608  -25.2482  -48.7776 C.3       14 UNK        -0.1800 
     82 C          -1.0955  -25.7468  -50.1717 C.2       14 UNK         0.5000 
     83 O          -0.9064  -26.6125  -51.0261 O.2       14 UNK        -0.5000 
     84 N          -1.8954  -24.6888  -50.3496 N.am      15 UNK        -0.5000 
     85 CA         -2.7189  -24.4121  -51.5257 C.3       15 UNK         0.1400 
     86 CB         -2.7776  -22.8901  -51.7212 C.3       15 UNK        -0.1800 
     87 C          -4.1313  -25.0346  -51.4306 C.2       15 UNK         0.5000 
     88 O          -5.0423  -24.5727  -52.1205 O.2       15 UNK        -0.5000 
     89 N          -4.2962  -26.0603  -50.5797 N.am      16 UNK        -0.5000 
     90 CA         -5.5102  -26.8531  -50.3542 C.3       16 UNK         0.1400 
     91 CB         -5.8688  -27.6701  -51.6131 C.3       16 UNK        -0.1800 
     92 C          -6.6872  -26.0152  -49.8144 C.2       16 UNK         0.5000 
     93 O          -7.8156  -26.1493  -50.2893 O.2       16 UNK        -0.5000 
     94 N          -6.3823  -25.1602  -48.8285 N.am      17 UNK        -0.5000 
     95 CA         -7.2566  -24.1554  -48.2143 C.3       17 UNK         0.1400 
     96 CB         -8.4848  -24.7986  -47.5358 C.3       17 UNK        -0.1800 
     97 C          -7.6093  -23.0307  -49.2086 C.2       17 UNK         0.5000 
     98 O          -8.7659  -22.6132  -49.2900 O.2       17 UNK        -0.5000 
     99 N          -6.5824  -22.5704  -49.9403 N.am      18 UNK        -0.5000 
    100 CA        -6.6086  -21.5305  -50.9733 C.3       18 UNK         0.1400 
    101 CB        -6.8531  -20.1484  -50.3332 C.3       18 UNK        -0.1800 
    102 C         -7.6005  -21.8541  -52.1097 C.2       18 UNK         0.5000 
    103 O         -8.4787  -21.0459  -52.4215 O.2       18 UNK        -0.5000 
    104 N         -7.4591  -23.0514  -52.6938 N.am      19 UNK        -0.5000 
    105 CA        -8.3196  -23.5943  -53.7467 C.3       19 UNK         0.1400 
    106 CB        -8.0945  -25.1138  -53.8318 C.3       19 UNK        -0.1800 
    107 C         -8.0865  -22.8920  -55.1003 C.2       19 UNK         0.5000 
    108 O         -7.4245  -23.4495  -55.9778 O.2       19 UNK        -0.5000 
    109 N         -8.6120  -21.6630  -55.2205 N.am      20 UNK        -0.5000 
    110 CA        -8.4286  -20.7174  -56.3303 C.3       20 UNK         0.1400 
    111 CB        -9.1020  -21.2364  -57.6180 C.3       20 UNK        -0.1800 
    112 C         -6.9399  -20.3574  -56.5183 C.2       20 UNK         0.5000 
    113 O         -6.4166  -20.3906  -57.6340 O.2       20 UNK        -0.5000 
    114 N         -6.2789  -20.0673  -55.3935 N.am      21 UNK        -0.5000 
    115 CA        -4.8369  -19.9031  -55.2657 C.3       21 UNK         0.1400 
    116 CB        -4.1905  -21.2994  -55.1559 C.3       21 UNK        -0.1800 
    117 C         -4.5237  -19.0091  -54.0529 C.2       21 UNK         0.5000 
    118 O         -5.4403  -18.4452  -53.4489 O.2       21 UNK        -0.5000 
    119 N         -3.2298  -18.8849  -53.7399 N.am      22 UNK        -0.5000 
    120 CA        -2.6671  -18.1547  -52.5928 C.3       22 UNK         0.1400 
    121 C         -3.2144  -18.5931  -51.2019 C.2       22 UNK         0.5000 
    122 N         -3.1803  -17.7102  -50.2121 N.am      22 UNK        -0.7600 
    123 O         -3.6401  -19.7255  -51.0013 O.2       22 UNK        -0.5000 
    124 C124       -1.1154  -18.1946  -52.6257 C.3       23 UNK        -0.0398 
    125 S125       -0.4259  -19.8871  -52.7154 S.3       23 UNK        -0.2404 
    126 C126        1.2708  -19.5586  -53.2811 C.3       23 UNK        -0.0205 
    127 H127        5.6050   -8.0433  -53.0999 H         1 UNK         0.0600 
    128 H128        6.4884   -9.2546  -54.0349 H         1 UNK         0.0600 
    129 H129        4.7462   -9.0680  -54.2533 H         1 UNK         0.0600 
    130 H130        3.5656  -10.6522  -53.2277 H         1 UNK         0.3000 
    131 H131        4.6813  -12.3967  -51.2257 H         1 UNK         0.0600 
    132 H132        1.7704  -12.2097  -52.1504 H         1 UNK         0.0800 
    133 H133        2.9918  -13.0674  -53.0346 H         1 UNK         0.0800 
    134 H134        4.6130  -15.1989  -51.2259 H         1 UNK         0.0800 
    135 H135        3.7667  -15.2206  -52.7525 H         1 UNK         0.0800 
    136 H136        2.1730  -16.9806  -53.3180 H         1 UNK         0.1150 
    137 H137        2.1685  -20.5212  -50.9074 H         1 UNK         0.1150 
    138 H138        4.1564  -16.9835  -49.5151 H         1 UNK         0.1150 
    139 H139        3.4978  -20.6425  -48.9237 H         1 UNK         0.0800 
    140 H140        4.6478  -19.3765  -48.5850 H         1 UNK         0.0800 
    141 H141        0.7815  -19.4059  -48.8812 H         1 UNK         0.0800 
    142 H142        0.2291  -18.8465  -47.3366 H         1 UNK         0.0800 
    143 H143        1.3073  -21.6624  -47.8434 H         1 UNK         0.0600 
    144 H144        0.7785  -20.4158  -45.3637 H         1 UNK         0.3000 
    145 H145       -0.1876  -23.3647  -43.5354 H         1 UNK         0.0600 
    146 H146        1.6165  -22.4679  -42.0719 H         1 UNK         0.0600 
    147 H147        2.2704  -23.3134  -43.4670 H         1 UNK         0.0600 
    148 H148        2.2818  -21.5588  -43.4259 H         1 UNK         0.0600 
    149 H149       -0.0092  -20.6071  -42.7872 H         1 UNK         0.3000 
    150 H150       -3.4154  -19.7846  -43.5809 H         1 UNK         0.0600 
    151 H151       -3.4978  -20.9021  -41.3500 H         1 UNK         0.0600 
    152 H152       -3.4233  -19.1540  -41.1914 H         1 UNK         0.0600 
    153 H153       -1.9858  -20.1283  -40.8933 H         1 UNK         0.0600 
    154 H154       -1.3576  -18.2288  -42.3982 H         1 UNK         0.3000 
    155 H155        0.1908  -17.1048  -45.4375 H         1 UNK         0.0600 
    156 H156       -1.4955  -15.7037  -43.2928 H         1 UNK         0.0600 
    157 H157       -1.7575  -15.6016  -45.0301 H         1 UNK         0.0600 
    158 H158       -0.2953  -14.9299  -44.3222 H         1 UNK         0.0600 
    159 H159        0.8223  -16.5238  -42.7481 H         1 UNK         0.3000 
    160 H160        2.9333  -19.3494  -42.0841 H         1 UNK         0.0600 
    161 H161        4.5210  -17.5924  -41.5699 H         1 UNK         0.0600 
    162 H162        3.4962  -16.3508  -42.2745 H         1 UNK         0.0600 
    163 H163        4.2562  -17.5593  -43.3066 H         1 UNK         0.0600 
    164 H164        1.9689  -17.0455  -40.5896 H         1 UNK         0.3000 
    165 H165       -0.6691  -18.7660  -38.9530 H         1 UNK         0.0600 
    166 H166        0.6023  -18.1251  -36.9244 H         1 UNK         0.0600 
    167 H167        1.3557  -19.5112  -37.6962 H         1 UNK         0.0600 
    168 H168        2.0728  -17.9144  -37.8757 H         1 UNK         0.0600 
    169 H169        0.4955  -16.1578  -38.6272 H         1 UNK         0.3000 
    170 H170       -1.6165  -14.5113  -41.0017 H         1 UNK         0.0600 
    171 H171       -2.9400  -14.7906  -38.8931 H         1 UNK         0.0600 
    172 H172       -1.5019  -14.4399  -37.9416 H         1 UNK         0.0600 
    173 H173       -2.1935  -13.2047  -38.9939 H         1 UNK         0.0600 
    174 H174        0.2476  -13.2757  -39.3922 H         1 UNK         0.3000 
    175 H175        2.0126  -12.2429  -40.6894 H         1 UNK         0.0600 
    176 H176        3.6714  -14.7024  -39.8668 H         1 UNK         0.0600 
    177 H177        4.1698  -13.0231  -39.6653 H         1 UNK         0.0600 
    178 H178        2.7955  -13.6441  -38.7674 H         1 UNK         0.0600 
    179 H179        3.9008  -13.9256  -42.1590 H         1 UNK         0.3000 
    180 H180        4.5041  -13.2519  -44.3148 H         1 UNK         0.0600 
    181 H181        1.8885  -14.5078  -45.3576 H         1 UNK         0.0600 
    182 H182        2.9782  -15.3073  -44.2405 H         1 UNK         0.0600 
    183 H183        3.5188  -14.9394  -45.8648 H         1 UNK         0.0600 
    184 H184        2.4763  -11.5454  -45.4034 H         1 UNK         0.3000 
    185 H185        2.4469  -10.8745  -47.6442 H         1 UNK         0.0600 
    186 H186        3.9991   -9.3203  -46.4052 H         1 UNK         0.0600 
    187 H187        5.3184   -9.7662  -47.4820 H         1 UNK         0.0600 
    188 H188        3.9206   -8.8929  -48.1067 H         1 UNK         0.0600 
    189 H189        4.5481  -12.2365  -49.0383 H         1 UNK         0.3000 
    190 H190       -1.7889  -20.3565  -46.5512 H         1 UNK         0.3000 
    191 H191       -3.3994  -21.0493  -48.7745 H         1 UNK         0.0600 
    192 H192       -4.1752  -20.7293  -45.8299 H         1 UNK         0.0600 
    193 H193       -5.2938  -20.7454  -47.1881 H         1 UNK         0.0600 
    194 H194       -4.1217  -19.4449  -47.0348 H         1 UNK         0.0600 
    195 H195       -2.6715  -22.9157  -45.7763 H         1 UNK         0.3000 
    196 H196       -4.2644  -25.1686  -46.3494 H         1 UNK         0.0600 
    197 H197       -2.8158  -26.3132  -44.6685 H         1 UNK         0.0600 
    198 H198       -3.3069  -24.7199  -44.1151 H         1 UNK         0.0600 
    199 H199       -1.6741  -24.9764  -44.7267 H         1 UNK         0.0600 
    200 H200       -0.8376  -24.5122  -47.2134 H         1 UNK         0.3000 
    201 H201       -0.3243  -26.9532  -48.5791 H         1 UNK         0.0600 
    202 H202        1.4619  -25.4059  -47.8224 H         1 UNK         0.0600 
    203 H203        0.9135  -24.1737  -48.9559 H         1 UNK         0.0600 
    204 H204        1.5929  -25.6827  -49.5530 H         1 UNK         0.0600 
    205 H205       -1.9689  -24.0153  -49.5966 H         1 UNK         0.3000 
    206 H206       -2.2410  -24.8428  -52.4075 H         1 UNK         0.0600 
    207 H207       -1.7775  -22.4616  -51.7826 H         1 UNK         0.0600 
    208 H208       -3.2968  -22.6273  -52.6404 H         1 UNK         0.0600 
    209 H209       -3.2960  -22.4004  -50.8978 H         1 UNK         0.0600 
    210 H210       -3.5047  -26.3212  -50.0056 H         1 UNK         0.3000 
    211 H211       -5.2634  -27.5647  -49.5651 H         1 UNK         0.0600 
    212 H212       -6.1567  -27.0286  -52.4456 H         1 UNK         0.0600 
    213 H213       -6.7029  -28.3449  -51.4173 H         1 UNK         0.0600 
    214 H214       -5.0273  -28.2819  -51.9378 H         1 UNK         0.0600 
    215 H215       -5.4023  -25.0639  -48.5893 H         1 UNK         0.3000 
    216 H216       -6.6678  -23.6852  -47.4255 H         1 UNK         0.0600 
    217 H217       -9.0346  -24.0598  -46.9518 H         1 UNK         0.0600 
    218 H218       -8.1867  -25.5946  -46.8536 H         1 UNK         0.0600 
    219 H219       -9.1814  -25.2196  -48.2609 H         1 UNK         0.0600 
    220 H220       -5.6741  -22.9873  -49.7646 H         1 UNK         0.3000 
    221 H221       -5.6168  -21.5168  -51.4266 H         1 UNK         0.0600 
    222 H222       -7.8425  -20.0764  -49.8809 H         1 UNK         0.0600 
    223 H223       -6.1132  -19.9378  -49.5611 H         1 UNK         0.0600 
    224 H224       -6.7728  -19.3566  -51.0788 H         1 UNK         0.0600 
    225 H225       -6.6800  -23.6409  -52.4081 H         1 UNK         0.3000 
    226 H226       -9.3610  -23.4309  -53.4620 H         1 UNK         0.0600 
    227 H227       -8.3524  -25.6024  -52.8926 H         1 UNK         0.0600 
    228 H228       -8.7152  -25.5595  -54.6099 H         1 UNK         0.0600 
    229 H229       -7.0553  -25.3545  -54.0595 H         1 UNK         0.0600 
    230 H230       -9.0530  -21.2807  -54.3902 H         1 UNK         0.3000 
    231 H231       -8.9353  -19.7955  -56.0412 H         1 UNK         0.0600 
    232 H232      -10.1523  -21.4715  -57.4457 H         1 UNK         0.0600 
    233 H233       -8.6157  -22.1344  -57.9999 H         1 UNK         0.0600 
    234 H234       -9.0631  -20.4845  -58.4070 H         1 UNK         0.0600 
    235 H235       -6.7910  -19.9746  -54.5259 H         1 UNK         0.3000 
    236 H236       -4.4488  -19.3923  -56.1492 H         1 UNK         0.0600 
    237 H237       -3.1110  -21.2463  -55.0127 H         1 UNK         0.0600 
    238 H238       -4.6135  -21.8615  -54.3232 H         1 UNK         0.0600 
    239 H239       -4.3616  -21.8822  -56.0612 H         1 UNK         0.0600 
    240 H240       -2.5551  -19.4154  -54.2705 H         1 UNK         0.3000 
    241 H241       -2.9712  -17.1149  -52.7260 H         1 UNK         0.0600 
    242 H242       -3.5233  -17.9872  -49.3072 H         1 UNK         0.3800 
    243 H243       -2.8385  -16.7718  -50.3465 H         1 UNK         0.3800 
    244 H244       -0.7636  -17.6354  -53.4936 H         1 UNK         0.0800 
    245 H245       -0.6906  -17.6865  -51.7579 H         1 UNK         0.0800 
    246 H246        1.7550  -20.5084  -53.5123 H         1 UNK         0.0800 
    247 H247        1.2421  -18.9947  -54.2148 H         1 UNK         0.0800 
@<TRIPOS>BOND
     1    1    2 1    
     2    1  127 1    
     3    1  128 1    
     4    1  129 1    
     5    2    3 2    
     6    2    4 am   BACKBONE|DICT|INTERRES
     7    4    5 1    
     8    4  130 1    
     9    5    6 1    
    10    5   65 1    
    11    5  131 1    
    12    6    7 1    
    13    6  132 1    
    14    6  133 1    
    15    7    8 1    
    16    8    9 1    
    17    8  134 1    
    18    8  135 1    
    19    9   10 ar   
    20    9   14 ar   
    21   10   11 ar   
    22   10  136 1    
    23   11   12 ar   
    24   11  126 1    
    25   12   13 ar   
    26   12  137 1    
    27   13   14 ar   
    28   13   15 1    
    29   14  138 1    
    30   15   16 1    
    31   15  139 1    
    32   15  140 1    
    33   16   17 1    
    34   17   18 1    
    35   17  141 1    
    36   17  142 1    
    37   18   19 1    
    38   18   67 1    
    39   18  143 1    
    40   19   20 am   BACKBONE|DICT|INTERRES
    41   19  144 1    
    42   20   21 2    
    43   20   22 1    
    44   22   23 1    
    45   22   24 1    
    46   22  145 1    
    47   23  146 1    
    48   23  147 1    
    49   23  148 1    
    50   24   25 am   BACKBONE|DICT|INTERRES
    51   24  149 1    
    52   25   26 2    
    53   25   27 1    
    54   27   28 1    
    55   27   29 1    
    56   27  150 1    
    57   28  151 1    
    58   28  152 1    
    59   28  153 1    
    60   29   30 am   BACKBONE|DICT|INTERRES
    61   29  154 1    
    62   30   31 2    
    63   30   32 1    
    64   32   33 1    
    65   32   34 1    
    66   32  155 1    
    67   33  156 1    
    68   33  157 1    
    69   33  158 1    
    70   34   35 am   BACKBONE|DICT|INTERRES
    71   34  159 1    
    72   35   36 2    
    73   35   37 1    
    74   37   38 1    
    75   37   39 1    
    76   37  160 1    
    77   38  161 1    
    78   38  162 1    
    79   38  163 1    
    80   39   40 am   BACKBONE|DICT|INTERRES
    81   39  164 1    
    82   40   41 2    
    83   40   42 1    
    84   42   43 1    
    85   42   44 1    
    86   42  165 1    
    87   43  166 1    
    88   43  167 1    
    89   43  168 1    
    90   44   45 am   BACKBONE|DICT|INTERRES
    91   44  169 1    
    92   45   46 2    
    93   45   47 1    
    94   47   48 1    
    95   47   49 1    
    96   47  170 1    
    97   48  171 1    
    98   48  172 1    
    99   48  173 1    
   100   49   50 am   BACKBONE|DICT|INTERRES
   101   49  174 1    
   102   50   51 2    
   103   50   52 1    
   104   52   53 1    
   105   52   54 1    
   106   52  175 1    
   107   53  176 1    
   108   53  177 1    
   109   53  178 1    
   110   54   55 am   BACKBONE|DICT|INTERRES
   111   54  179 1    
   112   55   56 2    
   113   55   57 1    
   114   57   58 1    
   115   57   59 1    
   116   57  180 1    
   117   58  181 1    
   118   58  182 1    
   119   58  183 1    
   120   59   60 am   BACKBONE|DICT|INTERRES
   121   59  184 1    
   122   60   61 2    
   123   60   62 1    
   124   62   63 1    
   125   62   64 1    
   126   62  185 1    
   127   63  186 1    
   128   63  187 1    
   129   63  188 1    
   130   64   65 am   BACKBONE|DICT|INTERRES
   131   64  189 1    
   132   65   66 2    
   133   67   68 2    
   134   67   69 am   BACKBONE|DICT|INTERRES
   135   69   70 1    
   136   69  190 1    
   137   70   71 1    
   138   70   72 1    
   139   70  191 1    
   140   71  192 1    
   141   71  193 1    
   142   71  194 1    
   143   72   73 2    
   144   72   74 am   BACKBONE|DICT|INTERRES
   145   74   75 1    
   146   74  195 1    
   147   75   76 1    
   148   75   77 1    
   149   75  196 1    
   150   76  197 1    
   151   76  198 1    
   152   76  199 1    
   153   77   78 2    
   154   77   79 am   BACKBONE|DICT|INTERRES
   155   79   80 1    
   156   79  200 1    
   157   80   81 1    
   158   80   82 1    
   159   80  201 1    
   160   81  202 1    
   161   81  203 1    
   162   81  204 1    
   163   82   83 2    
   164   82   84 am   BACKBONE|DICT|INTERRES
   165   84   85 1    
   166   84  205 1    
   167   85   86 1    
   168   85   87 1    
   169   85  206 1    
   170   86  207 1    
   171   86  208 1    
   172   86  209 1    
   173   87   88 2    
   174   87   89 am   BACKBONE|DICT|INTERRES
   175   89   90 1    
   176   89  210 1    
   177   90   91 1    
   178   90   92 1    
   179   90  211 1    
   180   91  212 1    
   181   91  213 1    
   182   91  214 1    
   183   92   93 2    
   184   92   94 am   BACKBONE|DICT|INTERRES
   185   94   95 1    
   186   94  215 1    
   187   95   96 1    
   188   95   97 1    
   189   95  216 1    
   190   96  217 1    
   191   96  218 1    
   192   96  219 1    
   193   97   98 2    
   194   97   99 am   BACKBONE|DICT|INTERRES
   195   99  100 1    
   196   99  220 1    
   197  100  101 1    
   198  100  102 1    
   199  100  221 1    
   200  101  222 1    
   201  101  223 1    
   202  101  224 1    
   203  102  103 2    
   204  102  104 am   BACKBONE|DICT|INTERRES
   205  104  105 1    
   206  104  225 1    
   207  105  106 1    
   208  105  107 1    
   209  105  226 1    
   210  106  227 1    
   211  106  228 1    
   212  106  229 1    
   213  107  108 2    
   214  107  109 am   BACKBONE|DICT|INTERRES
   215  109  110 1    
   216  109  230 1    
   217  110  111 1    
   218  110  112 1    
   219  110  231 1    
   220  111  232 1    
   221  111  233 1    
   222  111  234 1    
   223  112  113 2    
   224  112  114 am   BACKBONE|DICT|INTERRES
   225  114  115 1    
   226  114  235 1    
   227  115  116 1    
   228  115  117 1    
   229  115  236 1    
   230  116  237 1    
   231  116  238 1    
   232  116  239 1    
   233  117  118 2    
   234  117  119 am   BACKBONE|DICT|INTERRES
   235  119  120 1    
   236  119  240 1    
   237  120  121 1    
   238  120  124 1    
   239  120  241 1    
   240  121  122 am   BACKBONE|DICT|INTERRES
   241  121  123 2    
   242  122  242 1    
   243  122  243 1    
   244  124  125 1    
   245  124  244 1    
   246  124  245 1    
   247  125  126 1    
   248  126  246 1    
   249  126  247 1    
@<TRIPOS>SUBSTRUCTURE
     1 UNK         1 GROUP             0       ****    0 ROOT    
