@<TRIPOS>MOLECULE
3R540
247   249    1
SMALL
USER_CHARGES


@<TRIPOS>ATOM
      1 CA          3.3031  -16.2029  -48.3147 C.3       0 UNK        -0.1800 
      2 C           2.6417  -15.2085  -47.3732 C.2       0 UNK         0.5000 
      3 O           2.4923  -15.4894  -46.1876 O.2       0 UNK        -0.5000 
      4 N           2.2541  -14.0354  -47.8863 N.am      1 UNK        -0.5000 
      5 CA          1.5132  -12.9906  -47.1622 C.3       1 UNK         0.1400 
      6 C6          0.9880  -11.8959  -48.1237 C.3       23 UNK        -0.0398 
      7 S7         -0.4052  -12.5014  -49.1387 S.3       23 UNK        -0.2404 
      8 C8          0.4294  -13.2087  -50.5984 C.3       23 UNK        -0.0205 
      9 C9         -0.2119  -14.5256  -51.0171 C.ar      23 UNK        -0.0193 
     10 C10        -0.8482  -14.6445  -52.2563 C.ar      23 UNK        -0.1150 
     11 C11        -1.4506  -15.8496  -52.6296 C.ar      23 UNK        -0.0193 
     12 C12        -1.4155  -16.9390  -51.7558 C.ar      23 UNK        -0.1150 
     13 C13        -0.7879  -16.8358  -50.5105 C.ar      23 UNK        -0.0193 
     14 C14        -0.1803  -15.6279  -50.1561 C.ar      23 UNK        -0.1150 
     15 C15        -0.8487  -17.9650  -49.4874 C.3       23 UNK        -0.0205 
     16 S16        -0.7633  -19.6563  -50.1762 S.3       23 UNK        -0.2404 
     17 C17        -1.7765  -20.5287  -48.9340 C.3       23 UNK        -0.0398 
     18 CA         -1.3036  -21.9575  -48.5711 C.3       11 UNK         0.1400 
     19 N           0.1059  -22.0124  -48.1729 N.am      11 UNK        -0.5000 
     20 C           0.7709  -23.1222  -47.8126 C.2       10 UNK         0.5000 
     21 O           0.2877  -24.2522  -47.8480 O.2       10 UNK        -0.5000 
     22 CA          2.1960  -22.9301  -47.2564 C.3       10 UNK         0.1400 
     23 CB          3.2318  -23.0388  -48.3846 C.3       10 UNK        -0.1800 
     24 N           2.3742  -21.6547  -46.5574 N.am      10 UNK        -0.5000 
     25 C           1.6639  -21.2527  -45.4941 C.2       9 UNK         0.5000 
     26 O           0.8152  -21.9503  -44.9313 O.2       9 UNK        -0.5000 
     27 CA          1.8767  -19.7870  -45.0818 C.3       9 UNK         0.1400 
     28 CB          1.2596  -18.8625  -46.1432 C.3       9 UNK        -0.1800 
     29 N           1.2907  -19.4719  -43.7791 N.am      9 UNK        -0.5000 
     30 C           1.8199  -19.8318  -42.6011 C.2       8 UNK         0.5000 
     31 O           2.8744  -20.4614  -42.5008 O.2       8 UNK        -0.5000 
     32 CA          1.0720  -19.4063  -41.3204 C.3       8 UNK         0.1400 
     33 CB          2.0243  -18.7820  -40.2848 C.3       8 UNK        -0.1800 
     34 N           0.0028  -18.4472  -41.6021 N.am      8 UNK        -0.5000 
     35 C          -1.3070  -18.6923  -41.4666 C.2       7 UNK         0.5000 
     36 O          -1.7645  -19.7581  -41.0534 O.2       7 UNK        -0.5000 
     37 CA         -2.2807  -17.5638  -41.8600 C.3       7 UNK         0.1400 
     38 CB         -2.7639  -16.8184  -40.6077 C.3       7 UNK        -0.1800 
     39 N          -1.7153  -16.6078  -42.8179 N.am      7 UNK        -0.5000 
     40 C          -1.4518  -16.9050  -44.0994 C.2       6 UNK         0.5000 
     41 O          -1.6601  -18.0201  -44.5778 O.2       6 UNK        -0.5000 
     42 CA         -0.8051  -15.8281  -44.9937 C.3       6 UNK         0.1400 
     43 CB         -1.4450  -15.7758  -46.3964 C.3       6 UNK        -0.1800 
     44 N          -0.6974  -14.5016  -44.3858 N.am      6 UNK        -0.5000 
     45 C          -1.6669  -13.6136  -44.1284 C.2       5 UNK         0.5000 
     46 O          -2.8511  -13.7715  -44.4271 O.2       5 UNK        -0.5000 
     47 CA         -1.2088  -12.3440  -43.3759 C.3       5 UNK         0.1400 
     48 CB         -2.3741  -11.5796  -42.7123 C.3       5 UNK        -0.1800 
     49 N          -0.1384  -12.6242  -42.4048 N.am      5 UNK        -0.5000 
     50 C          -0.2276  -13.4479  -41.3488 C.2       4 UNK         0.5000 
     51 O          -1.2544  -14.0569  -41.0501 O.2       4 UNK        -0.5000 
     52 CA          1.0625  -13.6626  -40.5324 C.3       4 UNK         0.1400 
     53 CB          0.8738  -14.6592  -39.3680 C.3       4 UNK        -0.1800 
     54 N           2.1987  -14.0707  -41.3657 N.am      4 UNK        -0.5000 
     55 C           2.2903  -15.1580  -42.1447 C.2       3 UNK         0.5000 
     56 O           1.3655  -15.9502  -42.3406 O.2       3 UNK        -0.5000 
     57 CA          3.6527  -15.3659  -42.8313 C.3       3 UNK         0.1400 
     58 CB          3.8015  -16.7647  -43.4555 C.3       3 UNK        -0.1800 
     59 N           3.8662  -14.3524  -43.8630 N.am      3 UNK        -0.5000 
     60 C           4.3400  -13.1169  -43.6411 C.2       2 UNK         0.5000 
     61 O           4.6385  -12.7031  -42.5196 O.2       2 UNK        -0.5000 
     62 CA          4.5007  -12.1772  -44.8555 C.3       2 UNK         0.1400 
     63 CB          5.9575  -12.1780  -45.3428 C.3       2 UNK        -0.1800 
     64 N           3.6265  -12.5204  -45.9774 N.am      2 UNK        -0.5000 
     65 C           2.2931  -12.3887  -45.9716 C.2       1 UNK         0.5000 
     66 O           1.6704  -11.8666  -45.0465 O.2       1 UNK        -0.5000 
     67 C          -2.2281  -22.5043  -47.4642 C.2       11 UNK         0.5000 
     68 O          -3.1104  -23.3127  -47.7507 O.2       11 UNK        -0.5000 
     69 N          -2.0049  -22.0452  -46.2237 N.am      12 UNK        -0.5000 
     70 CA         -2.7745  -22.4251  -45.0410 C.3       12 UNK         0.1400 
     71 CB         -2.5071  -21.4281  -43.9048 C.3       12 UNK        -0.1800 
     72 C          -2.4709  -23.8630  -44.5979 C.2       12 UNK         0.5000 
     73 O          -3.3991  -24.5946  -44.2534 O.2       12 UNK        -0.5000 
     74 N          -1.1931  -24.2632  -44.6781 N.am      13 UNK        -0.5000 
     75 CA         -0.7316  -25.6319  -44.4215 C.3       13 UNK         0.1400 
     76 CB          0.8020  -25.6721  -44.4839 C.3       13 UNK        -0.1800 
     77 C          -1.3444  -26.6651  -45.3902 C.2       13 UNK         0.5000 
     78 O          -1.6193  -27.7948  -44.9859 O.2       13 UNK        -0.5000 
     79 N          -1.5939  -26.2371  -46.6341 N.am      14 UNK        -0.5000 
     80 CA         -2.2832  -26.9878  -47.6832 C.3       14 UNK         0.1400 
     81 CB         -1.7265  -26.5334  -49.0412 C.3       14 UNK        -0.1800 
     82 C          -3.8246  -26.8652  -47.6222 C.2       14 UNK         0.5000 
     83 O          -4.4922  -27.2702  -48.5742 O.2       14 UNK        -0.5000 
     84 N          -4.3652  -26.3364  -46.5131 N.am      15 UNK        -0.5000 
     85 CA         -5.7884  -26.1727  -46.1989 C.3       15 UNK         0.1400 
     86 CB         -6.5195  -27.5322  -46.1618 C.3       15 UNK        -0.1800 
     87 C          -6.4815  -25.1227  -47.0898 C.2       15 UNK         0.5000 
     88 O          -7.5088  -25.4072  -47.7084 O.2       15 UNK        -0.5000 
     89 N          -5.9015  -23.9146  -47.1051 N.am      16 UNK        -0.5000 
     90 CA         -6.3567  -22.7062  -47.8025 C.3       16 UNK         0.1400 
     91 CB         -7.7364  -22.2447  -47.2877 C.3       16 UNK        -0.1800 
     92 C          -6.2897  -22.8522  -49.3349 C.2       16 UNK         0.5000 
     93 O          -7.2425  -22.5242  -50.0435 O.2       16 UNK        -0.5000 
     94 N          -5.1369  -23.3268  -49.8200 N.am      17 UNK        -0.5000 
     95 CA         -4.8531  -23.5911  -51.2325 C.3       17 UNK         0.1400 
     96 CB         -3.8047  -24.7102  -51.3228 C.3       17 UNK        -0.1800 
     97 C          -4.3966  -22.3470  -52.0237 C.2       17 UNK         0.5000 
     98 O          -3.8364  -22.5041  -53.1083 O.2       17 UNK        -0.5000 
     99 N          -4.6271  -21.1352  -51.4967 N.am      18 UNK        -0.5000 
    100 CA        -4.1985  -19.8585  -52.0824 C.3       18 UNK         0.1400 
    101 CB        -4.6433  -18.7043  -51.1709 C.3       18 UNK        -0.1800 
    102 C         -4.6899  -19.6268  -53.5249 C.2       18 UNK         0.5000 
    103 O         -3.9370  -19.1148  -54.3541 O.2       18 UNK        -0.5000 
    104 N         -5.9268  -20.0588  -53.8056 N.am      19 UNK        -0.5000 
    105 CA        -6.5513  -20.0005  -55.1282 C.3       19 UNK         0.1400 
    106 CB        -8.0432  -20.3399  -54.9901 C.3       19 UNK        -0.1800 
    107 C         -5.8825  -20.9220  -56.1679 C.2       19 UNK         0.5000 
    108 O         -5.9425  -20.6225  -57.3605 O.2       19 UNK        -0.5000 
    109 N         -5.2579  -22.0141  -55.7058 N.am      20 UNK        -0.5000 
    110 CA        -4.4670  -22.9209  -56.5345 C.3       20 UNK         0.1400 
    111 CB        -4.5158  -24.3401  -55.9460 C.3       20 UNK        -0.1800 
    112 C         -3.0186  -22.4211  -56.6547 C.2       20 UNK         0.5000 
    113 O         -2.4729  -22.4144  -57.7585 O.2       20 UNK        -0.5000 
    114 N         -2.4371  -21.9793  -55.5287 N.am      21 UNK        -0.5000 
    115 CA        -1.0662  -21.4731  -55.4132 C.3       21 UNK         0.1400 
    116 CB        -0.7738  -21.1189  -53.9464 C.3       21 UNK        -0.1800 
    117 C         -0.7741  -20.2692  -56.3279 C.2       21 UNK         0.5000 
    118 O          0.2901  -20.2249  -56.9471 O.2       21 UNK        -0.5000 
    119 N         -1.7380  -19.3464  -56.4232 N.am      22 UNK        -0.5000 
    120 CA        -1.7151  -18.1952  -57.3409 C.3       22 UNK         0.1400 
    121 C         -2.5125  -18.4423  -58.6569 C.2       22 UNK         0.5000 
    122 N         -2.9007  -19.6681  -58.9883 N.am      22 UNK        -0.7600 
    123 O         -2.7707  -17.5079  -59.4110 O.2       22 UNK        -0.5000 
    124 C124       -2.1436  -16.8859  -56.6288 C.3       23 UNK        -0.0398 
    125 S125       -0.9976  -16.4463  -55.2771 S.3       23 UNK        -0.2404 
    126 C126       -2.1614  -15.9756  -53.9657 C.3       23 UNK        -0.0205 
    127 H127        3.4718  -15.7745  -49.3029 H         1 UNK         0.0600 
    128 H128        2.6719  -17.0837  -48.4294 H         1 UNK         0.0600 
    129 H129        4.2644  -16.5200  -47.9107 H         1 UNK         0.0600 
    130 H130        2.4359  -13.8455  -48.8601 H         1 UNK         0.3000 
    131 H131        0.6474  -13.4732  -46.7085 H         1 UNK         0.0600 
    132 H132        1.7842  -11.5100  -48.7623 H         1 UNK         0.0800 
    133 H133        0.6108  -11.0391  -47.5619 H         1 UNK         0.0800 
    134 H134        1.4870  -13.3796  -50.4033 H         1 UNK         0.0800 
    135 H135        0.3870  -12.4804  -51.4097 H         1 UNK         0.0800 
    136 H136       -0.8812  -13.7998  -52.9301 H         1 UNK         0.1150 
    137 H137       -1.8978  -17.8608  -52.0433 H         1 UNK         0.1150 
    138 H138        0.2851  -15.5298  -49.1869 H         1 UNK         0.1150 
    139 H139       -0.0528  -17.8555  -48.7495 H         1 UNK         0.0800 
    140 H140       -1.7915  -17.8395  -48.9542 H         1 UNK         0.0800 
    141 H141       -2.7980  -20.5632  -49.3147 H         1 UNK         0.0800 
    142 H142       -1.8151  -19.9156  -48.0312 H         1 UNK         0.0800 
    143 H143       -1.4204  -22.5943  -49.4506 H         1 UNK         0.0600 
    144 H144        0.5958  -21.1314  -48.1475 H         1 UNK         0.3000 
    145 H145        2.3848  -23.7300  -46.5388 H         1 UNK         0.0600 
    146 H146        4.2483  -22.9829  -47.9945 H         1 UNK         0.0600 
    147 H147        3.1386  -23.9910  -48.9087 H         1 UNK         0.0600 
    148 H148        3.1097  -22.2448  -49.1224 H         1 UNK         0.0600 
    149 H149        3.0492  -21.0205  -46.9596 H         1 UNK         0.3000 
    150 H150        2.9510  -19.5959  -45.0354 H         1 UNK         0.0600 
    151 H151        0.1829  -19.0080  -46.2342 H         1 UNK         0.0600 
    152 H152        1.6972  -19.0314  -47.1274 H         1 UNK         0.0600 
    153 H153        1.4418  -17.8210  -45.8970 H         1 UNK         0.0600 
    154 H154        0.3912  -19.0116  -43.7832 H         1 UNK         0.3000 
    155 H155        0.6632  -20.3212  -40.8877 H         1 UNK         0.0600 
    156 H156        2.4966  -17.8763  -40.6638 H         1 UNK         0.0600 
    157 H157        2.8180  -19.4763  -40.0069 H         1 UNK         0.0600 
    158 H158        1.4909  -18.5199  -39.3710 H         1 UNK         0.0600 
    159 H159        0.3040  -17.5335  -41.9339 H         1 UNK         0.3000 
    160 H160       -3.1498  -18.0305  -42.3286 H         1 UNK         0.0600 
    161 H161       -1.9301  -16.3977  -40.0448 H         1 UNK         0.0600 
    162 H162       -3.3009  -17.4912  -39.9380 H         1 UNK         0.0600 
    163 H163       -3.4422  -16.0049  -40.8656 H         1 UNK         0.0600 
    164 H164       -1.4885  -15.6864  -42.4615 H         1 UNK         0.3000 
    165 H165        0.2259  -16.1494  -45.1182 H         1 UNK         0.0600 
    166 H166       -0.9557  -15.0468  -47.0395 H         1 UNK         0.0600 
    167 H167       -2.5052  -15.5274  -46.3524 H         1 UNK         0.0600 
    168 H168       -1.3630  -16.7432  -46.8893 H         1 UNK         0.0600 
    169 H169        0.2251  -14.2762  -44.0405 H         1 UNK         0.3000 
    170 H170       -0.7808  -11.6834  -44.1302 H         1 UNK         0.0600 
    171 H171       -3.0956  -11.2454  -43.4586 H         1 UNK         0.0600 
    172 H172       -2.9127  -12.1989  -41.9946 H         1 UNK         0.0600 
    173 H173       -2.0164  -10.6929  -42.1890 H         1 UNK         0.0600 
    174 H174        0.7538  -12.1933  -42.6083 H         1 UNK         0.3000 
    175 H175        1.3202  -12.6944  -40.1012 H         1 UNK         0.0600 
    176 H176        0.5947  -15.6523  -39.7226 H         1 UNK         0.0600 
    177 H177        1.7878  -14.7588  -38.7828 H         1 UNK         0.0600 
    178 H178        0.0893  -14.3230  -38.6891 H         1 UNK         0.0600 
    179 H179        3.0072  -13.4593  -41.3379 H         1 UNK         0.3000 
    180 H180        4.4279  -15.2698  -42.0681 H         1 UNK         0.0600 
    181 H181        2.9959  -16.9907  -44.1529 H         1 UNK         0.0600 
    182 H182        3.7902  -17.5349  -42.6850 H         1 UNK         0.0600 
    183 H183        4.7448  -16.8608  -43.9929 H         1 UNK         0.0600 
    184 H184        3.5614  -14.6106  -44.7967 H         1 UNK         0.3000 
    185 H185        4.2514  -11.1669  -44.5243 H         1 UNK         0.0600 
    186 H186        6.1031  -11.4640  -46.1537 H         1 UNK         0.0600 
    187 H187        6.6390  -11.8974  -44.5385 H         1 UNK         0.0600 
    188 H188        6.2611  -13.1623  -45.7019 H         1 UNK         0.0600 
    189 H189        4.0587  -12.9740  -46.7689 H         1 UNK         0.3000 
    190 H190       -1.2124  -21.4408  -46.0591 H         1 UNK         0.3000 
    191 H191       -3.8360  -22.3700  -45.2909 H         1 UNK         0.0600 
    192 H192       -3.0723  -21.6928  -43.0103 H         1 UNK         0.0600 
    193 H193       -2.8082  -20.4202  -44.1887 H         1 UNK         0.0600 
    194 H194       -1.4534  -21.3961  -43.6263 H         1 UNK         0.0600 
    195 H195       -0.4894  -23.5801  -44.9381 H         1 UNK         0.3000 
    196 H196       -1.0406  -25.9001  -43.4092 H         1 UNK         0.0600 
    197 H197        1.1670  -25.4676  -45.4899 H         1 UNK         0.0600 
    198 H198        1.2469  -24.9410  -43.8084 H         1 UNK         0.0600 
    199 H199        1.1765  -26.6548  -44.1949 H         1 UNK         0.0600 
    200 H200       -1.2753  -25.3104  -46.8941 H         1 UNK         0.3000 
    201 H201       -2.0513  -28.0485  -47.5691 H         1 UNK         0.0600 
    202 H202       -1.8843  -25.4662  -49.1912 H         1 UNK         0.0600 
    203 H203       -2.1972  -27.0642  -49.8693 H         1 UNK         0.0600 
    204 H204       -0.6545  -26.7201  -49.1067 H         1 UNK         0.0600 
    205 H205       -3.7334  -25.9982  -45.7970 H         1 UNK         0.3000 
    206 H206       -5.8224  -25.7707  -45.1852 H         1 UNK         0.0600 
    207 H207       -6.0129  -28.2341  -45.4994 H         1 UNK         0.0600 
    208 H208       -7.5380  -27.4138  -45.7905 H         1 UNK         0.0600 
    209 H209       -6.5868  -27.9904  -47.1487 H         1 UNK         0.0600 
    210 H210       -4.9983  -23.8322  -46.6578 H         1 UNK         0.3000 
    211 H211       -5.6414  -21.9238  -47.5447 H         1 UNK         0.0600 
    212 H212       -8.0050  -21.2763  -47.7110 H         1 UNK         0.0600 
    213 H213       -7.7359  -22.1350  -46.2032 H         1 UNK         0.0600 
    214 H214       -8.5280  -22.9455  -47.5539 H         1 UNK         0.0600 
    215 H215       -4.3955  -23.5380  -49.1574 H         1 UNK         0.3000 
    216 H216       -5.7659  -23.9529  -51.7100 H         1 UNK         0.0600 
    217 H217       -2.8329  -24.3718  -50.9638 H         1 UNK         0.0600 
    218 H218       -3.6731  -25.0458  -52.3522 H         1 UNK         0.0600 
    219 H219       -4.1034  -25.5800  -50.7383 H         1 UNK         0.0600 
    220 H220       -5.1315  -21.0893  -50.6245 H         1 UNK         0.3000 
    221 H221       -3.1091  -19.8700  -52.1106 H         1 UNK         0.0600 
    222 H222       -4.1785  -18.7712  -50.1877 H         1 UNK         0.0600 
    223 H223       -5.7249  -18.6957  -51.0318 H         1 UNK         0.0600 
    224 H224       -4.3614  -17.7390  -51.5936 H         1 UNK         0.0600 
    225 H225       -6.4687  -20.4781  -53.0641 H         1 UNK         0.3000 
    226 H226       -6.4656  -18.9757  -55.4960 H         1 UNK         0.0600 
    227 H227       -8.1921  -21.3488  -54.6032 H         1 UNK         0.0600 
    228 H228       -8.5460  -19.6440  -54.3182 H         1 UNK         0.0600 
    229 H229       -8.5485  -20.2802  -55.9550 H         1 UNK         0.0600 
    230 H230       -5.1990  -22.1555  -54.7058 H         1 UNK         0.3000 
    231 H231       -4.8948  -22.9639  -57.5386 H         1 UNK         0.0600 
    232 H232       -4.0805  -24.3863  -54.9478 H         1 UNK         0.0600 
    233 H233       -3.9631  -25.0390  -56.5749 H         1 UNK         0.0600 
    234 H234       -5.5415  -24.7033  -55.8805 H         1 UNK         0.0600 
    235 H235       -2.9596  -22.0551  -54.6592 H         1 UNK         0.3000 
    236 H236       -0.3974  -22.2843  -55.7075 H         1 UNK         0.0600 
    237 H237       -1.3838  -20.2817  -53.6081 H         1 UNK         0.0600 
    238 H238       -0.9654  -21.9640  -53.2848 H         1 UNK         0.0600 
    239 H239        0.2702  -20.8321  -53.8155 H         1 UNK         0.0600 
    240 H240       -2.5685  -19.4419  -55.8477 H         1 UNK         0.3000 
    241 H241       -0.6902  -18.0365  -57.6804 H         1 UNK         0.0600 
    242 H242       -2.6665  -20.4693  -58.4152 H         1 UNK         0.3800 
    243 H243       -3.4163  -19.8048  -59.8429 H         1 UNK         0.3800 
    244 H244       -3.1616  -16.9823  -56.2482 H         1 UNK         0.0800 
    245 H245       -2.1546  -16.0466  -57.3260 H         1 UNK         0.0800 
    246 H246       -2.9561  -16.7182  -53.8908 H         1 UNK         0.0800 
    247 H247       -2.6433  -15.0328  -54.2283 H         1 UNK         0.0800 
@<TRIPOS>BOND
     1    1    2 1    
     2    1  127 1    
     3    1  128 1    
     4    1  129 1    
     5    2    3 2    
     6    2    4 am   BACKBONE|DICT|INTERRES
     7    4    5 1    
     8    4  130 1    
     9    5    6 1    
    10    5   65 1    
    11    5  131 1    
    12    6    7 1    
    13    6  132 1    
    14    6  133 1    
    15    7    8 1    
    16    8    9 1    
    17    8  134 1    
    18    8  135 1    
    19    9   10 ar   
    20    9   14 ar   
    21   10   11 ar   
    22   10  136 1    
    23   11   12 ar   
    24   11  126 1    
    25   12   13 ar   
    26   12  137 1    
    27   13   14 ar   
    28   13   15 1    
    29   14  138 1    
    30   15   16 1    
    31   15  139 1    
    32   15  140 1    
    33   16   17 1    
    34   17   18 1    
    35   17  141 1    
    36   17  142 1    
    37   18   19 1    
    38   18   67 1    
    39   18  143 1    
    40   19   20 am   BACKBONE|DICT|INTERRES
    41   19  144 1    
    42   20   21 2    
    43   20   22 1    
    44   22   23 1    
    45   22   24 1    
    46   22  145 1    
    47   23  146 1    
    48   23  147 1    
    49   23  148 1    
    50   24   25 am   BACKBONE|DICT|INTERRES
    51   24  149 1    
    52   25   26 2    
    53   25   27 1    
    54   27   28 1    
    55   27   29 1    
    56   27  150 1    
    57   28  151 1    
    58   28  152 1    
    59   28  153 1    
    60   29   30 am   BACKBONE|DICT|INTERRES
    61   29  154 1    
    62   30   31 2    
    63   30   32 1    
    64   32   33 1    
    65   32   34 1    
    66   32  155 1    
    67   33  156 1    
    68   33  157 1    
    69   33  158 1    
    70   34   35 am   BACKBONE|DICT|INTERRES
    71   34  159 1    
    72   35   36 2    
    73   35   37 1    
    74   37   38 1    
    75   37   39 1    
    76   37  160 1    
    77   38  161 1    
    78   38  162 1    
    79   38  163 1    
    80   39   40 am   BACKBONE|DICT|INTERRES
    81   39  164 1    
    82   40   41 2    
    83   40   42 1    
    84   42   43 1    
    85   42   44 1    
    86   42  165 1    
    87   43  166 1    
    88   43  167 1    
    89   43  168 1    
    90   44   45 am   BACKBONE|DICT|INTERRES
    91   44  169 1    
    92   45   46 2    
    93   45   47 1    
    94   47   48 1    
    95   47   49 1    
    96   47  170 1    
    97   48  171 1    
    98   48  172 1    
    99   48  173 1    
   100   49   50 am   BACKBONE|DICT|INTERRES
   101   49  174 1    
   102   50   51 2    
   103   50   52 1    
   104   52   53 1    
   105   52   54 1    
   106   52  175 1    
   107   53  176 1    
   108   53  177 1    
   109   53  178 1    
   110   54   55 am   BACKBONE|DICT|INTERRES
   111   54  179 1    
   112   55   56 2    
   113   55   57 1    
   114   57   58 1    
   115   57   59 1    
   116   57  180 1    
   117   58  181 1    
   118   58  182 1    
   119   58  183 1    
   120   59   60 am   BACKBONE|DICT|INTERRES
   121   59  184 1    
   122   60   61 2    
   123   60   62 1    
   124   62   63 1    
   125   62   64 1    
   126   62  185 1    
   127   63  186 1    
   128   63  187 1    
   129   63  188 1    
   130   64   65 am   BACKBONE|DICT|INTERRES
   131   64  189 1    
   132   65   66 2    
   133   67   68 2    
   134   67   69 am   BACKBONE|DICT|INTERRES
   135   69   70 1    
   136   69  190 1    
   137   70   71 1    
   138   70   72 1    
   139   70  191 1    
   140   71  192 1    
   141   71  193 1    
   142   71  194 1    
   143   72   73 2    
   144   72   74 am   BACKBONE|DICT|INTERRES
   145   74   75 1    
   146   74  195 1    
   147   75   76 1    
   148   75   77 1    
   149   75  196 1    
   150   76  197 1    
   151   76  198 1    
   152   76  199 1    
   153   77   78 2    
   154   77   79 am   BACKBONE|DICT|INTERRES
   155   79   80 1    
   156   79  200 1    
   157   80   81 1    
   158   80   82 1    
   159   80  201 1    
   160   81  202 1    
   161   81  203 1    
   162   81  204 1    
   163   82   83 2    
   164   82   84 am   BACKBONE|DICT|INTERRES
   165   84   85 1    
   166   84  205 1    
   167   85   86 1    
   168   85   87 1    
   169   85  206 1    
   170   86  207 1    
   171   86  208 1    
   172   86  209 1    
   173   87   88 2    
   174   87   89 am   BACKBONE|DICT|INTERRES
   175   89   90 1    
   176   89  210 1    
   177   90   91 1    
   178   90   92 1    
   179   90  211 1    
   180   91  212 1    
   181   91  213 1    
   182   91  214 1    
   183   92   93 2    
   184   92   94 am   BACKBONE|DICT|INTERRES
   185   94   95 1    
   186   94  215 1    
   187   95   96 1    
   188   95   97 1    
   189   95  216 1    
   190   96  217 1    
   191   96  218 1    
   192   96  219 1    
   193   97   98 2    
   194   97   99 am   BACKBONE|DICT|INTERRES
   195   99  100 1    
   196   99  220 1    
   197  100  101 1    
   198  100  102 1    
   199  100  221 1    
   200  101  222 1    
   201  101  223 1    
   202  101  224 1    
   203  102  103 2    
   204  102  104 am   BACKBONE|DICT|INTERRES
   205  104  105 1    
   206  104  225 1    
   207  105  106 1    
   208  105  107 1    
   209  105  226 1    
   210  106  227 1    
   211  106  228 1    
   212  106  229 1    
   213  107  108 2    
   214  107  109 am   BACKBONE|DICT|INTERRES
   215  109  110 1    
   216  109  230 1    
   217  110  111 1    
   218  110  112 1    
   219  110  231 1    
   220  111  232 1    
   221  111  233 1    
   222  111  234 1    
   223  112  113 2    
   224  112  114 am   BACKBONE|DICT|INTERRES
   225  114  115 1    
   226  114  235 1    
   227  115  116 1    
   228  115  117 1    
   229  115  236 1    
   230  116  237 1    
   231  116  238 1    
   232  116  239 1    
   233  117  118 2    
   234  117  119 am   BACKBONE|DICT|INTERRES
   235  119  120 1    
   236  119  240 1    
   237  120  121 1    
   238  120  124 1    
   239  120  241 1    
   240  121  122 am   BACKBONE|DICT|INTERRES
   241  121  123 2    
   242  122  242 1    
   243  122  243 1    
   244  124  125 1    
   245  124  244 1    
   246  124  245 1    
   247  125  126 1    
   248  126  246 1    
   249  126  247 1    
@<TRIPOS>SUBSTRUCTURE
     1 UNK         1 GROUP             0       ****    0 ROOT    
