@<TRIPOS>MOLECULE
3R540
247   249    1
SMALL
USER_CHARGES


@<TRIPOS>ATOM
      1 CA          2.2739  -16.8898  -51.4514 C.3       0 UNK        -0.1800 
      2 C           2.4671  -16.4193  -50.0183 C.2       0 UNK         0.5000 
      3 O           3.6008  -16.2990  -49.5542 O.2       0 UNK        -0.5000 
      4 N           1.3596  -16.1450  -49.3197 N.am      1 UNK        -0.5000 
      5 CA          1.3415  -15.6794  -47.9283 C.3       1 UNK         0.1400 
      6 C6         -0.0063  -16.0023  -47.2418 C.3       23 UNK        -0.0398 
      7 S7         -1.4610  -15.1978  -48.0063 S.3       23 UNK        -0.2404 
      8 C8         -2.5353  -16.6147  -48.3990 C.3       23 UNK        -0.0205 
      9 C9         -1.9479  -17.5207  -49.4711 C.ar      23 UNK        -0.0193 
     10 C10        -1.7418  -17.0344  -50.7659 C.ar      23 UNK        -0.1150 
     11 C11        -1.2331  -17.8694  -51.7640 C.ar      23 UNK        -0.0193 
     12 C12        -0.9416  -19.2019  -51.4619 C.ar      23 UNK        -0.1150 
     13 C13        -1.1679  -19.7084  -50.1793 C.ar      23 UNK        -0.0193 
     14 C14        -1.6550  -18.8576  -49.1819 C.ar      23 UNK        -0.1150 
     15 C15        -0.9617  -21.1911  -49.9079 C.3       23 UNK        -0.0205 
     16 S16         0.7267  -21.5525  -49.3444 S.3       23 UNK        -0.2404 
     17 C17         0.5644  -21.2962  -47.5496 C.3       23 UNK        -0.0398 
     18 CA          0.7432  -22.5939  -46.7247 C.3       11 UNK         0.1400 
     19 N           1.1194  -22.2830  -45.3442 N.am      11 UNK        -0.5000 
     20 C           1.5561  -23.1702  -44.4421 C.2       10 UNK         0.5000 
     21 O           1.7181  -24.3653  -44.6843 O.2       10 UNK        -0.5000 
     22 CA          1.8210  -22.6381  -43.0210 C.3       10 UNK         0.1400 
     23 CB          3.1884  -21.9432  -42.9445 C.3       10 UNK        -0.1800 
     24 N           0.7765  -21.7248  -42.5513 N.am      10 UNK        -0.5000 
     25 C          -0.5004  -22.0803  -42.3476 C.2       9 UNK         0.5000 
     26 O          -0.9230  -23.2240  -42.5082 O.2       9 UNK        -0.5000 
     27 CA         -1.4843  -20.9680  -41.9435 C.3       9 UNK         0.1400 
     28 CB         -1.3471  -20.6268  -40.4523 C.3       9 UNK        -0.1800 
     29 N          -1.3267  -19.7554  -42.7449 N.am      9 UNK        -0.5000 
     30 C          -1.5019  -19.6911  -44.0723 C.2       8 UNK         0.5000 
     31 O          -1.8522  -20.6430  -44.7690 O.2       8 UNK        -0.5000 
     32 CA         -1.1617  -18.3535  -44.7483 C.3       8 UNK         0.1400 
     33 CB         -2.2883  -17.3284  -44.5495 C.3       8 UNK        -0.1800 
     34 N           0.1117  -17.8008  -44.2811 N.am      8 UNK        -0.5000 
     35 C           1.2977  -18.4130  -44.4192 C.2       7 UNK         0.5000 
     36 O           1.4506  -19.4780  -45.0122 O.2       7 UNK        -0.5000 
     37 CA          2.5081  -17.7600  -43.7357 C.3       7 UNK         0.1400 
     38 CB          3.1026  -16.6518  -44.6141 C.3       7 UNK        -0.1800 
     39 N           2.1597  -17.2294  -42.4193 N.am      7 UNK        -0.5000 
     40 C           1.8764  -17.9963  -41.3561 C.2       6 UNK         0.5000 
     41 O           1.9251  -19.2265  -41.3676 O.2       6 UNK        -0.5000 
     42 CA          1.4171  -17.2649  -40.0821 C.3       6 UNK         0.1400 
     43 CB          2.6262  -16.7760  -39.2712 C.3       6 UNK        -0.1800 
     44 N           0.5384  -16.1320  -40.3771 N.am      6 UNK        -0.5000 
     45 C          -0.6886  -16.2449  -40.9056 C.2       5 UNK         0.5000 
     46 O          -1.2271  -17.3231  -41.1536 O.2       5 UNK        -0.5000 
     47 CA         -1.4142  -14.9335  -41.2596 C.3       5 UNK         0.1400 
     48 CB         -2.2223  -14.4226  -40.0579 C.3       5 UNK        -0.1800 
     49 N          -0.5061  -13.8787  -41.7197 N.am      5 UNK        -0.5000 
     50 C           0.2208  -13.9392  -42.8428 C.2       4 UNK         0.5000 
     51 O           0.2112  -14.9028  -43.6119 O.2       4 UNK        -0.5000 
     52 CA          1.1394  -12.7425  -43.1295 C.3       4 UNK         0.1400 
     53 CB          2.6165  -13.1653  -43.1368 C.3       4 UNK        -0.1800 
     54 N           0.8038  -12.1428  -44.4179 N.am      4 UNK        -0.5000 
     55 C          -0.0857  -11.1499  -44.5717 C.2       3 UNK         0.5000 
     56 O          -0.7188  -10.6666  -43.6314 O.2       3 UNK        -0.5000 
     57 CA         -0.2975  -10.5782  -45.9886 C.3       3 UNK         0.1400 
     58 CB         -0.3428   -9.0384  -45.9933 C.3       3 UNK        -0.1800 
     59 N           0.7366  -11.0340  -46.9148 N.am      3 UNK        -0.5000 
     60 C           0.5431  -11.3245  -48.2048 C.2       2 UNK         0.5000 
     61 O          -0.5230  -11.1510  -48.7968 O.2       2 UNK        -0.5000 
     62 CA          1.7267  -11.9630  -48.9570 C.3       2 UNK         0.1400 
     63 CB          3.1092  -11.4356  -48.5123 C.3       2 UNK        -0.1800 
     64 N           1.6530  -13.4242  -48.8755 N.am      2 UNK        -0.5000 
     65 C           1.6976  -14.1844  -47.7692 C.2       1 UNK         0.5000 
     66 O           1.9635  -13.7490  -46.6470 O.2       1 UNK        -0.5000 
     67 C          -0.4923  -23.5226  -46.7863 C.2       11 UNK         0.5000 
     68 O          -0.4924  -24.4918  -47.5477 O.2       11 UNK        -0.5000 
     69 N          -1.4942  -23.2541  -45.9359 N.am      12 UNK        -0.5000 
     70 CA         -2.6772  -24.0967  -45.7607 C.3       12 UNK         0.1400 
     71 CB         -3.7150  -23.3610  -44.9005 C.3       12 UNK        -0.1800 
     72 C          -2.3415  -25.4746  -45.1592 C.2       12 UNK         0.5000 
     73 O          -2.8681  -26.4812  -45.6323 O.2       12 UNK        -0.5000 
     74 N          -1.4424  -25.5120  -44.1639 N.am      13 UNK        -0.5000 
     75 CA         -0.9336  -26.7401  -43.5420 C.3       13 UNK         0.1400 
     76 CB         -0.1018  -26.3878  -42.3000 C.3       13 UNK        -0.1800 
     77 C          -0.1198  -27.6205  -44.5111 C.2       13 UNK         0.5000 
     78 O          -0.1548  -28.8456  -44.3932 O.2       13 UNK        -0.5000 
     79 N           0.5527  -26.9871  -45.4819 N.am      14 UNK        -0.5000 
     80 CA          1.2326  -27.6340  -46.6070 C.3       14 UNK         0.1400 
     81 CB          2.2671  -26.6584  -47.1928 C.3       14 UNK        -0.1800 
     82 C           0.2673  -28.1472  -47.7010 C.2       14 UNK         0.5000 
     83 O           0.7310  -28.7488  -48.6706 O.2       14 UNK        -0.5000 
     84 N          -1.0432  -27.9133  -47.5291 N.am      15 UNK        -0.5000 
     85 CA         -2.1596  -28.3345  -48.3800 C.3       15 UNK         0.1400 
     86 CB         -2.2275  -29.8721  -48.4982 C.3       15 UNK        -0.1800 
     87 C          -2.2132  -27.6195  -49.7444 C.2       15 UNK         0.5000 
     88 O          -2.8261  -28.1396  -50.6791 O.2       15 UNK        -0.5000 
     89 N          -1.6064  -26.4297  -49.8377 N.am      16 UNK        -0.5000 
     90 CA         -1.7227  -25.5467  -50.9941 C.3       16 UNK         0.1400 
     91 CB         -0.4449  -24.7060  -51.1104 C.3       16 UNK        -0.1800 
     92 C          -2.9652  -24.6529  -50.8407 C.2       16 UNK         0.5000 
     93 O          -3.2832  -24.2291  -49.7264 O.2       16 UNK        -0.5000 
     94 N          -3.6443  -24.3770  -51.9608 N.am      17 UNK        -0.5000 
     95 CA         -4.8059  -23.4897  -52.0199 C.3       17 UNK         0.1400 
     96 CB         -5.5190  -23.6736  -53.3688 C.3       17 UNK        -0.1800 
     97 C          -4.3822  -22.0247  -51.8203 C.2       17 UNK         0.5000 
     98 O          -3.4499  -21.5709  -52.4868 O.2       17 UNK        -0.5000 
     99 N          -5.0653  -21.3245  -50.9093 N.am      18 UNK        -0.5000 
    100 CA        -4.7955  -19.9286  -50.5832 C.3       18 UNK         0.1400 
    101 CB        -5.0742  -19.6970  -49.0893 C.3       18 UNK        -0.1800 
    102 C         -5.6382  -18.9843  -51.4494 C.2       18 UNK         0.5000 
    103 O         -6.8276  -19.2423  -51.6517 O.2       18 UNK        -0.5000 
    104 N         -5.0069  -17.8898  -51.8953 N.am      19 UNK        -0.5000 
    105 CA        -5.5725  -16.8105  -52.7084 C.3       19 UNK         0.1400 
    106 CB        -6.5543  -15.9656  -51.8662 C.3       19 UNK        -0.1800 
    107 C         -6.1548  -17.3208  -54.0457 C.2       19 UNK         0.5000 
    108 O         -5.5267  -18.1617  -54.6923 O.2       19 UNK        -0.5000 
    109 N         -7.3157  -16.7883  -54.4581 N.am      20 UNK        -0.5000 
    110 CA        -8.0182  -17.0714  -55.7141 C.3       20 UNK         0.1400 
    111 CB        -8.6044  -18.5015  -55.7008 C.3       20 UNK        -0.1800 
    112 C         -7.1157  -16.7709  -56.9275 C.2       20 UNK         0.5000 
    113 O         -6.8775  -15.5973  -57.2185 O.2       20 UNK        -0.5000 
    114 N         -6.5801  -17.8196  -57.5667 N.am      21 UNK        -0.5000 
    115 CA        -5.6300  -17.7519  -58.6793 C.3       21 UNK         0.1400 
    116 CB        -5.3402  -19.1777  -59.1727 C.3       21 UNK        -0.1800 
    117 C         -4.3128  -17.0178  -58.3498 C.2       21 UNK         0.5000 
    118 O         -3.7067  -16.4522  -59.2611 O.2       21 UNK        -0.5000 
    119 N         -3.9078  -17.0166  -57.0721 N.am      22 UNK        -0.5000 
    120 CA        -2.7655  -16.2462  -56.5523 C.3       22 UNK         0.1400 
    121 C         -3.1858  -15.0212  -55.6860 C.2       22 UNK         0.5000 
    122 N         -4.4494  -14.6092  -55.6793 N.am      22 UNK        -0.7600 
    123 O         -2.3490  -14.4112  -55.0264 O.2       22 UNK        -0.5000 
    124 C124       -1.7053  -17.1602  -55.8813 C.3       23 UNK        -0.0398 
    125 S125       -2.2449  -17.9705  -54.3355 S.3       23 UNK        -0.2404 
    126 C126       -1.0008  -17.3396  -53.1698 C.3       23 UNK        -0.0205 
    127 H127        2.0382  -17.9541  -51.4712 H         1 UNK         0.0600 
    128 H128        3.1796  -16.7270  -52.0361 H         1 UNK         0.0600 
    129 H129        1.4625  -16.3433  -51.9312 H         1 UNK         0.0600 
    130 H130        0.4518  -16.2814  -49.7437 H         1 UNK         0.3000 
    131 H131        2.1125  -16.2326  -47.3894 H         1 UNK         0.0600 
    132 H132       -0.1461  -17.0818  -47.2474 H         1 UNK         0.0800 
    133 H133        0.0271  -15.7122  -46.1909 H         1 UNK         0.0800 
    134 H134       -2.7437  -17.1724  -47.4854 H         1 UNK         0.0800 
    135 H135       -3.4967  -16.2364  -48.7492 H         1 UNK         0.0800 
    136 H136       -1.9806  -16.0046  -50.9939 H         1 UNK         0.1150 
    137 H137       -0.5722  -19.8562  -52.2392 H         1 UNK         0.1150 
    138 H138       -1.8476  -19.2469  -48.1928 H         1 UNK         0.1150 
    139 H139       -1.6929  -21.5583  -49.1855 H         1 UNK         0.0800 
    140 H140       -1.1483  -21.7534  -50.8237 H         1 UNK         0.0800 
    141 H141        1.3516  -20.5872  -47.2941 H         1 UNK         0.0800 
    142 H142       -0.3727  -20.7985  -47.2995 H         1 UNK         0.0800 
    143 H143        1.5813  -23.1491  -47.1520 H         1 UNK         0.0600 
    144 H144        1.0645  -21.3035  -45.0746 H         1 UNK         0.3000 
    145 H145        1.8407  -23.4954  -42.3451 H         1 UNK         0.0600 
    146 H146        3.4150  -21.6312  -41.9248 H         1 UNK         0.0600 
    147 H147        3.9860  -22.6147  -43.2646 H         1 UNK         0.0600 
    148 H148        3.2279  -21.0590  -43.5808 H         1 UNK         0.0600 
    149 H149        1.0586  -20.7695  -42.3566 H         1 UNK         0.3000 
    150 H150       -2.4952  -21.3446  -42.1121 H         1 UNK         0.0600 
    151 H151       -1.4820  -21.5153  -39.8343 H         1 UNK         0.0600 
    152 H152       -2.0982  -19.8990  -40.1447 H         1 UNK         0.0600 
    153 H153       -0.3662  -20.2111  -40.2213 H         1 UNK         0.0600 
    154 H154       -1.0810  -18.9069  -42.2422 H         1 UNK         0.3000 
    155 H155       -1.0684  -18.5527  -45.8163 H         1 UNK         0.0600 
    156 H156       -2.0580  -16.3808  -45.0359 H         1 UNK         0.0600 
    157 H157       -2.4693  -17.1244  -43.4951 H         1 UNK         0.0600 
    158 H158       -3.2238  -17.6941  -44.9741 H         1 UNK         0.0600 
    159 H159        0.0801  -16.8991  -43.8161 H         1 UNK         0.3000 
    160 H160        3.2737  -18.5268  -43.6000 H         1 UNK         0.0600 
    161 H161        2.3594  -15.8969  -44.8683 H         1 UNK         0.0600 
    162 H162        3.4825  -17.0643  -45.5493 H         1 UNK         0.0600 
    163 H163        3.9359  -16.1545  -44.1178 H         1 UNK         0.0600 
    164 H164        2.0461  -16.2300  -42.3454 H         1 UNK         0.3000 
    165 H165        0.8601  -17.9780  -39.4705 H         1 UNK         0.0600 
    166 H166        3.2117  -16.0388  -39.8221 H         1 UNK         0.0600 
    167 H167        2.3126  -16.3217  -38.3311 H         1 UNK         0.0600 
    168 H168        3.2907  -17.6052  -39.0243 H         1 UNK         0.0600 
    169 H169        0.9032  -15.2085  -40.1969 H         1 UNK         0.3000 
    170 H170       -2.1118  -15.1508  -42.0709 H         1 UNK         0.0600 
    171 H171       -2.9231  -15.1820  -39.7081 H         1 UNK         0.0600 
    172 H172       -1.5766  -14.1603  -39.2190 H         1 UNK         0.0600 
    173 H173       -2.8064  -13.5407  -40.3217 H         1 UNK         0.0600 
    174 H174       -0.4523  -13.0496  -41.1453 H         1 UNK         0.3000 
    175 H175        1.0186  -12.0046  -42.3334 H         1 UNK         0.0600 
    176 H176        3.2693  -12.2954  -43.2093 H         1 UNK         0.0600 
    177 H177        2.8819  -13.6955  -42.2214 H         1 UNK         0.0600 
    178 H178        2.8466  -13.8174  -43.9780 H         1 UNK         0.0600 
    179 H179        1.2013  -12.6001  -45.2335 H         1 UNK         0.3000 
    180 H180       -1.2684  -10.9540  -46.3180 H         1 UNK         0.0600 
    181 H181       -0.5361   -8.6522  -46.9942 H         1 UNK         0.0600 
    182 H182       -1.1364   -8.6633  -45.3461 H         1 UNK         0.0600 
    183 H183        0.5979   -8.6106  -45.6449 H         1 UNK         0.0600 
    184 H184        1.6407  -11.2335  -46.5097 H         1 UNK         0.3000 
    185 H185        1.6035  -11.7040  -50.0097 H         1 UNK         0.0600 
    186 H186        3.8980  -11.8367  -49.1488 H         1 UNK         0.0600 
    187 H187        3.1528  -10.3487  -48.5918 H         1 UNK         0.0600 
    188 H188        3.3553  -11.6985  -47.4838 H         1 UNK         0.0600 
    189 H189        1.4008  -13.8906  -49.7348 H         1 UNK         0.3000 
    190 H190       -1.4492  -22.4144  -45.3645 H         1 UNK         0.3000 
    191 H191       -3.1145  -24.2642  -46.7476 H         1 UNK         0.0600 
    192 H192       -4.6132  -23.9655  -44.7691 H         1 UNK         0.0600 
    193 H193       -4.0186  -22.4239  -45.3676 H         1 UNK         0.0600 
    194 H194       -3.3256  -23.1290  -43.9090 H         1 UNK         0.0600 
    195 H195       -1.1005  -24.6356  -43.7781 H         1 UNK         0.3000 
    196 H196       -1.7952  -27.3258  -43.2151 H         1 UNK         0.0600 
    197 H197        0.2665  -27.2886  -41.8076 H         1 UNK         0.0600 
    198 H198       -0.6967  -25.8393  -41.5697 H         1 UNK         0.0600 
    199 H199        0.7635  -25.7764  -42.5551 H         1 UNK         0.0600 
    200 H200        0.5863  -25.9738  -45.4590 H         1 UNK         0.3000 
    201 H201        1.7719  -28.5031  -46.2253 H         1 UNK         0.0600 
    202 H202        2.9678  -26.3210  -46.4288 H         1 UNK         0.0600 
    203 H203        1.7938  -25.7771  -47.6244 H         1 UNK         0.0600 
    204 H204        2.8521  -27.1335  -47.9811 H         1 UNK         0.0600 
    205 H205       -1.3225  -27.3830  -46.7121 H         1 UNK         0.3000 
    206 H206       -3.0614  -28.0175  -47.8552 H         1 UNK         0.0600 
    207 H207       -2.1899  -30.3451  -47.5168 H         1 UNK         0.0600 
    208 H208       -3.1579  -30.1871  -48.9720 H         1 UNK         0.0600 
    209 H209       -1.4081  -30.2712  -49.0963 H         1 UNK         0.0600 
    210 H210       -1.1855  -26.0248  -49.0089 H         1 UNK         0.3000 
    211 H211       -1.8206  -26.1396  -51.9062 H         1 UNK         0.0600 
    212 H212       -0.2650  -24.1335  -50.2022 H         1 UNK         0.0600 
    213 H213       -0.5090  -24.0017  -51.9407 H         1 UNK         0.0600 
    214 H214        0.4270  -25.3372  -51.2823 H         1 UNK         0.0600 
    215 H215       -3.3044  -24.7285  -52.8439 H         1 UNK         0.3000 
    216 H216       -5.4989  -23.7758  -51.2255 H         1 UNK         0.0600 
    217 H217       -6.3996  -23.0331  -53.4335 H         1 UNK         0.0600 
    218 H218       -5.8546  -24.7023  -53.5015 H         1 UNK         0.0600 
    219 H219       -4.8680  -23.4209  -54.2068 H         1 UNK         0.0600 
    220 H220       -5.8501  -21.7501  -50.4380 H         1 UNK         0.3000 
    221 H221       -3.7463  -19.7135  -50.7726 H         1 UNK         0.0600 
    222 H222       -6.1126  -19.9116  -48.8342 H         1 UNK         0.0600 
    223 H223       -4.4373  -20.3276  -48.4684 H         1 UNK         0.0600 
    224 H224       -4.8754  -18.6614  -48.8114 H         1 UNK         0.0600 
    225 H225       -4.0147  -17.8131  -51.7191 H         1 UNK         0.3000 
    226 H226       -4.7328  -16.1678  -52.9771 H         1 UNK         0.0600 
    227 H227       -6.0897  -15.6453  -50.9334 H         1 UNK         0.0600 
    228 H228       -6.8557  -15.0606  -52.3947 H         1 UNK         0.0600 
    229 H229       -7.4564  -16.5227  -51.6104 H         1 UNK         0.0600 
    230 H230       -7.7440  -16.0855  -53.8726 H         1 UNK         0.3000 
    231 H231       -8.8544  -16.3731  -55.7724 H         1 UNK         0.0600 
    232 H232       -9.1412  -18.7141  -56.6263 H         1 UNK         0.0600 
    233 H233       -9.3164  -18.6184  -54.8838 H         1 UNK         0.0600 
    234 H234       -7.8387  -19.2677  -55.5760 H         1 UNK         0.0600 
    235 H235       -6.7906  -18.7422  -57.2147 H         1 UNK         0.3000 
    236 H236       -6.1137  -17.2017  -59.4888 H         1 UNK         0.0600 
    237 H237       -4.8833  -19.7871  -58.3918 H         1 UNK         0.0600 
    238 H238       -6.2530  -19.6766  -59.4988 H         1 UNK         0.0600 
    239 H239       -4.6565  -19.1663  -60.0227 H         1 UNK         0.0600 
    240 H240       -4.4618  -17.5037  -56.3743 H         1 UNK         0.3000 
    241 H241       -2.2491  -15.7831  -57.3944 H         1 UNK         0.0600 
    242 H242       -5.1492  -15.0426  -56.2702 H         1 UNK         0.3800 
    243 H243       -4.6934  -13.7970  -55.1356 H         1 UNK         0.3800 
    244 H244       -1.4116  -17.9442  -56.5803 H         1 UNK         0.0800 
    245 H245       -0.7946  -16.5888  -55.6950 H         1 UNK         0.0800 
    246 H246       -0.0078  -17.6382  -53.5087 H         1 UNK         0.0800 
    247 H247       -1.0199  -16.2485  -53.1770 H         1 UNK         0.0800 
@<TRIPOS>BOND
     1    1    2 1    
     2    1  127 1    
     3    1  128 1    
     4    1  129 1    
     5    2    3 2    
     6    2    4 am   BACKBONE|DICT|INTERRES
     7    4    5 1    
     8    4  130 1    
     9    5    6 1    
    10    5   65 1    
    11    5  131 1    
    12    6    7 1    
    13    6  132 1    
    14    6  133 1    
    15    7    8 1    
    16    8    9 1    
    17    8  134 1    
    18    8  135 1    
    19    9   10 ar   
    20    9   14 ar   
    21   10   11 ar   
    22   10  136 1    
    23   11   12 ar   
    24   11  126 1    
    25   12   13 ar   
    26   12  137 1    
    27   13   14 ar   
    28   13   15 1    
    29   14  138 1    
    30   15   16 1    
    31   15  139 1    
    32   15  140 1    
    33   16   17 1    
    34   17   18 1    
    35   17  141 1    
    36   17  142 1    
    37   18   19 1    
    38   18   67 1    
    39   18  143 1    
    40   19   20 am   BACKBONE|DICT|INTERRES
    41   19  144 1    
    42   20   21 2    
    43   20   22 1    
    44   22   23 1    
    45   22   24 1    
    46   22  145 1    
    47   23  146 1    
    48   23  147 1    
    49   23  148 1    
    50   24   25 am   BACKBONE|DICT|INTERRES
    51   24  149 1    
    52   25   26 2    
    53   25   27 1    
    54   27   28 1    
    55   27   29 1    
    56   27  150 1    
    57   28  151 1    
    58   28  152 1    
    59   28  153 1    
    60   29   30 am   BACKBONE|DICT|INTERRES
    61   29  154 1    
    62   30   31 2    
    63   30   32 1    
    64   32   33 1    
    65   32   34 1    
    66   32  155 1    
    67   33  156 1    
    68   33  157 1    
    69   33  158 1    
    70   34   35 am   BACKBONE|DICT|INTERRES
    71   34  159 1    
    72   35   36 2    
    73   35   37 1    
    74   37   38 1    
    75   37   39 1    
    76   37  160 1    
    77   38  161 1    
    78   38  162 1    
    79   38  163 1    
    80   39   40 am   BACKBONE|DICT|INTERRES
    81   39  164 1    
    82   40   41 2    
    83   40   42 1    
    84   42   43 1    
    85   42   44 1    
    86   42  165 1    
    87   43  166 1    
    88   43  167 1    
    89   43  168 1    
    90   44   45 am   BACKBONE|DICT|INTERRES
    91   44  169 1    
    92   45   46 2    
    93   45   47 1    
    94   47   48 1    
    95   47   49 1    
    96   47  170 1    
    97   48  171 1    
    98   48  172 1    
    99   48  173 1    
   100   49   50 am   BACKBONE|DICT|INTERRES
   101   49  174 1    
   102   50   51 2    
   103   50   52 1    
   104   52   53 1    
   105   52   54 1    
   106   52  175 1    
   107   53  176 1    
   108   53  177 1    
   109   53  178 1    
   110   54   55 am   BACKBONE|DICT|INTERRES
   111   54  179 1    
   112   55   56 2    
   113   55   57 1    
   114   57   58 1    
   115   57   59 1    
   116   57  180 1    
   117   58  181 1    
   118   58  182 1    
   119   58  183 1    
   120   59   60 am   BACKBONE|DICT|INTERRES
   121   59  184 1    
   122   60   61 2    
   123   60   62 1    
   124   62   63 1    
   125   62   64 1    
   126   62  185 1    
   127   63  186 1    
   128   63  187 1    
   129   63  188 1    
   130   64   65 am   BACKBONE|DICT|INTERRES
   131   64  189 1    
   132   65   66 2    
   133   67   68 2    
   134   67   69 am   BACKBONE|DICT|INTERRES
   135   69   70 1    
   136   69  190 1    
   137   70   71 1    
   138   70   72 1    
   139   70  191 1    
   140   71  192 1    
   141   71  193 1    
   142   71  194 1    
   143   72   73 2    
   144   72   74 am   BACKBONE|DICT|INTERRES
   145   74   75 1    
   146   74  195 1    
   147   75   76 1    
   148   75   77 1    
   149   75  196 1    
   150   76  197 1    
   151   76  198 1    
   152   76  199 1    
   153   77   78 2    
   154   77   79 am   BACKBONE|DICT|INTERRES
   155   79   80 1    
   156   79  200 1    
   157   80   81 1    
   158   80   82 1    
   159   80  201 1    
   160   81  202 1    
   161   81  203 1    
   162   81  204 1    
   163   82   83 2    
   164   82   84 am   BACKBONE|DICT|INTERRES
   165   84   85 1    
   166   84  205 1    
   167   85   86 1    
   168   85   87 1    
   169   85  206 1    
   170   86  207 1    
   171   86  208 1    
   172   86  209 1    
   173   87   88 2    
   174   87   89 am   BACKBONE|DICT|INTERRES
   175   89   90 1    
   176   89  210 1    
   177   90   91 1    
   178   90   92 1    
   179   90  211 1    
   180   91  212 1    
   181   91  213 1    
   182   91  214 1    
   183   92   93 2    
   184   92   94 am   BACKBONE|DICT|INTERRES
   185   94   95 1    
   186   94  215 1    
   187   95   96 1    
   188   95   97 1    
   189   95  216 1    
   190   96  217 1    
   191   96  218 1    
   192   96  219 1    
   193   97   98 2    
   194   97   99 am   BACKBONE|DICT|INTERRES
   195   99  100 1    
   196   99  220 1    
   197  100  101 1    
   198  100  102 1    
   199  100  221 1    
   200  101  222 1    
   201  101  223 1    
   202  101  224 1    
   203  102  103 2    
   204  102  104 am   BACKBONE|DICT|INTERRES
   205  104  105 1    
   206  104  225 1    
   207  105  106 1    
   208  105  107 1    
   209  105  226 1    
   210  106  227 1    
   211  106  228 1    
   212  106  229 1    
   213  107  108 2    
   214  107  109 am   BACKBONE|DICT|INTERRES
   215  109  110 1    
   216  109  230 1    
   217  110  111 1    
   218  110  112 1    
   219  110  231 1    
   220  111  232 1    
   221  111  233 1    
   222  111  234 1    
   223  112  113 2    
   224  112  114 am   BACKBONE|DICT|INTERRES
   225  114  115 1    
   226  114  235 1    
   227  115  116 1    
   228  115  117 1    
   229  115  236 1    
   230  116  237 1    
   231  116  238 1    
   232  116  239 1    
   233  117  118 2    
   234  117  119 am   BACKBONE|DICT|INTERRES
   235  119  120 1    
   236  119  240 1    
   237  120  121 1    
   238  120  124 1    
   239  120  241 1    
   240  121  122 am   BACKBONE|DICT|INTERRES
   241  121  123 2    
   242  122  242 1    
   243  122  243 1    
   244  124  125 1    
   245  124  244 1    
   246  124  245 1    
   247  125  126 1    
   248  126  246 1    
   249  126  247 1    
@<TRIPOS>SUBSTRUCTURE
     1 UNK         1 GROUP             0       ****    0 ROOT    
