@<TRIPOS>MOLECULE
3R540
247   249    1
SMALL
USER_CHARGES


@<TRIPOS>ATOM
      1 CA         -1.6306  -12.3140  -46.0652 C.3       0 UNK        -0.1800 
      2 C          -0.3053  -11.7266  -46.5291 C.2       0 UNK         0.5000 
      3 O          -0.2902  -10.6835  -47.1834 O.2       0 UNK        -0.5000 
      4 N           0.8032  -12.3968  -46.1956 N.am      1 UNK        -0.5000 
      5 CA          2.1775  -11.9633  -46.4751 C.3       1 UNK         0.1400 
      6 C6          3.2190  -13.0975  -46.2638 C.3       23 UNK        -0.0398 
      7 S7          2.6872  -14.7409  -46.8425 S.3       23 UNK        -0.2404 
      8 C8          2.8425  -14.6000  -48.6447 C.3       23 UNK        -0.0205 
      9 C9          2.1884  -15.7958  -49.3181 C.ar      23 UNK        -0.0193 
     10 C10         0.8825  -15.7031  -49.8097 C.ar      23 UNK        -0.1150 
     11 C11         0.2601  -16.8051  -50.4064 C.ar      23 UNK        -0.0193 
     12 C12         0.9713  -18.0056  -50.5141 C.ar      23 UNK        -0.1150 
     13 C13         2.2698  -18.1193  -50.0070 C.ar      23 UNK        -0.0193 
     14 C14         2.8764  -17.0076  -49.4181 C.ar      23 UNK        -0.1150 
     15 C15         3.0082  -19.4495  -50.0753 C.3       23 UNK        -0.0205 
     16 S16         2.6997  -20.4741  -48.5974 S.3       23 UNK        -0.2404 
     17 C17         0.9115  -20.7658  -48.7769 C.3       23 UNK        -0.0398 
     18 CA          0.3818  -21.9804  -47.9866 C.3       11 UNK         0.1400 
     19 N           0.3429  -21.7416  -46.5415 N.am      11 UNK        -0.5000 
     20 C          -0.0058  -22.6540  -45.6223 C.2       10 UNK         0.5000 
     21 O          -0.2589  -23.8308  -45.8853 O.2       10 UNK        -0.5000 
     22 CA         -0.1587  -22.1529  -44.1735 C.3       10 UNK         0.1400 
     23 CB          1.2088  -21.9913  -43.4932 C.3       10 UNK        -0.1800 
     24 N          -0.9054  -20.8953  -44.0947 N.am      10 UNK        -0.5000 
     25 C          -2.1887  -20.7546  -44.4588 C.2       9 UNK         0.5000 
     26 O          -2.8952  -21.6845  -44.8453 O.2       9 UNK        -0.5000 
     27 CA         -2.7691  -19.3302  -44.4371 C.3       9 UNK         0.1400 
     28 CB         -3.2381  -18.9420  -43.0269 C.3       9 UNK        -0.1800 
     29 N          -1.8144  -18.3413  -44.9334 N.am      9 UNK        -0.5000 
     30 C          -1.3971  -18.2623  -46.2054 C.2       8 UNK         0.5000 
     31 O          -1.8079  -18.9864  -47.1110 O.2       8 UNK        -0.5000 
     32 CA         -0.3023  -17.2260  -46.5012 C.3       8 UNK         0.1400 
     33 CB         -0.9324  -15.8426  -46.7214 C.3       8 UNK        -0.1800 
     34 N           0.6960  -17.1664  -45.4311 N.am      8 UNK        -0.5000 
     35 C           1.5346  -18.1730  -45.1380 C.2       7 UNK         0.5000 
     36 O           1.5497  -19.2407  -45.7467 O.2       7 UNK        -0.5000 
     37 CA          2.4565  -18.0016  -43.9159 C.3       7 UNK         0.1400 
     38 CB          3.8102  -17.4005  -44.3179 C.3       7 UNK        -0.1800 
     39 N           1.8476  -17.2012  -42.8531 N.am      7 UNK        -0.5000 
     40 C           0.7581  -17.5823  -42.1679 C.2       6 UNK         0.5000 
     41 O           0.1999  -18.6666  -42.3420 O.2       6 UNK        -0.5000 
     42 CA          0.1649  -16.5927  -41.1444 C.3       6 UNK         0.1400 
     43 CB          0.5730  -16.9909  -39.7184 C.3       6 UNK        -0.1800 
     44 N           0.5365  -15.1947  -41.3712 N.am      6 UNK        -0.5000 
     45 C           0.2268  -14.4730  -42.4571 C.2       5 UNK         0.5000 
     46 O          -0.4312  -14.9061  -43.4034 O.2       5 UNK        -0.5000 
     47 CA          0.7971  -13.0436  -42.5230 C.3       5 UNK         0.1400 
     48 CB         -0.2181  -12.0267  -41.9838 C.3       5 UNK        -0.1800 
     49 N           2.0817  -12.8578  -41.8398 N.am      5 UNK        -0.5000 
     50 C           3.2086  -13.5339  -42.1009 C.2       4 UNK         0.5000 
     51 O           3.2594  -14.4832  -42.8837 O.2       4 UNK        -0.5000 
     52 CA          4.4830  -13.0569  -41.3760 C.3       4 UNK         0.1400 
     53 CB          5.7283  -13.8671  -41.7790 C.3       4 UNK        -0.1800 
     54 N           4.7477  -11.6408  -41.6310 N.am      4 UNK        -0.5000 
     55 C           4.1877  -10.6058  -40.9962 C.2       3 UNK         0.5000 
     56 O           3.3351  -10.7342  -40.1164 O.2       3 UNK        -0.5000 
     57 CA          4.6339   -9.1941  -41.4264 C.3       3 UNK         0.1400 
     58 CB          6.1179   -8.9383  -41.0964 C.3       3 UNK        -0.1800 
     59 N           4.3258   -8.8759  -42.8268 N.am      3 UNK        -0.5000 
     60 C           4.8152   -9.4342  -43.9423 C.2       2 UNK         0.5000 
     61 O           5.6729  -10.3208  -43.9611 O.2       2 UNK        -0.5000 
     62 CA          4.2224   -8.9287  -45.2721 C.3       2 UNK         0.1400 
     63 CB          5.2992   -8.2463  -46.1301 C.3       2 UNK        -0.1800 
     64 N           3.6220  -10.0261  -46.0319 N.am      2 UNK        -0.5000 
     65 C           2.5641  -10.7365  -45.6184 C.2       1 UNK         0.5000 
     66 O           1.9379  -10.4781  -44.5866 O.2       1 UNK        -0.5000 
     67 C          -1.0016  -22.3874  -48.5308 C.2       11 UNK         0.5000 
     68 O          -1.0953  -23.3921  -49.2328 O.2       11 UNK        -0.5000 
     69 N          -2.0517  -21.6310  -48.1751 N.am      12 UNK        -0.5000 
     70 CA         -3.4346  -21.9069  -48.5642 C.3       12 UNK         0.1400 
     71 CB         -4.3602  -20.7858  -48.0727 C.3       12 UNK        -0.1800 
     72 C          -3.9321  -23.2782  -48.0796 C.2       12 UNK         0.5000 
     73 O          -4.5458  -23.9983  -48.8646 O.2       12 UNK        -0.5000 
     74 N          -3.6260  -23.6366  -46.8252 N.am      13 UNK        -0.5000 
     75 CA         -3.9319  -24.9414  -46.2367 C.3       13 UNK         0.1400 
     76 CB         -3.5649  -24.9390  -44.7453 C.3       13 UNK        -0.1800 
     77 C          -3.2401  -26.1031  -46.9733 C.2       13 UNK         0.5000 
     78 O          -3.8967  -27.0991  -47.2809 O.2       13 UNK        -0.5000 
     79 N          -1.9481  -25.9342  -47.2923 N.am      14 UNK        -0.5000 
     80 CA         -1.1614  -26.8775  -48.0934 C.3       14 UNK         0.1400 
     81 CB          0.3159  -26.4571  -48.0754 C.3       14 UNK        -0.1800 
     82 C          -1.6785  -27.0132  -49.5405 C.2       14 UNK         0.5000 
     83 O          -1.6557  -28.1109  -50.0971 O.2       14 UNK        -0.5000 
     84 N          -2.1836  -25.9070  -50.0992 N.am      15 UNK        -0.5000 
     85 CA         -2.8251  -25.8092  -51.4104 C.3       15 UNK         0.1400 
     86 CB         -2.6111  -24.3861  -51.9550 C.3       15 UNK        -0.1800 
     87 C          -4.3214  -26.1983  -51.3988 C.2       15 UNK         0.5000 
     88 O          -5.0404  -25.8250  -52.3257 O.2       15 UNK        -0.5000 
     89 N          -4.7723  -26.9318  -50.3688 N.am      16 UNK        -0.5000 
     90 CA         -6.1187  -27.4908  -50.1968 C.3       16 UNK         0.1400 
     91 CB         -6.3937  -28.5755  -51.2599 C.3       16 UNK        -0.1800 
     92 C          -7.2160  -26.4082  -50.1390 C.2       16 UNK         0.5000 
     93 O          -8.1980  -26.4737  -50.8806 O.2       16 UNK        -0.5000 
     94 N          -7.0027  -25.4238  -49.2554 N.am      17 UNK        -0.5000 
     95 CA         -7.8004  -24.2079  -49.0602 C.3       17 UNK         0.1400 
     96 CB         -9.2471  -24.5336  -48.6315 C.3       17 UNK        -0.1800 
     97 C          -7.7091  -23.2635  -50.2762 C.2       17 UNK         0.5000 
     98 O          -8.7150  -22.6879  -50.6946 O.2       17 UNK        -0.5000 
     99 N          -6.4830  -23.1308  -50.8046 N.am      18 UNK        -0.5000 
    100 CA        -6.0819  -22.3372  -51.9681 C.3       18 UNK         0.1400 
    101 CB        -6.1279  -20.8307  -51.6380 C.3       18 UNK        -0.1800 
    102 C         -6.8738  -22.7060  -53.2381 C.2       18 UNK         0.5000 
    103 O         -7.5241  -21.8464  -53.8371 O.2       18 UNK        -0.5000 
    104 N         -6.8185  -23.9914  -53.6133 N.am      19 UNK        -0.5000 
    105 CA        -7.4217  -24.5384  -54.8269 C.3       19 UNK         0.1400 
    106 CB        -7.2953  -26.0702  -54.8102 C.3       19 UNK        -0.1800 
    107 C         -6.7625  -23.9271  -56.0772 C.2       19 UNK         0.5000 
    108 O         -5.5887  -24.1932  -56.3409 O.2       19 UNK        -0.5000 
    109 N         -7.5144  -23.0657  -56.7750 N.am      20 UNK        -0.5000 
    110 CA        -7.1252  -22.1939  -57.8927 C.3       20 UNK         0.1400 
    111 CB        -6.5285  -22.9863  -59.0723 C.3       20 UNK        -0.1800 
    112 C         -6.2159  -21.0159  -57.4825 C.2       20 UNK         0.5000 
    113 O         -6.4374  -19.8997  -57.9543 O.2       20 UNK        -0.5000 
    114 N         -5.2381  -21.2601  -56.6046 N.am      21 UNK        -0.5000 
    115 CA        -4.3293  -20.2739  -56.0298 C.3       21 UNK         0.1400 
    116 CB        -3.2322  -19.9106  -57.0487 C.3       21 UNK        -0.1800 
    117 C         -3.7146  -20.8445  -54.7433 C.2       21 UNK         0.5000 
    118 O         -3.7641  -22.0560  -54.5226 O.2       21 UNK        -0.5000 
    119 N         -3.1255  -19.9649  -53.9256 N.am      22 UNK        -0.5000 
    120 CA        -2.3654  -20.3241  -52.7149 C.3       22 UNK         0.1400 
    121 C         -0.9541  -20.9290  -52.9834 C.2       22 UNK         0.5000 
    122 N         -0.4447  -20.9297  -54.2094 N.am      22 UNK        -0.7600 
    123 O         -0.3126  -21.4180  -52.0613 O.2       22 UNK        -0.5000 
    124 C124       -2.3133  -19.1501  -51.7000 C.3       23 UNK        -0.0398 
    125 S125       -1.5991  -17.6107  -52.3871 S.3       23 UNK        -0.2404 
    126 C126       -1.1923  -16.6809  -50.8683 C.3       23 UNK        -0.0205 
    127 H127       -2.2647  -11.5314  -45.6485 H         1 UNK         0.0600 
    128 H128       -1.4868  -13.0726  -45.2957 H         1 UNK         0.0600 
    129 H129       -2.1546  -12.7703  -46.9049 H         1 UNK         0.0600 
    130 H130        0.7240  -13.2611  -45.6814 H         1 UNK         0.3000 
    131 H131        2.2137  -11.6603  -47.5234 H         1 UNK         0.0600 
    132 H132        4.1631  -12.8457  -46.7495 H         1 UNK         0.0800 
    133 H133        3.4526  -13.2096  -45.2039 H         1 UNK         0.0800 
    134 H134        3.8966  -14.5411  -48.9195 H         1 UNK         0.0800 
    135 H135        2.3755  -13.6749  -48.9850 H         1 UNK         0.0800 
    136 H136        0.3417  -14.7727  -49.7068 H         1 UNK         0.1150 
    137 H137        0.5083  -18.8673  -50.9699 H         1 UNK         0.1150 
    138 H138        3.8764  -17.0906  -49.0159 H         1 UNK         0.1150 
    139 H139        2.7150  -19.9993  -50.9712 H         1 UNK         0.0800 
    140 H140        4.0812  -19.2737  -50.1648 H         1 UNK         0.0800 
    141 H141        0.7268  -20.9083  -49.8403 H         1 UNK         0.0800 
    142 H142        0.3771  -19.8602  -48.4875 H         1 UNK         0.0800 
    143 H143        1.0548  -22.8225  -48.1610 H         1 UNK         0.0600 
    144 H144        0.6018  -20.8067  -46.2347 H         1 UNK         0.3000 
    145 H145       -0.7229  -22.9063  -43.6199 H         1 UNK         0.0600 
    146 H146        1.0999  -21.6561  -42.4615 H         1 UNK         0.0600 
    147 H147        1.7463  -22.9400  -43.4737 H         1 UNK         0.0600 
    148 H148        1.8385  -21.2710  -44.0144 H         1 UNK         0.0600 
    149 H149       -0.4070  -20.0840  -43.7459 H         1 UNK         0.3000 
    150 H150       -3.6400  -19.3145  -45.0953 H         1 UNK         0.0600 
    151 H151       -3.9933  -19.6405  -42.6645 H         1 UNK         0.0600 
    152 H152       -3.6852  -17.9478  -43.0195 H         1 UNK         0.0600 
    153 H153       -2.4191  -18.9468  -42.3080 H         1 UNK         0.0600 
    154 H154       -1.3951  -17.7271  -44.2505 H         1 UNK         0.3000 
    155 H155        0.2061  -17.5226  -47.4210 H         1 UNK         0.0600 
    156 H156       -1.4579  -15.4926  -45.8330 H         1 UNK         0.0600 
    157 H157       -1.6547  -15.8718  -47.5381 H         1 UNK         0.0600 
    158 H158       -0.1832  -15.0992  -46.9859 H         1 UNK         0.0600 
    159 H159        0.7074  -16.3337  -44.8575 H         1 UNK         0.3000 
    160 H160        2.6464  -18.9973  -43.5106 H         1 UNK         0.0600 
    161 H161        4.4960  -17.3723  -43.4711 H         1 UNK         0.0600 
    162 H162        3.7044  -16.3839  -44.6927 H         1 UNK         0.0600 
    163 H163        4.2826  -17.9919  -45.1032 H         1 UNK         0.0600 
    164 H164        2.2481  -16.2831  -42.6901 H         1 UNK         0.3000 
    165 H165       -0.9220  -16.6631  -41.2222 H         1 UNK         0.0600 
    166 H166        0.0871  -16.3569  -38.9765 H         1 UNK         0.0600 
    167 H167        0.2845  -18.0206  -39.5021 H         1 UNK         0.0600 
    168 H168        1.6513  -16.9147  -39.5731 H         1 UNK         0.0600 
    169 H169        1.0980  -14.7550  -40.6569 H         1 UNK         0.3000 
    170 H170        0.9678  -12.8223  -43.5747 H         1 UNK         0.0600 
    171 H171       -1.1776  -12.1236  -42.4938 H         1 UNK         0.0600 
    172 H172       -0.3954  -12.1623  -40.9163 H         1 UNK         0.0600 
    173 H173        0.1294  -11.0053  -42.1416 H         1 UNK         0.0600 
    174 H174        2.1431  -12.0863  -41.1850 H         1 UNK         0.3000 
    175 H175        4.3217  -13.2041  -40.3062 H         1 UNK         0.0600 
    176 H176        5.9475  -13.7641  -42.8428 H         1 UNK         0.0600 
    177 H177        6.6074  -13.5412  -41.2229 H         1 UNK         0.0600 
    178 H178        5.5899  -14.9292  -41.5723 H         1 UNK         0.0600 
    179 H179        5.3564  -11.4234  -42.4153 H         1 UNK         0.3000 
    180 H180        4.0492   -8.4908  -40.8312 H         1 UNK         0.0600 
    181 H181        6.7862   -9.5981  -41.6500 H         1 UNK         0.0600 
    182 H182        6.3115   -9.0983  -40.0350 H         1 UNK         0.0600 
    183 H183        6.3991   -7.9104  -41.3256 H         1 UNK         0.0600 
    184 H184        3.5930   -8.1892  -42.9417 H         1 UNK         0.3000 
    185 H185        3.4410   -8.1951  -45.0618 H         1 UNK         0.0600 
    186 H186        5.7560   -7.4146  -45.5922 H         1 UNK         0.0600 
    187 H187        6.0973   -8.9383  -46.4026 H         1 UNK         0.0600 
    188 H188        4.8749   -7.8436  -47.0500 H         1 UNK         0.0600 
    189 H189        4.1083  -10.3025  -46.8722 H         1 UNK         0.3000 
    190 H190       -1.8978  -20.7912  -47.6220 H         1 UNK         0.3000 
    191 H191       -3.4694  -21.9127  -49.6550 H         1 UNK         0.0600 
    192 H192       -4.3295  -20.6853  -46.9883 H         1 UNK         0.0600 
    193 H193       -5.3960  -20.9815  -48.3532 H         1 UNK         0.0600 
    194 H194       -4.0810  -19.8256  -48.5069 H         1 UNK         0.0600 
    195 H195       -3.1598  -22.9639  -46.2214 H         1 UNK         0.3000 
    196 H196       -5.0099  -25.0946  -46.3180 H         1 UNK         0.0600 
    197 H197       -3.7931  -25.9007  -44.2844 H         1 UNK         0.0600 
    198 H198       -4.1264  -24.1774  -44.2040 H         1 UNK         0.0600 
    199 H199       -2.5037  -24.7429  -44.5907 H         1 UNK         0.0600 
    200 H200       -1.4737  -25.0905  -46.9858 H         1 UNK         0.3000 
    201 H201       -1.2397  -27.8594  -47.6223 H         1 UNK         0.0600 
    202 H202        0.7034  -26.4240  -47.0569 H         1 UNK         0.0600 
    203 H203        0.4610  -25.4718  -48.5188 H         1 UNK         0.0600 
    204 H204        0.9299  -27.1633  -48.6355 H         1 UNK         0.0600 
    205 H205       -2.0962  -25.0345  -49.5859 H         1 UNK         0.3000 
    206 H206       -2.3295  -26.5017  -52.0932 H         1 UNK         0.0600 
    207 H207       -1.5501  -24.1427  -52.0142 H         1 UNK         0.0600 
    208 H208       -3.0219  -24.2741  -52.9592 H         1 UNK         0.0600 
    209 H209       -3.0848  -23.6411  -51.3174 H         1 UNK         0.0600 
    210 H210       -4.1214  -27.1369  -49.6221 H         1 UNK         0.3000 
    211 H211       -6.1225  -27.9808  -49.2220 H         1 UNK         0.0600 
    212 H212       -6.4360  -28.1578  -52.2663 H         1 UNK         0.0600 
    213 H213       -7.3463  -29.0723  -51.0726 H         1 UNK         0.0600 
    214 H214       -5.6201  -29.3432  -51.2481 H         1 UNK         0.0600 
    215 H215       -6.1082  -25.4187  -48.7791 H         1 UNK         0.3000 
    216 H216       -7.3331  -23.6737  -48.2316 H         1 UNK         0.0600 
    217 H217       -9.7768  -23.6270  -48.3368 H         1 UNK         0.0600 
    218 H218       -9.2625  -25.2101  -47.7770 H         1 UNK         0.0600 
    219 H219       -9.8194  -24.9947  -49.4365 H         1 UNK         0.0600 
    220 H220       -5.7384  -23.6504  -50.3494 H         1 UNK         0.3000 
    221 H221       -5.0435  -22.5948  -52.1738 H         1 UNK         0.0600 
    222 H222       -7.1363  -20.5011  -51.3868 H         1 UNK         0.0600 
    223 H223       -5.4768  -20.5905  -50.7991 H         1 UNK         0.0600 
    224 H224       -5.7917  -20.2338  -52.4862 H         1 UNK         0.0600 
    225 H225       -6.2318  -24.6329  -53.0826 H         1 UNK         0.3000 
    226 H226       -8.4844  -24.2878  -54.8195 H         1 UNK         0.0600 
    227 H227       -7.7853  -26.4954  -53.9338 H         1 UNK         0.0600 
    228 H228       -7.7613  -26.5099  -55.6926 H         1 UNK         0.0600 
    229 H229       -6.2522  -26.3890  -54.7945 H         1 UNK         0.0600 
    230 H230       -8.4443  -22.8862  -56.4213 H         1 UNK         0.3000 
    231 H231       -8.0583  -21.7520  -58.2459 H         1 UNK         0.0600 
    232 H232       -7.1869  -23.8006  -59.3750 H         1 UNK         0.0600 
    233 H233       -5.5543  -23.4119  -58.8315 H         1 UNK         0.0600 
    234 H234       -6.3907  -22.3397  -59.9396 H         1 UNK         0.0600 
    235 H235       -5.1197  -22.2056  -56.2483 H         1 UNK         0.3000 
    236 H236       -4.8979  -19.3798  -55.7660 H         1 UNK         0.0600 
    237 H237       -2.5389  -19.1754  -56.6387 H         1 UNK         0.0600 
    238 H238       -2.6512  -20.7869  -57.3391 H         1 UNK         0.0600 
    239 H239       -3.6567  -19.4776  -57.9544 H         1 UNK         0.0600 
    240 H240       -3.1084  -18.9857  -54.1738 H         1 UNK         0.3000 
    241 H241       -2.9174  -21.1263  -52.2214 H         1 UNK         0.0600 
    242 H242        0.4662  -21.3319  -54.3629 H         1 UNK         0.3800 
    243 H243       -0.9539  -20.5311  -54.9800 H         1 UNK         0.3800 
    244 H244       -3.3253  -18.9227  -51.3624 H         1 UNK         0.0800 
    245 H245       -1.7682  -19.4430  -50.8007 H         1 UNK         0.0800 
    246 H246       -1.8496  -16.9921  -50.0550 H         1 UNK         0.0800 
    247 H247       -1.4240  -15.6321  -51.0599 H         1 UNK         0.0800 
@<TRIPOS>BOND
     1    1    2 1    
     2    1  127 1    
     3    1  128 1    
     4    1  129 1    
     5    2    3 2    
     6    2    4 am   BACKBONE|DICT|INTERRES
     7    4    5 1    
     8    4  130 1    
     9    5    6 1    
    10    5   65 1    
    11    5  131 1    
    12    6    7 1    
    13    6  132 1    
    14    6  133 1    
    15    7    8 1    
    16    8    9 1    
    17    8  134 1    
    18    8  135 1    
    19    9   10 ar   
    20    9   14 ar   
    21   10   11 ar   
    22   10  136 1    
    23   11   12 ar   
    24   11  126 1    
    25   12   13 ar   
    26   12  137 1    
    27   13   14 ar   
    28   13   15 1    
    29   14  138 1    
    30   15   16 1    
    31   15  139 1    
    32   15  140 1    
    33   16   17 1    
    34   17   18 1    
    35   17  141 1    
    36   17  142 1    
    37   18   19 1    
    38   18   67 1    
    39   18  143 1    
    40   19   20 am   BACKBONE|DICT|INTERRES
    41   19  144 1    
    42   20   21 2    
    43   20   22 1    
    44   22   23 1    
    45   22   24 1    
    46   22  145 1    
    47   23  146 1    
    48   23  147 1    
    49   23  148 1    
    50   24   25 am   BACKBONE|DICT|INTERRES
    51   24  149 1    
    52   25   26 2    
    53   25   27 1    
    54   27   28 1    
    55   27   29 1    
    56   27  150 1    
    57   28  151 1    
    58   28  152 1    
    59   28  153 1    
    60   29   30 am   BACKBONE|DICT|INTERRES
    61   29  154 1    
    62   30   31 2    
    63   30   32 1    
    64   32   33 1    
    65   32   34 1    
    66   32  155 1    
    67   33  156 1    
    68   33  157 1    
    69   33  158 1    
    70   34   35 am   BACKBONE|DICT|INTERRES
    71   34  159 1    
    72   35   36 2    
    73   35   37 1    
    74   37   38 1    
    75   37   39 1    
    76   37  160 1    
    77   38  161 1    
    78   38  162 1    
    79   38  163 1    
    80   39   40 am   BACKBONE|DICT|INTERRES
    81   39  164 1    
    82   40   41 2    
    83   40   42 1    
    84   42   43 1    
    85   42   44 1    
    86   42  165 1    
    87   43  166 1    
    88   43  167 1    
    89   43  168 1    
    90   44   45 am   BACKBONE|DICT|INTERRES
    91   44  169 1    
    92   45   46 2    
    93   45   47 1    
    94   47   48 1    
    95   47   49 1    
    96   47  170 1    
    97   48  171 1    
    98   48  172 1    
    99   48  173 1    
   100   49   50 am   BACKBONE|DICT|INTERRES
   101   49  174 1    
   102   50   51 2    
   103   50   52 1    
   104   52   53 1    
   105   52   54 1    
   106   52  175 1    
   107   53  176 1    
   108   53  177 1    
   109   53  178 1    
   110   54   55 am   BACKBONE|DICT|INTERRES
   111   54  179 1    
   112   55   56 2    
   113   55   57 1    
   114   57   58 1    
   115   57   59 1    
   116   57  180 1    
   117   58  181 1    
   118   58  182 1    
   119   58  183 1    
   120   59   60 am   BACKBONE|DICT|INTERRES
   121   59  184 1    
   122   60   61 2    
   123   60   62 1    
   124   62   63 1    
   125   62   64 1    
   126   62  185 1    
   127   63  186 1    
   128   63  187 1    
   129   63  188 1    
   130   64   65 am   BACKBONE|DICT|INTERRES
   131   64  189 1    
   132   65   66 2    
   133   67   68 2    
   134   67   69 am   BACKBONE|DICT|INTERRES
   135   69   70 1    
   136   69  190 1    
   137   70   71 1    
   138   70   72 1    
   139   70  191 1    
   140   71  192 1    
   141   71  193 1    
   142   71  194 1    
   143   72   73 2    
   144   72   74 am   BACKBONE|DICT|INTERRES
   145   74   75 1    
   146   74  195 1    
   147   75   76 1    
   148   75   77 1    
   149   75  196 1    
   150   76  197 1    
   151   76  198 1    
   152   76  199 1    
   153   77   78 2    
   154   77   79 am   BACKBONE|DICT|INTERRES
   155   79   80 1    
   156   79  200 1    
   157   80   81 1    
   158   80   82 1    
   159   80  201 1    
   160   81  202 1    
   161   81  203 1    
   162   81  204 1    
   163   82   83 2    
   164   82   84 am   BACKBONE|DICT|INTERRES
   165   84   85 1    
   166   84  205 1    
   167   85   86 1    
   168   85   87 1    
   169   85  206 1    
   170   86  207 1    
   171   86  208 1    
   172   86  209 1    
   173   87   88 2    
   174   87   89 am   BACKBONE|DICT|INTERRES
   175   89   90 1    
   176   89  210 1    
   177   90   91 1    
   178   90   92 1    
   179   90  211 1    
   180   91  212 1    
   181   91  213 1    
   182   91  214 1    
   183   92   93 2    
   184   92   94 am   BACKBONE|DICT|INTERRES
   185   94   95 1    
   186   94  215 1    
   187   95   96 1    
   188   95   97 1    
   189   95  216 1    
   190   96  217 1    
   191   96  218 1    
   192   96  219 1    
   193   97   98 2    
   194   97   99 am   BACKBONE|DICT|INTERRES
   195   99  100 1    
   196   99  220 1    
   197  100  101 1    
   198  100  102 1    
   199  100  221 1    
   200  101  222 1    
   201  101  223 1    
   202  101  224 1    
   203  102  103 2    
   204  102  104 am   BACKBONE|DICT|INTERRES
   205  104  105 1    
   206  104  225 1    
   207  105  106 1    
   208  105  107 1    
   209  105  226 1    
   210  106  227 1    
   211  106  228 1    
   212  106  229 1    
   213  107  108 2    
   214  107  109 am   BACKBONE|DICT|INTERRES
   215  109  110 1    
   216  109  230 1    
   217  110  111 1    
   218  110  112 1    
   219  110  231 1    
   220  111  232 1    
   221  111  233 1    
   222  111  234 1    
   223  112  113 2    
   224  112  114 am   BACKBONE|DICT|INTERRES
   225  114  115 1    
   226  114  235 1    
   227  115  116 1    
   228  115  117 1    
   229  115  236 1    
   230  116  237 1    
   231  116  238 1    
   232  116  239 1    
   233  117  118 2    
   234  117  119 am   BACKBONE|DICT|INTERRES
   235  119  120 1    
   236  119  240 1    
   237  120  121 1    
   238  120  124 1    
   239  120  241 1    
   240  121  122 am   BACKBONE|DICT|INTERRES
   241  121  123 2    
   242  122  242 1    
   243  122  243 1    
   244  124  125 1    
   245  124  244 1    
   246  124  245 1    
   247  125  126 1    
   248  126  246 1    
   249  126  247 1    
@<TRIPOS>SUBSTRUCTURE
     1 UNK         1 GROUP             0       ****    0 ROOT    
