@<TRIPOS>MOLECULE
3R540
247   249    1
SMALL
USER_CHARGES


@<TRIPOS>ATOM
      1 CA         -2.9221  -19.0402  -47.8338 C.3       0 UNK        -0.1800 
      2 C          -1.7251  -18.1424  -48.1138 C.2       0 UNK         0.5000 
      3 O          -0.6029  -18.6325  -48.1773 O.2       0 UNK        -0.5000 
      4 N          -1.9604  -16.8342  -48.2591 N.am      1 UNK        -0.5000 
      5 CA         -0.9477  -15.8011  -48.5153 C.3       1 UNK         0.1400 
      6 C6          0.1139  -15.6757  -47.3796 C.3       23 UNK        -0.0398 
      7 S7          1.5603  -14.6496  -47.8231 S.3       23 UNK        -0.2404 
      8 C8          2.9184  -15.8680  -47.8723 C.3       23 UNK        -0.0205 
      9 C9          2.7243  -16.9785  -48.9000 C.ar      23 UNK        -0.0193 
     10 C10         2.2811  -16.6912  -50.1950 C.ar      23 UNK        -0.1150 
     11 C11         2.0967  -17.7146  -51.1266 C.ar      23 UNK        -0.0193 
     12 C12         2.3943  -19.0324  -50.7698 C.ar      23 UNK        -0.1150 
     13 C13         2.8571  -19.3364  -49.4849 C.ar      23 UNK        -0.0193 
     14 C14         3.0186  -18.3027  -48.5569 C.ar      23 UNK        -0.1150 
     15 C15         3.2227  -20.7681  -49.1013 C.3       23 UNK        -0.0205 
     16 S16         1.9599  -21.9969  -49.5722 S.3       23 UNK        -0.2404 
     17 C17         0.5722  -21.5395  -48.4822 C.3       23 UNK        -0.0398 
     18 CA          0.0914  -22.7350  -47.6327 C.3       11 UNK         0.1400 
     19 N           1.0924  -23.1913  -46.6660 N.am      11 UNK        -0.5000 
     20 C           1.0854  -24.4119  -46.1131 C.2       10 UNK         0.5000 
     21 O           0.2388  -25.2659  -46.3716 O.2       10 UNK        -0.5000 
     22 CA          2.1684  -24.7249  -45.0638 C.3       10 UNK         0.1400 
     23 CB          3.4075  -25.3307  -45.7387 C.3       10 UNK        -0.1800 
     24 N           2.5726  -23.5641  -44.2709 N.am      10 UNK        -0.5000 
     25 C           1.7594  -22.8320  -43.4981 C.2       9 UNK         0.5000 
     26 O           0.5585  -23.0724  -43.3574 O.2       9 UNK        -0.5000 
     27 CA          2.3744  -21.5989  -42.8030 C.3       9 UNK         0.1400 
     28 CB          3.9187  -21.5913  -42.7860 C.3       9 UNK        -0.1800 
     29 N           1.8847  -20.3387  -43.3661 N.am      9 UNK        -0.5000 
     30 C           1.8718  -19.9671  -44.6554 C.2       8 UNK         0.5000 
     31 O           2.2298  -20.6877  -45.5874 O.2       8 UNK        -0.5000 
     32 CA          1.3984  -18.5322  -44.9467 C.3       8 UNK         0.1400 
     33 CB         -0.1182  -18.4059  -44.7624 C.3       8 UNK        -0.1800 
     34 N           2.0639  -17.5369  -44.1080 N.am      8 UNK        -0.5000 
     35 C           3.3761  -17.2626  -44.1331 C.2       7 UNK         0.5000 
     36 O           4.1767  -17.7847  -44.9088 O.2       7 UNK        -0.5000 
     37 CA          3.8773  -16.2344  -43.1064 C.3       7 UNK         0.1400 
     38 CB          3.6239  -14.7993  -43.5978 C.3       7 UNK        -0.1800 
     39 N           3.2381  -16.4377  -41.8061 N.am      7 UNK        -0.5000 
     40 C           3.6151  -17.3767  -40.9253 C.2       6 UNK         0.5000 
     41 O           4.5977  -18.1020  -41.0798 O.2       6 UNK        -0.5000 
     42 CA          2.7516  -17.5442  -39.6593 C.3       6 UNK         0.1400 
     43 CB          3.3215  -16.7039  -38.5064 C.3       6 UNK        -0.1800 
     44 N           1.3490  -17.1812  -39.8635 N.am      6 UNK        -0.5000 
     45 C           0.4805  -17.8697  -40.6174 C.2       5 UNK         0.5000 
     46 O           0.7567  -18.9206  -41.1939 O.2       5 UNK        -0.5000 
     47 CA         -0.9171  -17.2475  -40.8002 C.3       5 UNK         0.1400 
     48 CB         -1.8786  -17.7532  -39.7152 C.3       5 UNK        -0.1800 
     49 N          -0.9005  -15.7810  -40.7934 N.am      5 UNK        -0.5000 
     50 C          -0.2586  -15.0264  -41.6948 C.2       4 UNK         0.5000 
     51 O           0.4053  -15.4920  -42.6251 O.2       4 UNK        -0.5000 
     52 CA         -0.3047  -13.5033  -41.4695 C.3       4 UNK         0.1400 
     53 CB          0.9309  -13.0562  -40.6726 C.3       4 UNK        -0.1800 
     54 N          -0.3536  -12.7515  -42.7239 N.am      4 UNK        -0.5000 
     55 C          -1.3592  -12.8033  -43.6061 C.2       3 UNK         0.5000 
     56 O          -2.3890  -13.4596  -43.4232 O.2       3 UNK        -0.5000 
     57 CA         -1.1968  -11.9939  -44.9069 C.3       3 UNK         0.1400 
     58 CB          0.2583  -11.9524  -45.4191 C.3       3 UNK        -0.1800 
     59 N          -2.0627  -12.5983  -45.9109 N.am      3 UNK        -0.5000 
     60 C          -2.5956  -12.0114  -46.9880 C.2       2 UNK         0.5000 
     61 O          -2.4146  -10.8313  -47.2927 O.2       2 UNK        -0.5000 
     62 CA         -3.4607  -12.9401  -47.8682 C.3       2 UNK         0.1400 
     63 CB         -3.9148  -12.3019  -49.1990 C.3       2 UNK        -0.1800 
     64 N          -2.7885  -14.2333  -48.0660 N.am      2 UNK        -0.5000 
     65 C          -1.6492  -14.4480  -48.7505 C.2       1 UNK         0.5000 
     66 O          -1.1444  -13.6323  -49.5217 O.2       1 UNK        -0.5000 
     67 C          -1.2620  -22.4384  -46.9583 C.2       11 UNK         0.5000 
     68 O          -2.2924  -22.6365  -47.5993 O.2       11 UNK        -0.5000 
     69 N          -1.2637  -22.0363  -45.6770 N.am      12 UNK        -0.5000 
     70 CA         -2.4882  -21.9180  -44.8794 C.3       12 UNK         0.1400 
     71 CB         -2.2589  -21.0444  -43.6356 C.3       12 UNK        -0.1800 
     72 C          -3.0502  -23.2951  -44.4936 C.2       12 UNK         0.5000 
     73 O          -4.2634  -23.4897  -44.5639 O.2       12 UNK        -0.5000 
     74 N          -2.1612  -24.2349  -44.1400 N.am      13 UNK        -0.5000 
     75 CA         -2.5060  -25.6250  -43.8300 C.3       13 UNK         0.1400 
     76 CB         -1.2703  -26.3497  -43.2756 C.3       13 UNK        -0.1800 
     77 C          -3.0927  -26.3791  -45.0405 C.2       13 UNK         0.5000 
     78 O          -4.0697  -27.1126  -44.8863 O.2       13 UNK        -0.5000 
     79 N          -2.5080  -26.1570  -46.2254 N.am      14 UNK        -0.5000 
     80 CA         -2.9710  -26.7013  -47.5039 C.3       14 UNK         0.1400 
     81 CB         -1.8148  -26.6310  -48.5144 C.3       14 UNK        -0.1800 
     82 C          -4.2088  -25.9789  -48.0745 C.2       14 UNK         0.5000 
     83 O          -4.8440  -26.5155  -48.9828 O.2       14 UNK        -0.5000 
     84 N          -4.5054  -24.7740  -47.5625 N.am      15 UNK        -0.5000 
     85 CA         -5.5129  -23.8201  -48.0439 C.3       15 UNK         0.1400 
     86 CB         -6.9402  -24.3735  -47.8554 C.3       15 UNK        -0.1800 
     87 C          -5.2277  -23.3423  -49.4856 C.2       15 UNK         0.5000 
     88 O          -6.1491  -23.1383  -50.2782 O.2       15 UNK        -0.5000 
     89 N          -3.9390  -23.1615  -49.7944 N.am      16 UNK        -0.5000 
     90 CA         -3.4062  -22.7442  -51.0867 C.3       16 UNK         0.1400 
     91 CB         -2.0334  -23.4116  -51.2842 C.3       16 UNK        -0.1800 
     92 C          -3.3429  -21.2081  -51.1627 C.2       16 UNK         0.5000 
     93 O          -2.2635  -20.6337  -51.3155 O.2       16 UNK        -0.5000 
     94 N          -4.5103  -20.5725  -51.0154 N.am      17 UNK        -0.5000 
     95 CA         -4.7079  -19.1265  -51.0927 C.3       17 UNK         0.1400 
     96 CB         -6.0433  -18.7916  -50.4068 C.3       17 UNK        -0.1800 
     97 C          -4.6850  -18.6136  -52.5450 C.2       17 UNK         0.5000 
     98 O          -4.5854  -19.4043  -53.4863 O.2       17 UNK        -0.5000 
     99 N          -4.8160  -17.2903  -52.7129 N.am      18 UNK        -0.5000 
    100 CA        -4.8323  -16.5919  -54.0052 C.3       18 UNK         0.1400 
    101 CB        -4.9592  -15.0819  -53.7577 C.3       18 UNK        -0.1800 
    102 C         -5.9251  -17.0767  -54.9816 C.2       18 UNK         0.5000 
    103 O         -5.7176  -17.0275  -56.1938 O.2       18 UNK        -0.5000 
    104 N         -7.0360  -17.5994  -54.4420 N.am      19 UNK        -0.5000 
    105 CA        -8.1082  -18.2656  -55.1888 C.3       19 UNK         0.1400 
    106 CB        -9.2826  -18.5327  -54.2352 C.3       19 UNK        -0.1800 
    107 C         -7.6649  -19.5766  -55.8760 C.2       19 UNK         0.5000 
    108 O         -8.2736  -19.9727  -56.8701 O.2       19 UNK        -0.5000 
    109 N         -6.6035  -20.2061  -55.3546 N.am      20 UNK        -0.5000 
    110 CA        -5.9365  -21.3844  -55.9095 C.3       20 UNK         0.1400 
    111 CB        -5.7102  -22.3976  -54.7719 C.3       20 UNK        -0.1800 
    112 C         -4.6103  -20.9988  -56.6026 C.2       20 UNK         0.5000 
    113 O         -3.7407  -21.8547  -56.7677 O.2       20 UNK        -0.5000 
    114 N         -4.4723  -19.7165  -56.9775 N.am      21 UNK        -0.5000 
    115 CA        -3.3169  -19.0687  -57.6120 C.3       21 UNK         0.1400 
    116 CB        -2.9439  -19.7498  -58.9459 C.3       21 UNK        -0.1800 
    117 C         -2.1001  -18.8765  -56.6803 C.2       21 UNK         0.5000 
    118 O         -1.0330  -18.4964  -57.1635 O.2       21 UNK        -0.5000 
    119 N         -2.2949  -19.0799  -55.3702 N.am      22 UNK        -0.5000 
    120 CA        -1.3126  -18.9592  -54.2849 C.3       22 UNK         0.1400 
    121 C         -0.2518  -20.0957  -54.2872 C.2       22 UNK         0.5000 
    122 N         -0.2022  -20.8989  -53.2345 N.am      22 UNK        -0.7600 
    123 O          0.5534  -20.2327  -55.2043 O.2       22 UNK        -0.5000 
    124 C124       -0.6753  -17.5461  -54.1952 C.3       23 UNK        -0.0398 
    125 S125       -0.2282  -17.1233  -52.4794 S.3       23 UNK        -0.2404 
    126 C126        1.5702  -17.3978  -52.5155 C.3       23 UNK        -0.0205 
    127 H127       -2.8961  -19.9158  -48.4818 H         1 UNK         0.0600 
    128 H128       -3.8678  -18.5228  -47.9938 H         1 UNK         0.0600 
    129 H129       -2.8916  -19.3844  -46.8007 H         1 UNK         0.0600 
    130 H130       -2.9157  -16.5091  -48.2716 H         1 UNK         0.3000 
    131 H131       -0.4419  -16.0754  -49.4431 H         1 UNK         0.0600 
    132 H132        0.4914  -16.6562  -47.1035 H         1 UNK         0.0800 
    133 H133       -0.3338  -15.2711  -46.4705 H         1 UNK         0.0800 
    134 H134        3.8484  -15.3456  -48.0986 H         1 UNK         0.0800 
    135 H135        3.0368  -16.2868  -46.8740 H         1 UNK         0.0800 
    136 H136        2.0567  -15.6716  -50.4748 H         1 UNK         0.1150 
    137 H137        2.2604  -19.8248  -51.4927 H         1 UNK         0.1150 
    138 H138        3.3844  -18.5303  -47.5652 H         1 UNK         0.1150 
    139 H139        4.1600  -21.0270  -49.5947 H         1 UNK         0.0800 
    140 H140        3.4080  -20.8485  -48.0292 H         1 UNK         0.0800 
    141 H141       -0.2309  -21.1679  -49.1223 H         1 UNK         0.0800 
    142 H142        0.8612  -20.7075  -47.8401 H         1 UNK         0.0800 
    143 H143       -0.0948  -23.5593  -48.3249 H         1 UNK         0.0600 
    144 H144        1.7793  -22.5058  -46.3675 H         1 UNK         0.3000 
    145 H145        1.7568  -25.4660  -44.3762 H         1 UNK         0.0600 
    146 H146        4.1492  -25.6377  -45.0011 H         1 UNK         0.0600 
    147 H147        3.8816  -24.6220  -46.4190 H         1 UNK         0.0600 
    148 H148        3.1423  -26.2157  -46.3189 H         1 UNK         0.0600 
    149 H149        3.5353  -23.2731  -44.3570 H         1 UNK         0.3000 
    150 H150        2.0308  -21.6296  -41.7681 H         1 UNK         0.0600 
    151 H151        4.3155  -22.5054  -42.3425 H         1 UNK         0.0600 
    152 H152        4.2923  -20.7591  -42.1890 H         1 UNK         0.0600 
    153 H153        4.3423  -21.4886  -43.7859 H         1 UNK         0.0600 
    154 H154        1.5141  -19.6888  -42.6755 H         1 UNK         0.3000 
    155 H155        1.6349  -18.3130  -45.9879 H         1 UNK         0.0600 
    156 H156       -0.6432  -19.1104  -45.4073 H         1 UNK         0.0600 
    157 H157       -0.4713  -17.4062  -45.0125 H         1 UNK         0.0600 
    158 H158       -0.4107  -18.6093  -43.7334 H         1 UNK         0.0600 
    159 H159        1.4758  -17.0104  -43.4710 H         1 UNK         0.3000 
    160 H160        4.9563  -16.3638  -42.9964 H         1 UNK         0.0600 
    161 H161        2.5660  -14.6044  -43.7734 H         1 UNK         0.0600 
    162 H162        4.1456  -14.6155  -44.5379 H         1 UNK         0.0600 
    163 H163        3.9848  -14.0658  -42.8768 H         1 UNK         0.0600 
    164 H164        2.3898  -15.9166  -41.6342 H         1 UNK         0.3000 
    165 H165        2.7919  -18.5965  -39.3695 H         1 UNK         0.0600 
    166 H166        2.7652  -16.8707  -37.5838 H         1 UNK         0.0600 
    167 H167        4.3617  -16.9665  -38.3089 H         1 UNK         0.0600 
    168 H168        3.2892  -15.6370  -38.7311 H         1 UNK         0.0600 
    169 H169        1.0308  -16.3314  -39.4221 H         1 UNK         0.3000 
    170 H170       -1.2993  -17.5714  -41.7699 H         1 UNK         0.0600 
    171 H171       -1.5652  -17.4381  -38.7191 H         1 UNK         0.0600 
    172 H172       -1.9277  -18.8431  -39.7149 H         1 UNK         0.0600 
    173 H173       -2.8909  -17.3844  -39.8820 H         1 UNK         0.0600 
    174 H174       -1.4163  -15.3293  -40.0517 H         1 UNK         0.3000 
    175 H175       -1.2005  -13.2588  -40.8949 H         1 UNK         0.0600 
    176 H176        1.8557  -13.2620  -41.2136 H         1 UNK         0.0600 
    177 H177        0.8978  -11.9874  -40.4601 H         1 UNK         0.0600 
    178 H178        0.9896  -13.5735  -39.7140 H         1 UNK         0.0600 
    179 H179        0.4698  -12.2179  -42.9588 H         1 UNK         0.3000 
    180 H180       -1.5397  -10.9769  -44.7075 H         1 UNK         0.0600 
    181 H181        0.3204  -11.4979  -46.4080 H         1 UNK         0.0600 
    182 H182        0.6866  -12.9529  -45.4870 H         1 UNK         0.0600 
    183 H183        0.8952  -11.3629  -44.7593 H         1 UNK         0.0600 
    184 H184       -2.3413  -13.5428  -45.6829 H         1 UNK         0.3000 
    185 H185       -4.3625  -13.1508  -47.2912 H         1 UNK         0.0600 
    186 H186       -4.4817  -13.0099  -49.8034 H         1 UNK         0.0600 
    187 H187       -4.5605  -11.4432  -49.0127 H         1 UNK         0.0600 
    188 H188       -3.0746  -11.9468  -49.7957 H         1 UNK         0.0600 
    189 H189       -3.1097  -14.9650  -47.4500 H         1 UNK         0.3000 
    190 H190       -0.3850  -21.9677  -45.1822 H         1 UNK         0.3000 
    191 H191       -3.2522  -21.4255  -45.4849 H         1 UNK         0.0600 
    192 H192       -2.2482  -19.9902  -43.9027 H         1 UNK         0.0600 
    193 H193       -1.3246  -21.2789  -43.1266 H         1 UNK         0.0600 
    194 H194       -3.0650  -21.1685  -42.9110 H         1 UNK         0.0600 
    195 H195       -1.1847  -23.9731  -44.0601 H         1 UNK         0.3000 
    196 H196       -3.2676  -25.6099  -43.0476 H         1 UNK         0.0600 
    197 H197       -0.8661  -25.8330  -42.4048 H         1 UNK         0.0600 
    198 H198       -0.4774  -26.4238  -44.0192 H         1 UNK         0.0600 
    199 H199       -1.5222  -27.3644  -42.9651 H         1 UNK         0.0600 
    200 H200       -1.6499  -25.6127  -46.2515 H         1 UNK         0.3000 
    201 H201       -3.2375  -27.7505  -47.3608 H         1 UNK         0.0600 
    202 H202       -0.9441  -27.1815  -48.1575 H         1 UNK         0.0600 
    203 H203       -1.5073  -25.6012  -48.6998 H         1 UNK         0.0600 
    204 H204       -2.1025  -27.0649  -49.4729 H         1 UNK         0.0600 
    205 H205       -3.9104  -24.4291  -46.8220 H         1 UNK         0.3000 
    206 H206       -5.4168  -22.9375  -47.4098 H         1 UNK         0.0600 
    207 H207       -7.1383  -25.2220  -48.5107 H         1 UNK         0.0600 
    208 H208       -7.1034  -24.6972  -46.8274 H         1 UNK         0.0600 
    209 H209       -7.6864  -23.6098  -48.0772 H         1 UNK         0.0600 
    210 H210       -3.2662  -23.2111  -49.0323 H         1 UNK         0.3000 
    211 H211       -4.0660  -23.0907  -51.8847 H         1 UNK         0.0600 
    212 H212       -1.3086  -23.0755  -50.5421 H         1 UNK         0.0600 
    213 H213       -1.6284  -23.1852  -52.2706 H         1 UNK         0.0600 
    214 H214       -2.1092  -24.4965  -51.2082 H         1 UNK         0.0600 
    215 H215       -5.3415  -21.1396  -50.9071 H         1 UNK         0.3000 
    216 H216       -3.8971  -18.6313  -50.5557 H         1 UNK         0.0600 
    217 H217       -6.2084  -17.7153  -50.3504 H         1 UNK         0.0600 
    218 H218       -6.0649  -19.1701  -49.3845 H         1 UNK         0.0600 
    219 H219       -6.8892  -19.2277  -50.9402 H         1 UNK         0.0600 
    220 H220       -4.9017  -16.7032  -51.8961 H         1 UNK         0.3000 
    221 H221       -3.8704  -16.7758  -54.4864 H         1 UNK         0.0600 
    222 H222       -5.8882  -14.8353  -53.2421 H         1 UNK         0.0600 
    223 H223       -4.1303  -14.7095  -53.1552 H         1 UNK         0.0600 
    224 H224       -4.9486  -14.5290  -54.6981 H         1 UNK         0.0600 
    225 H225       -7.1232  -17.5950  -53.4368 H         1 UNK         0.3000 
    226 H226       -8.4479  -17.5836  -55.9711 H         1 UNK         0.0600 
    227 H227       -9.6581  -17.6056  -53.8015 H         1 UNK         0.0600 
    228 H228      -10.1142  -19.0036  -54.7612 H         1 UNK         0.0600 
    229 H229       -8.9941  -19.1946  -53.4176 H         1 UNK         0.0600 
    230 H230       -6.1286  -19.7903  -54.5587 H         1 UNK         0.3000 
    231 H231       -6.5681  -21.8567  -56.6642 H         1 UNK         0.0600 
    232 H232       -5.2941  -23.3311  -55.1525 H         1 UNK         0.0600 
    233 H233       -6.6462  -22.6428  -54.2698 H         1 UNK         0.0600 
    234 H234       -5.0195  -22.0123  -54.0215 H         1 UNK         0.0600 
    235 H235       -5.2375  -19.0863  -56.7698 H         1 UNK         0.3000 
    236 H236       -3.6541  -18.0601  -57.8549 H         1 UNK         0.0600 
    237 H237       -2.4949  -20.7310  -58.7911 H         1 UNK         0.0600 
    238 H238       -3.8184  -19.8753  -59.5842 H         1 UNK         0.0600 
    239 H239       -2.2226  -19.1497  -59.5016 H         1 UNK         0.0600 
    240 H240       -3.2094  -19.3953  -55.0690 H         1 UNK         0.3000 
    241 H241       -1.9181  -19.0892  -53.3896 H         1 UNK         0.0600 
    242 H242        0.4893  -21.6297  -53.2009 H         1 UNK         0.3800 
    243 H243       -0.8579  -20.7839  -52.4626 H         1 UNK         0.3800 
    244 H244        0.1841  -17.4453  -54.8605 H         1 UNK         0.0800 
    245 H245       -1.3907  -16.7911  -54.5224 H         1 UNK         0.0800 
    246 H246        2.0652  -16.5097  -52.9109 H         1 UNK         0.0800 
    247 H247        1.8112  -18.2149  -53.1969 H         1 UNK         0.0800 
@<TRIPOS>BOND
     1    1    2 1    
     2    1  127 1    
     3    1  128 1    
     4    1  129 1    
     5    2    3 2    
     6    2    4 am   BACKBONE|DICT|INTERRES
     7    4    5 1    
     8    4  130 1    
     9    5    6 1    
    10    5   65 1    
    11    5  131 1    
    12    6    7 1    
    13    6  132 1    
    14    6  133 1    
    15    7    8 1    
    16    8    9 1    
    17    8  134 1    
    18    8  135 1    
    19    9   10 ar   
    20    9   14 ar   
    21   10   11 ar   
    22   10  136 1    
    23   11   12 ar   
    24   11  126 1    
    25   12   13 ar   
    26   12  137 1    
    27   13   14 ar   
    28   13   15 1    
    29   14  138 1    
    30   15   16 1    
    31   15  139 1    
    32   15  140 1    
    33   16   17 1    
    34   17   18 1    
    35   17  141 1    
    36   17  142 1    
    37   18   19 1    
    38   18   67 1    
    39   18  143 1    
    40   19   20 am   BACKBONE|DICT|INTERRES
    41   19  144 1    
    42   20   21 2    
    43   20   22 1    
    44   22   23 1    
    45   22   24 1    
    46   22  145 1    
    47   23  146 1    
    48   23  147 1    
    49   23  148 1    
    50   24   25 am   BACKBONE|DICT|INTERRES
    51   24  149 1    
    52   25   26 2    
    53   25   27 1    
    54   27   28 1    
    55   27   29 1    
    56   27  150 1    
    57   28  151 1    
    58   28  152 1    
    59   28  153 1    
    60   29   30 am   BACKBONE|DICT|INTERRES
    61   29  154 1    
    62   30   31 2    
    63   30   32 1    
    64   32   33 1    
    65   32   34 1    
    66   32  155 1    
    67   33  156 1    
    68   33  157 1    
    69   33  158 1    
    70   34   35 am   BACKBONE|DICT|INTERRES
    71   34  159 1    
    72   35   36 2    
    73   35   37 1    
    74   37   38 1    
    75   37   39 1    
    76   37  160 1    
    77   38  161 1    
    78   38  162 1    
    79   38  163 1    
    80   39   40 am   BACKBONE|DICT|INTERRES
    81   39  164 1    
    82   40   41 2    
    83   40   42 1    
    84   42   43 1    
    85   42   44 1    
    86   42  165 1    
    87   43  166 1    
    88   43  167 1    
    89   43  168 1    
    90   44   45 am   BACKBONE|DICT|INTERRES
    91   44  169 1    
    92   45   46 2    
    93   45   47 1    
    94   47   48 1    
    95   47   49 1    
    96   47  170 1    
    97   48  171 1    
    98   48  172 1    
    99   48  173 1    
   100   49   50 am   BACKBONE|DICT|INTERRES
   101   49  174 1    
   102   50   51 2    
   103   50   52 1    
   104   52   53 1    
   105   52   54 1    
   106   52  175 1    
   107   53  176 1    
   108   53  177 1    
   109   53  178 1    
   110   54   55 am   BACKBONE|DICT|INTERRES
   111   54  179 1    
   112   55   56 2    
   113   55   57 1    
   114   57   58 1    
   115   57   59 1    
   116   57  180 1    
   117   58  181 1    
   118   58  182 1    
   119   58  183 1    
   120   59   60 am   BACKBONE|DICT|INTERRES
   121   59  184 1    
   122   60   61 2    
   123   60   62 1    
   124   62   63 1    
   125   62   64 1    
   126   62  185 1    
   127   63  186 1    
   128   63  187 1    
   129   63  188 1    
   130   64   65 am   BACKBONE|DICT|INTERRES
   131   64  189 1    
   132   65   66 2    
   133   67   68 2    
   134   67   69 am   BACKBONE|DICT|INTERRES
   135   69   70 1    
   136   69  190 1    
   137   70   71 1    
   138   70   72 1    
   139   70  191 1    
   140   71  192 1    
   141   71  193 1    
   142   71  194 1    
   143   72   73 2    
   144   72   74 am   BACKBONE|DICT|INTERRES
   145   74   75 1    
   146   74  195 1    
   147   75   76 1    
   148   75   77 1    
   149   75  196 1    
   150   76  197 1    
   151   76  198 1    
   152   76  199 1    
   153   77   78 2    
   154   77   79 am   BACKBONE|DICT|INTERRES
   155   79   80 1    
   156   79  200 1    
   157   80   81 1    
   158   80   82 1    
   159   80  201 1    
   160   81  202 1    
   161   81  203 1    
   162   81  204 1    
   163   82   83 2    
   164   82   84 am   BACKBONE|DICT|INTERRES
   165   84   85 1    
   166   84  205 1    
   167   85   86 1    
   168   85   87 1    
   169   85  206 1    
   170   86  207 1    
   171   86  208 1    
   172   86  209 1    
   173   87   88 2    
   174   87   89 am   BACKBONE|DICT|INTERRES
   175   89   90 1    
   176   89  210 1    
   177   90   91 1    
   178   90   92 1    
   179   90  211 1    
   180   91  212 1    
   181   91  213 1    
   182   91  214 1    
   183   92   93 2    
   184   92   94 am   BACKBONE|DICT|INTERRES
   185   94   95 1    
   186   94  215 1    
   187   95   96 1    
   188   95   97 1    
   189   95  216 1    
   190   96  217 1    
   191   96  218 1    
   192   96  219 1    
   193   97   98 2    
   194   97   99 am   BACKBONE|DICT|INTERRES
   195   99  100 1    
   196   99  220 1    
   197  100  101 1    
   198  100  102 1    
   199  100  221 1    
   200  101  222 1    
   201  101  223 1    
   202  101  224 1    
   203  102  103 2    
   204  102  104 am   BACKBONE|DICT|INTERRES
   205  104  105 1    
   206  104  225 1    
   207  105  106 1    
   208  105  107 1    
   209  105  226 1    
   210  106  227 1    
   211  106  228 1    
   212  106  229 1    
   213  107  108 2    
   214  107  109 am   BACKBONE|DICT|INTERRES
   215  109  110 1    
   216  109  230 1    
   217  110  111 1    
   218  110  112 1    
   219  110  231 1    
   220  111  232 1    
   221  111  233 1    
   222  111  234 1    
   223  112  113 2    
   224  112  114 am   BACKBONE|DICT|INTERRES
   225  114  115 1    
   226  114  235 1    
   227  115  116 1    
   228  115  117 1    
   229  115  236 1    
   230  116  237 1    
   231  116  238 1    
   232  116  239 1    
   233  117  118 2    
   234  117  119 am   BACKBONE|DICT|INTERRES
   235  119  120 1    
   236  119  240 1    
   237  120  121 1    
   238  120  124 1    
   239  120  241 1    
   240  121  122 am   BACKBONE|DICT|INTERRES
   241  121  123 2    
   242  122  242 1    
   243  122  243 1    
   244  124  125 1    
   245  124  244 1    
   246  124  245 1    
   247  125  126 1    
   248  126  246 1    
   249  126  247 1    
@<TRIPOS>SUBSTRUCTURE
     1 UNK         1 GROUP             0       ****    0 ROOT    
