@<TRIPOS>MOLECULE
3R540
247   249    1
SMALL
USER_CHARGES


@<TRIPOS>ATOM
      1 CA         -0.7548   -9.3252  -42.1118 C.3       0 UNK        -0.1800 
      2 C          -0.7825  -10.4929  -43.0890 C.2       0 UNK         0.5000 
      3 O           0.1685  -11.2724  -43.1203 O.2       0 UNK        -0.5000 
      4 N          -1.8669  -10.5941  -43.8724 N.am      1 UNK        -0.5000 
      5 CA         -2.1652  -11.5973  -44.9075 C.3       1 UNK         0.1400 
      6 C6         -2.6991  -12.9504  -44.3431 C.3       23 UNK        -0.0398 
      7 S7         -1.4902  -14.0211  -43.4804 S.3       23 UNK        -0.2404 
      8 C8         -1.4208  -15.5171  -44.5198 C.3       23 UNK        -0.0205 
      9 C9         -2.7564  -16.2402  -44.5981 C.ar      23 UNK        -0.0193 
     10 C10        -3.4586  -16.2988  -45.8053 C.ar      23 UNK        -0.1150 
     11 C11        -4.6664  -16.9965  -45.8891 C.ar      23 UNK        -0.0193 
     12 C12        -5.1818  -17.6216  -44.7516 C.ar      23 UNK        -0.1150 
     13 C13        -4.4878  -17.5717  -43.5394 C.ar      23 UNK        -0.0193 
     14 C14        -3.2758  -16.8799  -43.4689 C.ar      23 UNK        -0.1150 
     15 C15        -5.0370  -18.2840  -42.3129 C.3       23 UNK        -0.0205 
     16 S16        -4.1595  -19.8463  -41.9833 S.3       23 UNK        -0.2404 
     17 C17        -4.4695  -20.7881  -43.5192 C.3       23 UNK        -0.0398 
     18 CA         -3.2497  -20.7669  -44.4906 C.3       11 UNK         0.1400 
     19 N          -2.0195  -21.2558  -43.8538 N.am      11 UNK        -0.5000 
     20 C          -1.8060  -22.5033  -43.4193 C.2       10 UNK         0.5000 
     21 O          -2.5467  -23.4511  -43.6909 O.2       10 UNK        -0.5000 
     22 CA         -0.5772  -22.7168  -42.5160 C.3       10 UNK         0.1400 
     23 CB         -0.3442  -24.2069  -42.1716 C.3       10 UNK        -0.1800 
     24 N           0.6298  -22.0990  -43.0762 N.am      10 UNK        -0.5000 
     25 C           1.7517  -21.8676  -42.3786 C.2       9 UNK         0.5000 
     26 O           1.8635  -22.0885  -41.1718 O.2       9 UNK        -0.5000 
     27 CA          2.9589  -21.2987  -43.1458 C.3       9 UNK         0.1400 
     28 CB          3.6312  -22.3753  -44.0099 C.3       9 UNK        -0.1800 
     29 N           2.6173  -20.1421  -43.9714 N.am      9 UNK        -0.5000 
     30 C           2.4104  -18.9122  -43.4756 C.2       8 UNK         0.5000 
     31 O           2.4634  -18.6451  -42.2744 O.2       8 UNK        -0.5000 
     32 CA          2.1174  -17.7767  -44.4768 C.3       8 UNK         0.1400 
     33 CB          3.4116  -17.0223  -44.8065 C.3       8 UNK        -0.1800 
     34 N           1.5097  -18.2231  -45.7288 N.am      8 UNK        -0.5000 
     35 C           0.3235  -18.8380  -45.8328 C.2       7 UNK         0.5000 
     36 O          -0.4119  -19.0507  -44.8698 O.2       7 UNK        -0.5000 
     37 CA         -0.1023  -19.3233  -47.2341 C.3       7 UNK         0.1400 
     38 CB         -1.0404  -18.2898  -47.8695 C.3       7 UNK        -0.1800 
     39 N           1.0019  -19.5714  -48.1618 N.am      7 UNK        -0.5000 
     40 C           2.0694  -20.3552  -47.9494 C.2       6 UNK         0.5000 
     41 O           2.2354  -21.0305  -46.9335 O.2       6 UNK        -0.5000 
     42 CA          3.1749  -20.3091  -49.0237 C.3       6 UNK         0.1400 
     43 CB          3.0053  -21.4666  -50.0174 C.3       6 UNK        -0.1800 
     44 N           3.2151  -19.0413  -49.7639 N.am      6 UNK        -0.5000 
     45 C           3.4348  -17.8376  -49.2149 C.2       5 UNK         0.5000 
     46 O           3.6732  -17.6695  -48.0168 O.2       5 UNK        -0.5000 
     47 CA          3.3000  -16.6342  -50.1617 C.3       5 UNK         0.1400 
     48 CB          1.8341  -16.4521  -50.5862 C.3       5 UNK        -0.1800 
     49 N           3.7474  -15.4013  -49.5166 N.am      5 UNK        -0.5000 
     50 C           4.9670  -14.8658  -49.6575 C.2       4 UNK         0.5000 
     51 O           5.8537  -15.3716  -50.3476 O.2       4 UNK        -0.5000 
     52 CA          5.2515  -13.5266  -48.9460 C.3       4 UNK         0.1400 
     53 CB          5.3238  -12.3827  -49.9706 C.3       4 UNK        -0.1800 
     54 N           4.2482  -13.1808  -47.9389 N.am      4 UNK        -0.5000 
     55 C           4.2604  -13.6099  -46.6708 C.2       3 UNK         0.5000 
     56 O           5.1562  -14.3082  -46.1959 O.2       3 UNK        -0.5000 
     57 CA          3.0775  -13.1822  -45.7770 C.3       3 UNK         0.1400 
     58 CB          3.4728  -11.9733  -44.9156 C.3       3 UNK        -0.1800 
     59 N           1.8454  -12.8591  -46.5033 N.am      3 UNK        -0.5000 
     60 C           1.1389  -13.6980  -47.2713 C.2       2 UNK         0.5000 
     61 O           1.4860  -14.8544  -47.5122 O.2       2 UNK        -0.5000 
     62 CA         -0.1793  -13.1410  -47.8489 C.3       2 UNK         0.1400 
     63 CB         -0.8607  -14.1151  -48.8252 C.3       2 UNK        -0.1800 
     64 N          -1.1276  -12.8095  -46.7855 N.am      2 UNK        -0.5000 
     65 C          -1.0834  -11.7180  -46.0111 C.2       1 UNK         0.5000 
     66 O          -0.2574  -10.8161  -46.1803 O.2       1 UNK        -0.5000 
     67 C          -3.5196  -21.4498  -45.8540 C.2       11 UNK         0.5000 
     68 O          -2.5697  -21.7926  -46.5612 O.2       11 UNK        -0.5000 
     69 N          -4.7990  -21.6382  -46.2144 N.am      12 UNK        -0.5000 
     70 CA         -5.2481  -22.1898  -47.4961 C.3       12 UNK         0.1400 
     71 CB         -6.7806  -22.1367  -47.5617 C.3       12 UNK        -0.1800 
     72 C          -4.7442  -23.6166  -47.7944 C.2       12 UNK         0.5000 
     73 O          -4.6054  -23.9724  -48.9662 O.2       12 UNK        -0.5000 
     74 N          -4.4594  -24.3944  -46.7400 N.am      13 UNK        -0.5000 
     75 CA         -3.8640  -25.7265  -46.8275 C.3       13 UNK         0.1400 
     76 CB         -3.9647  -26.4284  -45.4648 C.3       13 UNK        -0.1800 
     77 C          -2.4060  -25.6689  -47.3141 C.2       13 UNK         0.5000 
     78 O          -2.0517  -26.3827  -48.2531 O.2       13 UNK        -0.5000 
     79 N          -1.6018  -24.7804  -46.7107 N.am      14 UNK        -0.5000 
     80 CA         -0.2176  -24.5183  -47.1197 C.3       14 UNK         0.1400 
     81 CB          0.4940  -23.6801  -46.0578 C.3       14 UNK        -0.1800 
     82 C          -0.1230  -23.8252  -48.4885 C.2       14 UNK         0.5000 
     83 O           0.8352  -24.0577  -49.2241 O.2       14 UNK        -0.5000 
     84 N          -1.1560  -23.0455  -48.8313 N.am      15 UNK        -0.5000 
     85 CA         -1.3740  -22.4568  -50.1510 C.3       15 UNK         0.1400 
     86 CB         -2.4591  -21.3782  -50.0397 C.3       15 UNK        -0.1800 
     87 C          -1.7522  -23.4848  -51.2427 C.2       15 UNK         0.5000 
     88 O          -2.0130  -23.0702  -52.3709 O.2       15 UNK        -0.5000 
     89 N          -1.8009  -24.7839  -50.9081 N.am      16 UNK        -0.5000 
     90 CA         -2.1013  -25.9205  -51.7825 C.3       16 UNK         0.1400 
     91 CB         -1.0376  -26.0627  -52.8921 C.3       16 UNK        -0.1800 
     92 C          -3.5441  -25.8683  -52.3164 C.2       16 UNK         0.5000 
     93 O          -3.7647  -25.9329  -53.5267 O.2       16 UNK        -0.5000 
     94 N          -4.4936  -25.7314  -51.3794 N.am      17 UNK        -0.5000 
     95 CA         -5.9327  -25.5538  -51.5937 C.3       17 UNK         0.1400 
     96 CB         -6.5586  -26.7705  -52.3088 C.3       17 UNK        -0.1800 
     97 C          -6.2366  -24.2065  -52.2766 C.2       17 UNK         0.5000 
     98 O          -7.0003  -24.1525  -53.2422 O.2       17 UNK        -0.5000 
     99 N          -5.6180  -23.1459  -51.7371 N.am      18 UNK        -0.5000 
    100 CA        -5.7293  -21.7459  -52.1573 C.3       18 UNK         0.1400 
    101 CB        -7.1398  -21.2022  -51.8460 C.3       18 UNK        -0.1800 
    102 C         -5.2908  -21.5020  -53.6189 C.2       18 UNK         0.5000 
    103 O         -6.0000  -20.8364  -54.3770 O.2       18 UNK        -0.5000 
    104 N         -4.1294  -22.0548  -53.9894 N.am      19 UNK        -0.5000 
    105 CA        -3.4787  -21.8355  -55.2790 C.3       19 UNK         0.1400 
    106 CB        -2.9200  -23.1699  -55.7994 C.3       19 UNK        -0.1800 
    107 C         -2.3641  -20.7851  -55.1397 C.2       19 UNK         0.5000 
    108 O         -2.3469  -19.8051  -55.8862 O.2       19 UNK        -0.5000 
    109 N         -1.4625  -20.9941  -54.1723 N.am      20 UNK        -0.5000 
    110 CA        -0.3562  -20.1028  -53.8313 C.3       20 UNK         0.1400 
    111 CB         0.8284  -20.9472  -53.3295 C.3       20 UNK        -0.1800 
    112 C         -0.8310  -19.0610  -52.8032 C.2       20 UNK         0.5000 
    113 O         -0.4882  -19.1553  -51.6228 O.2       20 UNK        -0.5000 
    114 N         -1.6368  -18.1114  -53.2967 N.am      21 UNK        -0.5000 
    115 CA        -2.4184  -17.1074  -52.5668 C.3       21 UNK         0.1400 
    116 CB        -1.5565  -16.2908  -51.5800 C.3       21 UNK        -0.1800 
    117 C         -3.6855  -17.7090  -51.9246 C.2       21 UNK         0.5000 
    118 O         -4.0230  -18.8638  -52.1891 O.2       21 UNK        -0.5000 
    119 N         -4.3962  -16.8843  -51.1446 N.am      22 UNK        -0.5000 
    120 CA        -5.7505  -17.1306  -50.6149 C.3       22 UNK         0.1400 
    121 C         -6.8533  -17.1211  -51.7210 C.2       22 UNK         0.5000 
    122 N         -8.0983  -17.4382  -51.3874 N.am      22 UNK        -0.7600 
    123 O         -6.6130  -16.7778  -52.8768 O.2       22 UNK        -0.5000 
    124 C124       -5.8490  -18.3658  -49.6684 C.3       23 UNK        -0.0398 
    125 S125       -4.6590  -18.3442  -48.2903 S.3       23 UNK        -0.2404 
    126 C126       -5.4077  -17.0868  -47.2110 C.3       23 UNK        -0.0205 
    127 H127       -1.6512   -8.7089  -42.1873 H         1 UNK         0.0600 
    128 H128        0.1102   -8.6919  -42.3094 H         1 UNK         0.0600 
    129 H129       -0.6816   -9.6943  -41.0887 H         1 UNK         0.0600 
    130 H130       -2.5740   -9.8785  -43.7804 H         1 UNK         0.3000 
    131 H131       -3.0100  -11.1573  -45.4398 H         1 UNK         0.0600 
    132 H132       -3.1896  -13.5167  -45.1345 H         1 UNK         0.0800 
    133 H133       -3.4963  -12.7402  -43.6292 H         1 UNK         0.0800 
    134 H134       -0.6903  -16.1996  -44.0871 H         1 UNK         0.0800 
    135 H135       -1.0451  -15.2703  -45.5125 H         1 UNK         0.0800 
    136 H136       -3.0577  -15.8241  -46.6895 H         1 UNK         0.1150 
    137 H137       -6.1166  -18.1605  -44.8149 H         1 UNK         0.1150 
    138 H138       -2.7295  -16.8481  -42.5366 H         1 UNK         0.1150 
    139 H139       -4.9399  -17.6332  -41.4427 H         1 UNK         0.0800 
    140 H140       -6.1037  -18.4840  -42.4258 H         1 UNK         0.0800 
    141 H141       -5.3642  -20.3793  -43.9882 H         1 UNK         0.0800 
    142 H142       -4.7185  -21.8132  -43.2402 H         1 UNK         0.0800 
    143 H143       -3.0500  -19.7253  -44.7433 H         1 UNK         0.0600 
    144 H144       -1.3243  -20.5379  -43.6857 H         1 UNK         0.3000 
    145 H145       -0.8108  -22.1978  -41.5841 H         1 UNK         0.0600 
    146 H146        0.4697  -24.3386  -41.4596 H         1 UNK         0.0600 
    147 H147       -1.2327  -24.6425  -41.7127 H         1 UNK         0.0600 
    148 H148       -0.1133  -24.8016  -43.0536 H         1 UNK         0.0600 
    149 H149        0.6012  -21.8578  -44.0568 H         1 UNK         0.3000 
    150 H150        3.6944  -20.9805  -42.4033 H         1 UNK         0.0600 
    151 H151        3.8954  -23.2487  -43.4123 H         1 UNK         0.0600 
    152 H152        4.5494  -21.9995  -44.4614 H         1 UNK         0.0600 
    153 H153        2.9807  -22.7123  -44.8141 H         1 UNK         0.0600 
    154 H154        2.5417  -20.2936  -44.9717 H         1 UNK         0.3000 
    155 H155        1.4275  -17.0808  -43.9988 H         1 UNK         0.0600 
    156 H156        3.8215  -16.5347  -43.9214 H         1 UNK         0.0600 
    157 H157        3.2336  -16.2533  -45.5564 H         1 UNK         0.0600 
    158 H158        4.1774  -17.6913  -45.2014 H         1 UNK         0.0600 
    159 H159        2.0619  -18.0825  -46.5671 H         1 UNK         0.3000 
    160 H160       -0.6369  -20.2643  -47.1126 H         1 UNK         0.0600 
    161 H161       -1.3910  -18.6083  -48.8507 H         1 UNK         0.0600 
    162 H162       -0.5474  -17.3247  -47.9882 H         1 UNK         0.0600 
    163 H163       -1.9179  -18.1380  -47.2426 H         1 UNK         0.0600 
    164 H164        0.9591  -19.0709  -49.0377 H         1 UNK         0.3000 
    165 H165        4.1335  -20.4282  -48.5147 H         1 UNK         0.0600 
    166 H166        3.7976  -21.4690  -50.7659 H         1 UNK         0.0600 
    167 H167        3.0434  -22.4273  -49.5025 H         1 UNK         0.0600 
    168 H168        2.0484  -21.4122  -50.5369 H         1 UNK         0.0600 
    169 H169        3.0163  -19.0969  -50.7521 H         1 UNK         0.3000 
    170 H170        3.8963  -16.8291  -51.0554 H         1 UNK         0.0600 
    171 H171        1.4921  -17.2899  -51.1939 H         1 UNK         0.0600 
    172 H172        1.1699  -16.3826  -49.7243 H         1 UNK         0.0600 
    173 H173        1.7050  -15.5492  -51.1830 H         1 UNK         0.0600 
    174 H174        3.1057  -15.0028  -48.8408 H         1 UNK         0.3000 
    175 H175        6.2289  -13.6123  -48.4664 H         1 UNK         0.0600 
    176 H176        4.3755  -12.2492  -50.4926 H         1 UNK         0.0600 
    177 H177        5.5793  -11.4381  -49.4900 H         1 UNK         0.0600 
    178 H178        6.0882  -12.5787  -50.7238 H         1 UNK         0.0600 
    179 H179        3.4793  -12.6012  -48.2411 H         1 UNK         0.3000 
    180 H180        2.8519  -14.0127  -45.1066 H         1 UNK         0.0600 
    181 H181        3.6754  -11.0933  -45.5273 H         1 UNK         0.0600 
    182 H182        4.3704  -12.1833  -44.3326 H         1 UNK         0.0600 
    183 H183        2.6823  -11.7168  -44.2102 H         1 UNK         0.0600 
    184 H184        1.4457  -11.9425  -46.3296 H         1 UNK         0.3000 
    185 H185        0.0648  -12.2333  -48.4049 H         1 UNK         0.0600 
    186 H186       -1.7658  -13.6795  -49.2486 H         1 UNK         0.0600 
    187 H187       -0.1996  -14.3548  -49.6582 H         1 UNK         0.0600 
    188 H188       -1.1361  -15.0513  -48.3398 H         1 UNK         0.0600 
    189 H189       -1.8340  -13.5033  -46.5982 H         1 UNK         0.3000 
    190 H190       -5.5313  -21.3393  -45.5888 H         1 UNK         0.3000 
    191 H191       -4.8658  -21.5316  -48.2752 H         1 UNK         0.0600 
    192 H192       -7.1447  -22.5250  -48.5141 H         1 UNK         0.0600 
    193 H193       -7.1433  -21.1124  -47.4716 H         1 UNK         0.0600 
    194 H194       -7.2386  -22.7292  -46.7688 H         1 UNK         0.0600 
    195 H195       -4.5821  -24.0114  -45.8140 H         1 UNK         0.3000 
    196 H196       -4.4369  -26.3092  -47.5521 H         1 UNK         0.0600 
    197 H197       -3.5372  -27.4308  -45.5103 H         1 UNK         0.0600 
    198 H198       -5.0036  -26.5327  -45.1519 H         1 UNK         0.0600 
    199 H199       -3.4340  -25.8805  -44.6852 H         1 UNK         0.0600 
    200 H200       -1.9813  -24.1967  -45.9761 H         1 UNK         0.3000 
    201 H201        0.3003  -25.4766  -47.1979 H         1 UNK         0.0600 
    202 H202        0.0177  -22.7084  -45.9238 H         1 UNK         0.0600 
    203 H203        1.5276  -23.5054  -46.3540 H         1 UNK         0.0600 
    204 H204        0.5180  -24.1959  -45.1013 H         1 UNK         0.0600 
    205 H205       -1.8575  -22.8486  -48.1245 H         1 UNK         0.3000 
    206 H206       -0.4454  -21.9712  -50.4526 H         1 UNK         0.0600 
    207 H207       -2.2831  -20.7096  -49.1986 H         1 UNK         0.0600 
    208 H208       -2.4976  -20.7679  -50.9410 H         1 UNK         0.0600 
    209 H209       -3.4423  -21.8220  -49.9185 H         1 UNK         0.0600 
    210 H210       -1.6208  -25.0283  -49.9426 H         1 UNK         0.3000 
    211 H211       -2.0383  -26.8120  -51.1567 H         1 UNK         0.0600 
    212 H212       -0.0345  -26.1196  -52.4695 H         1 UNK         0.0600 
    213 H213       -1.0590  -25.2266  -53.5911 H         1 UNK         0.0600 
    214 H214       -1.1990  -26.9732  -53.4701 H         1 UNK         0.0600 
    215 H215       -4.1923  -25.6050  -50.4206 H         1 UNK         0.3000 
    216 H216       -6.3818  -25.4979  -50.6009 H         1 UNK         0.0600 
    217 H217       -7.6457  -26.6881  -52.3318 H         1 UNK         0.0600 
    218 H218       -6.3145  -27.6992  -51.7932 H         1 UNK         0.0600 
    219 H219       -6.2195  -26.8597  -53.3410 H         1 UNK         0.0600 
    220 H220       -5.0273  -23.3237  -50.9326 H         1 UNK         0.3000 
    221 H221       -5.0257  -21.1909  -51.5393 H         1 UNK         0.0600 
    222 H222       -7.9094  -21.7116  -52.4262 H         1 UNK         0.0600 
    223 H223       -7.3832  -21.3163  -50.7899 H         1 UNK         0.0600 
    224 H224       -7.2073  -20.1402  -52.0814 H         1 UNK         0.0600 
    225 H225       -3.5844  -22.5696  -53.3038 H         1 UNK         0.3000 
    226 H226       -4.1982  -21.4679  -56.0134 H         1 UNK         0.0600 
    227 H227       -2.4237  -23.0374  -56.7614 H         1 UNK         0.0600 
    228 H228       -2.1948  -23.6050  -55.1112 H         1 UNK         0.0600 
    229 H229       -3.7180  -23.8992  -55.9407 H         1 UNK         0.0600 
    230 H230       -1.5931  -21.7963  -53.5592 H         1 UNK         0.3000 
    231 H231       -0.0223  -19.5667  -54.7222 H         1 UNK         0.0600 
    232 H232        1.2012  -21.6029  -54.1164 H         1 UNK         0.0600 
    233 H233        0.5503  -21.5737  -52.4838 H         1 UNK         0.0600 
    234 H234        1.6574  -20.3126  -53.0145 H         1 UNK         0.0600 
    235 H235       -1.8865  -18.2048  -54.2732 H         1 UNK         0.3000 
    236 H236       -2.7746  -16.4156  -53.3313 H         1 UNK         0.0600 
    237 H237       -0.6350  -15.9533  -52.0530 H         1 UNK         0.0600 
    238 H238       -2.0831  -15.3986  -51.2424 H         1 UNK         0.0600 
    239 H239       -1.2921  -16.8665  -50.6929 H         1 UNK         0.0600 
    240 H240       -4.0477  -15.9484  -51.0033 H         1 UNK         0.3000 
    241 H241       -5.9722  -16.2462  -50.0182 H         1 UNK         0.0600 
    242 H242       -8.3604  -17.6784  -50.4450 H         1 UNK         0.3800 
    243 H243       -8.8097  -17.4095  -52.1013 H         1 UNK         0.3800 
    244 H244       -6.8463  -18.4538  -49.2370 H         1 UNK         0.0800 
    245 H245       -5.6869  -19.2861  -50.2268 H         1 UNK         0.0800 
    246 H246       -5.3852  -16.1156  -47.7063 H         1 UNK         0.0800 
    247 H247       -6.4583  -17.3273  -47.0415 H         1 UNK         0.0800 
@<TRIPOS>BOND
     1    1    2 1    
     2    1  127 1    
     3    1  128 1    
     4    1  129 1    
     5    2    3 2    
     6    2    4 am   BACKBONE|DICT|INTERRES
     7    4    5 1    
     8    4  130 1    
     9    5    6 1    
    10    5   65 1    
    11    5  131 1    
    12    6    7 1    
    13    6  132 1    
    14    6  133 1    
    15    7    8 1    
    16    8    9 1    
    17    8  134 1    
    18    8  135 1    
    19    9   10 ar   
    20    9   14 ar   
    21   10   11 ar   
    22   10  136 1    
    23   11   12 ar   
    24   11  126 1    
    25   12   13 ar   
    26   12  137 1    
    27   13   14 ar   
    28   13   15 1    
    29   14  138 1    
    30   15   16 1    
    31   15  139 1    
    32   15  140 1    
    33   16   17 1    
    34   17   18 1    
    35   17  141 1    
    36   17  142 1    
    37   18   19 1    
    38   18   67 1    
    39   18  143 1    
    40   19   20 am   BACKBONE|DICT|INTERRES
    41   19  144 1    
    42   20   21 2    
    43   20   22 1    
    44   22   23 1    
    45   22   24 1    
    46   22  145 1    
    47   23  146 1    
    48   23  147 1    
    49   23  148 1    
    50   24   25 am   BACKBONE|DICT|INTERRES
    51   24  149 1    
    52   25   26 2    
    53   25   27 1    
    54   27   28 1    
    55   27   29 1    
    56   27  150 1    
    57   28  151 1    
    58   28  152 1    
    59   28  153 1    
    60   29   30 am   BACKBONE|DICT|INTERRES
    61   29  154 1    
    62   30   31 2    
    63   30   32 1    
    64   32   33 1    
    65   32   34 1    
    66   32  155 1    
    67   33  156 1    
    68   33  157 1    
    69   33  158 1    
    70   34   35 am   BACKBONE|DICT|INTERRES
    71   34  159 1    
    72   35   36 2    
    73   35   37 1    
    74   37   38 1    
    75   37   39 1    
    76   37  160 1    
    77   38  161 1    
    78   38  162 1    
    79   38  163 1    
    80   39   40 am   BACKBONE|DICT|INTERRES
    81   39  164 1    
    82   40   41 2    
    83   40   42 1    
    84   42   43 1    
    85   42   44 1    
    86   42  165 1    
    87   43  166 1    
    88   43  167 1    
    89   43  168 1    
    90   44   45 am   BACKBONE|DICT|INTERRES
    91   44  169 1    
    92   45   46 2    
    93   45   47 1    
    94   47   48 1    
    95   47   49 1    
    96   47  170 1    
    97   48  171 1    
    98   48  172 1    
    99   48  173 1    
   100   49   50 am   BACKBONE|DICT|INTERRES
   101   49  174 1    
   102   50   51 2    
   103   50   52 1    
   104   52   53 1    
   105   52   54 1    
   106   52  175 1    
   107   53  176 1    
   108   53  177 1    
   109   53  178 1    
   110   54   55 am   BACKBONE|DICT|INTERRES
   111   54  179 1    
   112   55   56 2    
   113   55   57 1    
   114   57   58 1    
   115   57   59 1    
   116   57  180 1    
   117   58  181 1    
   118   58  182 1    
   119   58  183 1    
   120   59   60 am   BACKBONE|DICT|INTERRES
   121   59  184 1    
   122   60   61 2    
   123   60   62 1    
   124   62   63 1    
   125   62   64 1    
   126   62  185 1    
   127   63  186 1    
   128   63  187 1    
   129   63  188 1    
   130   64   65 am   BACKBONE|DICT|INTERRES
   131   64  189 1    
   132   65   66 2    
   133   67   68 2    
   134   67   69 am   BACKBONE|DICT|INTERRES
   135   69   70 1    
   136   69  190 1    
   137   70   71 1    
   138   70   72 1    
   139   70  191 1    
   140   71  192 1    
   141   71  193 1    
   142   71  194 1    
   143   72   73 2    
   144   72   74 am   BACKBONE|DICT|INTERRES
   145   74   75 1    
   146   74  195 1    
   147   75   76 1    
   148   75   77 1    
   149   75  196 1    
   150   76  197 1    
   151   76  198 1    
   152   76  199 1    
   153   77   78 2    
   154   77   79 am   BACKBONE|DICT|INTERRES
   155   79   80 1    
   156   79  200 1    
   157   80   81 1    
   158   80   82 1    
   159   80  201 1    
   160   81  202 1    
   161   81  203 1    
   162   81  204 1    
   163   82   83 2    
   164   82   84 am   BACKBONE|DICT|INTERRES
   165   84   85 1    
   166   84  205 1    
   167   85   86 1    
   168   85   87 1    
   169   85  206 1    
   170   86  207 1    
   171   86  208 1    
   172   86  209 1    
   173   87   88 2    
   174   87   89 am   BACKBONE|DICT|INTERRES
   175   89   90 1    
   176   89  210 1    
   177   90   91 1    
   178   90   92 1    
   179   90  211 1    
   180   91  212 1    
   181   91  213 1    
   182   91  214 1    
   183   92   93 2    
   184   92   94 am   BACKBONE|DICT|INTERRES
   185   94   95 1    
   186   94  215 1    
   187   95   96 1    
   188   95   97 1    
   189   95  216 1    
   190   96  217 1    
   191   96  218 1    
   192   96  219 1    
   193   97   98 2    
   194   97   99 am   BACKBONE|DICT|INTERRES
   195   99  100 1    
   196   99  220 1    
   197  100  101 1    
   198  100  102 1    
   199  100  221 1    
   200  101  222 1    
   201  101  223 1    
   202  101  224 1    
   203  102  103 2    
   204  102  104 am   BACKBONE|DICT|INTERRES
   205  104  105 1    
   206  104  225 1    
   207  105  106 1    
   208  105  107 1    
   209  105  226 1    
   210  106  227 1    
   211  106  228 1    
   212  106  229 1    
   213  107  108 2    
   214  107  109 am   BACKBONE|DICT|INTERRES
   215  109  110 1    
   216  109  230 1    
   217  110  111 1    
   218  110  112 1    
   219  110  231 1    
   220  111  232 1    
   221  111  233 1    
   222  111  234 1    
   223  112  113 2    
   224  112  114 am   BACKBONE|DICT|INTERRES
   225  114  115 1    
   226  114  235 1    
   227  115  116 1    
   228  115  117 1    
   229  115  236 1    
   230  116  237 1    
   231  116  238 1    
   232  116  239 1    
   233  117  118 2    
   234  117  119 am   BACKBONE|DICT|INTERRES
   235  119  120 1    
   236  119  240 1    
   237  120  121 1    
   238  120  124 1    
   239  120  241 1    
   240  121  122 am   BACKBONE|DICT|INTERRES
   241  121  123 2    
   242  122  242 1    
   243  122  243 1    
   244  124  125 1    
   245  124  244 1    
   246  124  245 1    
   247  125  126 1    
   248  126  246 1    
   249  126  247 1    
@<TRIPOS>SUBSTRUCTURE
     1 UNK         1 GROUP             0       ****    0 ROOT    
