@<TRIPOS>MOLECULE
3R540
247   249    1
SMALL
USER_CHARGES


@<TRIPOS>ATOM
      1 CA          0.1056  -13.8479  -51.5302 C.3       0 UNK        -0.1800 
      2 C           0.4928  -13.9258  -50.0608 C.2       0 UNK         0.5000 
      3 O           1.5791  -14.4080  -49.7370 O.2       0 UNK        -0.5000 
      4 N          -0.3890  -13.4569  -49.1685 N.am      1 UNK        -0.5000 
      5 CA         -0.2593  -13.5391  -47.7092 C.3       1 UNK         0.1400 
      6 C6         -1.6304  -13.4418  -46.9870 C.3       23 UNK        -0.0398 
      7 S7         -2.9482  -14.5257  -47.6328 S.3       23 UNK        -0.2404 
      8 C8         -2.2674  -16.1939  -47.3714 C.3       23 UNK        -0.0205 
      9 C9         -1.6784  -16.7760  -48.6487 C.ar      23 UNK        -0.0193 
     10 C10        -2.5003  -16.9837  -49.7601 C.ar      23 UNK        -0.1150 
     11 C11        -1.9917  -17.5337  -50.9443 C.ar      23 UNK        -0.0193 
     12 C12        -0.6404  -17.8896  -50.9883 C.ar      23 UNK        -0.1150 
     13 C13         0.1966  -17.6919  -49.8859 C.ar      23 UNK        -0.0193 
     14 C14        -0.3286  -17.1272  -48.7200 C.ar      23 UNK        -0.1150 
     15 C15         1.6665  -18.0966  -49.9625 C.3       23 UNK        -0.0205 
     16 S16         2.1496  -19.4133  -48.7859 S.3       23 UNK        -0.2404 
     17 C17         0.6057  -20.3630  -48.5864 C.3       23 UNK        -0.0398 
     18 CA          0.7717  -21.7361  -47.8861 C.3       11 UNK         0.1400 
     19 N           1.3424  -21.5954  -46.5515 N.am      11 UNK        -0.5000 
     20 C           2.1096  -22.4936  -45.9245 C.2       10 UNK         0.5000 
     21 O           2.3976  -23.5992  -46.3831 O.2       10 UNK        -0.5000 
     22 CA          2.6679  -22.0689  -44.5554 C.3       10 UNK         0.1400 
     23 CB          3.8512  -21.1022  -44.7240 C.3       10 UNK        -0.1800 
     24 N           1.6406  -21.4345  -43.7315 N.am      10 UNK        -0.5000 
     25 C           0.7830  -22.1050  -42.9520 C.2       9 UNK         0.5000 
     26 O           0.8172  -23.3259  -42.7970 O.2       9 UNK        -0.5000 
     27 CA         -0.2907  -21.2836  -42.2099 C.3       9 UNK         0.1400 
     28 CB          0.1930  -20.9303  -40.7954 C.3       9 UNK        -0.1800 
     29 N          -0.6805  -20.0552  -42.9026 N.am      9 UNK        -0.5000 
     30 C          -1.3131  -19.9993  -44.0830 C.2       8 UNK         0.5000 
     31 O          -1.6840  -20.9895  -44.7142 O.2       8 UNK        -0.5000 
     32 CA         -1.5138  -18.5943  -44.6858 C.3       8 UNK         0.1400 
     33 CB         -2.7692  -17.9277  -44.1049 C.3       8 UNK        -0.1800 
     34 N          -0.3541  -17.7149  -44.4959 N.am      8 UNK        -0.5000 
     35 C           0.8739  -17.9812  -44.9648 C.2       7 UNK         0.5000 
     36 O           1.1426  -18.9852  -45.6167 O.2       7 UNK        -0.5000 
     37 CA          2.0037  -17.0099  -44.5967 C.3       7 UNK         0.1400 
     38 CB          2.0119  -15.7815  -45.5163 C.3       7 UNK        -0.1800 
     39 N           1.9135  -16.6044  -43.1960 N.am      7 UNK        -0.5000 
     40 C           2.2576  -17.3996  -42.1720 C.2       6 UNK         0.5000 
     41 O           2.7793  -18.5058  -42.3113 O.2       6 UNK        -0.5000 
     42 CA          1.9223  -16.8966  -40.7565 C.3       6 UNK         0.1400 
     43 CB          3.0995  -16.1131  -40.1586 C.3       6 UNK        -0.1800 
     44 N           0.7107  -16.0740  -40.7303 N.am      6 UNK        -0.5000 
     45 C          -0.5236  -16.5691  -40.9066 C.2       5 UNK         0.5000 
     46 O          -0.7544  -17.7640  -41.0875 O.2       5 UNK        -0.5000 
     47 CA         -1.6952  -15.5696  -40.9273 C.3       5 UNK         0.1400 
     48 CB         -2.2678  -15.3853  -39.5144 C.3       5 UNK        -0.1800 
     49 N          -1.3470  -14.2604  -41.4797 N.am      5 UNK        -0.5000 
     50 C          -0.9131  -14.0357  -42.7268 C.2       4 UNK         0.5000 
     51 O          -0.7460  -14.9294  -43.5604 O.2       4 UNK        -0.5000 
     52 CA         -0.5742  -12.5778  -43.1058 C.3       4 UNK         0.1400 
     53 CB         -0.8913  -11.5424  -42.0030 C.3       4 UNK        -0.1800 
     54 N           0.8178  -12.4385  -43.5430 N.am      4 UNK        -0.5000 
     55 C           1.9190  -12.7768  -42.8528 C.2       3 UNK         0.5000 
     56 O           1.8851  -13.2859  -41.7315 O.2       3 UNK        -0.5000 
     57 CA          3.2796  -12.5205  -43.5323 C.3       3 UNK         0.1400 
     58 CB          4.3405  -13.5600  -43.1259 C.3       3 UNK        -0.1800 
     59 N           3.1477  -12.5138  -44.9905 N.am      3 UNK        -0.5000 
     60 C           3.4244  -11.4814  -45.7956 C.2       2 UNK         0.5000 
     61 O           3.8900  -10.4101  -45.4058 O.2       2 UNK        -0.5000 
     62 CA          3.1082  -11.6686  -47.2943 C.3       2 UNK         0.1400 
     63 CB          4.3636  -12.1279  -48.0509 C.3       2 UNK        -0.1800 
     64 N           2.0136  -12.6022  -47.5886 N.am      2 UNK        -0.5000 
     65 C           0.7486  -12.5005  -47.1605 C.2       1 UNK         0.5000 
     66 O           0.3750  -11.6322  -46.3699 O.2       1 UNK        -0.5000 
     67 C          -0.5631  -22.5067  -47.8102 C.2       11 UNK         0.5000 
     68 O          -0.5566  -23.7372  -47.7959 O.2       11 UNK        -0.5000 
     69 N          -1.6858  -21.7728  -47.8071 N.am      12 UNK        -0.5000 
     70 CA         -3.0536  -22.2514  -48.0138 C.3       12 UNK         0.1400 
     71 CB         -4.0039  -21.0456  -47.9715 C.3       12 UNK        -0.1800 
     72 C          -3.5281  -23.3539  -47.0513 C.2       12 UNK         0.5000 
     73 O          -4.3277  -24.1987  -47.4519 O.2       12 UNK        -0.5000 
     74 N          -3.0105  -23.3647  -45.8169 N.am      13 UNK        -0.5000 
     75 CA         -3.2937  -24.4065  -44.8273 C.3       13 UNK         0.1400 
     76 CB         -2.7507  -23.9649  -43.4633 C.3       13 UNK        -0.1800 
     77 C          -2.7385  -25.7973  -45.2050 C.2       13 UNK         0.5000 
     78 O          -3.2536  -26.7978  -44.7037 O.2       13 UNK        -0.5000 
     79 N          -1.7146  -25.8420  -46.0690 N.am      14 UNK        -0.5000 
     80 CA         -1.0765  -27.0682  -46.5472 C.3       14 UNK         0.1400 
     81 CB          0.4295  -26.9931  -46.2486 C.3       14 UNK        -0.1800 
     82 C          -1.3136  -27.2829  -48.0516 C.2       14 UNK         0.5000 
     83 O          -1.6000  -28.4065  -48.4659 O.2       14 UNK        -0.5000 
     84 N          -1.1818  -26.2117  -48.8437 N.am      15 UNK        -0.5000 
     85 CA         -1.2035  -26.2344  -50.3077 C.3       15 UNK         0.1400 
     86 CB         -0.1400  -25.2495  -50.8213 C.3       15 UNK        -0.1800 
     87 C          -2.5871  -25.9261  -50.9137 C.2       15 UNK         0.5000 
     88 O          -2.6881  -25.8236  -52.1381 O.2       15 UNK        -0.5000 
     89 N          -3.6200  -25.7802  -50.0694 N.am      16 UNK        -0.5000 
     90 CA         -5.0207  -25.5078  -50.4113 C.3       16 UNK         0.1400 
     91 CB         -5.6547  -26.7242  -51.1231 C.3       16 UNK        -0.1800 
     92 C          -5.1718  -24.1838  -51.1860 C.2       16 UNK         0.5000 
     93 O          -5.1364  -23.1186  -50.5727 O.2       16 UNK        -0.5000 
     94 N          -5.3084  -24.2696  -52.5161 N.am      17 UNK        -0.5000 
     95 CA         -5.3457  -23.1327  -53.4368 C.3       17 UNK         0.1400 
     96 CB         -5.6569  -23.6560  -54.8464 C.3       17 UNK        -0.1800 
     97 C          -4.0446  -22.3053  -53.4413 C.2       17 UNK         0.5000 
     98 O          -4.1007  -21.0878  -53.6350 O.2       17 UNK        -0.5000 
     99 N          -2.9125  -22.9840  -53.2010 N.am      18 UNK        -0.5000 
    100 CA        -1.5571  -22.4443  -53.1219 C.3       18 UNK         0.1400 
    101 CB        -1.3817  -21.6408  -51.8136 C.3       18 UNK        -0.1800 
    102 C         -1.1570  -21.6850  -54.4052 C.2       18 UNK         0.5000 
    103 O         -1.1922  -22.2724  -55.4876 O.2       18 UNK        -0.5000 
    104 N         -0.7730  -20.4103  -54.2673 N.am      19 UNK        -0.5000 
    105 CA        -0.2978  -19.5518  -55.3537 C.3       19 UNK         0.1400 
    106 CB         0.4965  -18.3855  -54.7420 C.3       19 UNK        -0.1800 
    107 C         -1.4114  -19.0112  -56.2745 C.2       19 UNK         0.5000 
    108 O         -1.0876  -18.4332  -57.3135 O.2       19 UNK        -0.5000 
    109 N         -2.6837  -19.1687  -55.8881 N.am      20 UNK        -0.5000 
    110 CA        -3.8338  -18.6368  -56.6125 C.3       20 UNK         0.1400 
    111 CB        -4.0959  -17.1793  -56.1729 C.3       20 UNK        -0.1800 
    112 C         -5.0259  -19.5865  -56.4250 C.2       20 UNK         0.5000 
    113 O         -5.0018  -20.6938  -56.9629 O.2       20 UNK        -0.5000 
    114 N         -6.0376  -19.1449  -55.6723 N.am      21 UNK        -0.5000 
    115 CA        -7.2375  -19.8979  -55.3176 C.3       21 UNK         0.1400 
    116 CB        -8.3662  -19.5785  -56.3152 C.3       21 UNK        -0.1800 
    117 C         -7.5982  -19.5781  -53.8580 C.2       21 UNK         0.5000 
    118 O         -8.7433  -19.2431  -53.5525 O.2       21 UNK        -0.5000 
    119 N         -6.5854  -19.6462  -52.9875 N.am      22 UNK        -0.5000 
    120 CA        -6.6344  -19.2336  -51.5752 C.3       22 UNK         0.1400 
    121 C         -7.3012  -20.2543  -50.6036 C.2       22 UNK         0.5000 
    122 N         -7.9188  -21.3287  -51.0782 N.am      22 UNK        -0.7600 
    123 O         -7.2882  -20.0521  -49.3927 O.2       22 UNK        -0.5000 
    124 C124       -5.2358  -18.7766  -51.0839 C.3       23 UNK        -0.0398 
    125 S125       -4.6176  -17.3557  -52.0553 S.3       23 UNK        -0.2404 
    126 C126       -2.8382  -17.7350  -52.2065 C.3       23 UNK        -0.0205 
    127 H127        0.8417  -13.2648  -52.0833 H         1 UNK         0.0600 
    128 H128       -0.8719  -13.3851  -51.6676 H         1 UNK         0.0600 
    129 H129        0.0691  -14.8502  -51.9575 H         1 UNK         0.0600 
    130 H130       -1.2602  -13.0675  -49.4988 H         1 UNK         0.3000 
    131 H131        0.1547  -14.5199  -47.4741 H         1 UNK         0.0600 
    132 H132       -2.0161  -12.4220  -47.0387 H         1 UNK         0.0800 
    133 H133       -1.5098  -13.6666  -45.9269 H         1 UNK         0.0800 
    134 H134       -1.5304  -16.1717  -46.5681 H         1 UNK         0.0800 
    135 H135       -3.0724  -16.8476  -47.0340 H         1 UNK         0.0800 
    136 H136       -3.5371  -16.6927  -49.6876 H         1 UNK         0.1150 
    137 H137       -0.2318  -18.3171  -51.8909 H         1 UNK         0.1150 
    138 H138        0.3151  -16.9819  -47.8660 H         1 UNK         0.1150 
    139 H139        1.9153  -18.4331  -50.9701 H         1 UNK         0.0800 
    140 H140        2.2843  -17.2166  -49.7779 H         1 UNK         0.0800 
    141 H141        0.1619  -20.4951  -49.5730 H         1 UNK         0.0800 
    142 H142       -0.0741  -19.7325  -48.0130 H         1 UNK         0.0800 
    143 H143        1.4501  -22.3353  -48.4972 H         1 UNK         0.0600 
    144 H144        1.2052  -20.6860  -46.1137 H         1 UNK         0.3000 
    145 H145        3.0389  -22.9629  -44.0495 H         1 UNK         0.0600 
    146 H146        4.6485  -21.5613  -45.3095 H         1 UNK         0.0600 
    147 H147        3.5578  -20.1840  -45.2338 H         1 UNK         0.0600 
    148 H148        4.2733  -20.8252  -43.7577 H         1 UNK         0.0600 
    149 H149        1.5422  -20.4320  -43.8167 H         1 UNK         0.3000 
    150 H150       -1.1798  -21.9081  -42.1144 H         1 UNK         0.0600 
    151 H151        0.4774  -21.8266  -40.2426 H         1 UNK         0.0600 
    152 H152       -0.5902  -20.4320  -40.2238 H         1 UNK         0.0600 
    153 H153        1.0606  -20.2701  -40.8216 H         1 UNK         0.0600 
    154 H154       -0.4799  -19.1842  -42.4201 H         1 UNK         0.3000 
    155 H155       -1.6585  -18.7161  -45.7611 H         1 UNK         0.0600 
    156 H156       -2.7235  -17.8643  -43.0181 H         1 UNK         0.0600 
    157 H157       -2.9040  -16.9178  -44.4922 H         1 UNK         0.0600 
    158 H158       -3.6628  -18.4984  -44.3601 H         1 UNK         0.0600 
    159 H159       -0.5077  -16.8479  -43.9903 H         1 UNK         0.3000 
    160 H160        2.9485  -17.5371  -44.7481 H         1 UNK         0.0600 
    161 H161        1.1516  -15.1363  -45.3442 H         1 UNK         0.0600 
    162 H162        2.0043  -16.0787  -46.5654 H         1 UNK         0.0600 
    163 H163        2.9181  -15.1990  -45.3657 H         1 UNK         0.0600 
    164 H164        1.4322  -15.7392  -42.9941 H         1 UNK         0.3000 
    165 H165        1.7514  -17.7731  -40.1275 H         1 UNK         0.0600 
    166 H166        2.8786  -15.7804  -39.1444 H         1 UNK         0.0600 
    167 H167        3.9944  -16.7348  -40.1095 H         1 UNK         0.0600 
    168 H168        3.3463  -15.2350  -40.7537 H         1 UNK         0.0600 
    169 H169        0.8373  -15.0732  -40.6441 H         1 UNK         0.3000 
    170 H170       -2.4785  -15.9934  -41.5579 H         1 UNK         0.0600 
    171 H171       -2.5610  -16.3439  -39.0839 H         1 UNK         0.0600 
    172 H172       -1.5395  -14.9317  -38.8408 H         1 UNK         0.0600 
    173 H173       -3.1550  -14.7519  -39.5271 H         1 UNK         0.0600 
    174 H174       -1.4293  -13.4724  -40.8541 H         1 UNK         0.3000 
    175 H175       -1.1960  -12.3351  -43.9678 H         1 UNK         0.0600 
    176 H176       -0.3017  -11.7052  -41.0999 H         1 UNK         0.0600 
    177 H177       -0.6808  -10.5313  -42.3517 H         1 UNK         0.0600 
    178 H178       -1.9461  -11.5680  -41.7263 H         1 UNK         0.0600 
    179 H179        0.9334  -12.0396  -44.4688 H         1 UNK         0.3000 
    180 H180        3.6156  -11.5445  -43.1774 H         1 UNK         0.0600 
    181 H181        4.0200  -14.5782  -43.3452 H         1 UNK         0.0600 
    182 H182        4.5509  -13.5054  -42.0573 H         1 UNK         0.0600 
    183 H183        5.2820  -13.3855  -43.6467 H         1 UNK         0.0600 
    184 H184        2.7640  -13.3471  -45.4104 H         1 UNK         0.3000 
    185 H185        2.8133  -10.6924  -47.6843 H         1 UNK         0.0600 
    186 H186        5.1954  -11.4419  -47.8849 H         1 UNK         0.0600 
    187 H187        4.6851  -13.1194  -47.7293 H         1 UNK         0.0600 
    188 H188        4.1847  -12.1658  -49.1258 H         1 UNK         0.0600 
    189 H189        2.2038  -13.3218  -48.2818 H         1 UNK         0.3000 
    190 H190       -1.5937  -20.7712  -47.7438 H         1 UNK         0.3000 
    191 H191       -3.0854  -22.6758  -49.0180 H         1 UNK         0.0600 
    192 H192       -3.9846  -20.5527  -46.9987 H         1 UNK         0.0600 
    193 H193       -5.0323  -21.3539  -48.1661 H         1 UNK         0.0600 
    194 H194       -3.7412  -20.3079  -48.7299 H         1 UNK         0.0600 
    195 H195       -2.3882  -22.6109  -45.5358 H         1 UNK         0.3000 
    196 H196       -4.3783  -24.5011  -44.7431 H         1 UNK         0.0600 
    197 H197       -1.6665  -23.8692  -43.4887 H         1 UNK         0.0600 
    198 H198       -2.9991  -24.6898  -42.6872 H         1 UNK         0.0600 
    199 H199       -3.1708  -23.0053  -43.1615 H         1 UNK         0.0600 
    200 H200       -1.3641  -24.9713  -46.4550 H         1 UNK         0.3000 
    201 H201       -1.4764  -27.9408  -46.0268 H         1 UNK         0.0600 
    202 H202        0.6131  -26.9117  -45.1771 H         1 UNK         0.0600 
    203 H203        0.8952  -26.1325  -46.7314 H         1 UNK         0.0600 
    204 H204        0.9445  -27.8879  -46.6006 H         1 UNK         0.0600 
    205 H205       -0.9397  -25.3157  -48.4220 H         1 UNK         0.3000 
    206 H206       -0.9244  -27.2301  -50.6582 H         1 UNK         0.0600 
    207 H207       -0.0561  -25.2902  -51.9077 H         1 UNK         0.0600 
    208 H208       -0.3746  -24.2229  -50.5433 H         1 UNK         0.0600 
    209 H209        0.8434  -25.4866  -50.4150 H         1 UNK         0.0600 
    210 H210       -3.4223  -25.8202  -49.0789 H         1 UNK         0.3000 
    211 H211       -5.5548  -25.3733  -49.4702 H         1 UNK         0.0600 
    212 H212       -5.1384  -26.9875  -52.0465 H         1 UNK         0.0600 
    213 H213       -6.6996  -26.5320  -51.3702 H         1 UNK         0.0600 
    214 H214       -5.6349  -27.6020  -50.4772 H         1 UNK         0.0600 
    215 H215       -5.2904  -25.1885  -52.9338 H         1 UNK         0.3000 
    216 H216       -6.1561  -22.4737  -53.1245 H         1 UNK         0.0600 
    217 H217       -4.9156  -24.3850  -55.1761 H         1 UNK         0.0600 
    218 H218       -5.6603  -22.8489  -55.5776 H         1 UNK         0.0600 
    219 H219       -6.6368  -24.1321  -54.8836 H         1 UNK         0.0600 
    220 H220       -2.9870  -23.9844  -53.0481 H         1 UNK         0.3000 
    221 H221       -0.8901  -23.3050  -53.0691 H         1 UNK         0.0600 
    222 H222       -2.0434  -20.7775  -51.7642 H         1 UNK         0.0600 
    223 H223       -1.6064  -22.2609  -50.9469 H         1 UNK         0.0600 
    224 H224       -0.3548  -21.2926  -51.7016 H         1 UNK         0.0600 
    225 H225       -0.7811  -20.0072  -53.3439 H         1 UNK         0.3000 
    226 H226        0.3836  -20.1346  -55.9771 H         1 UNK         0.0600 
    227 H227        1.2904  -18.7433  -54.0859 H         1 UNK         0.0600 
    228 H228        0.9692  -17.7860  -55.5210 H         1 UNK         0.0600 
    229 H229       -0.1460  -17.7183  -54.1669 H         1 UNK         0.0600 
    230 H230       -2.8926  -19.7246  -55.0671 H         1 UNK         0.3000 
    231 H231       -3.6234  -18.6343  -57.6841 H         1 UNK         0.0600 
    232 H232       -4.9717  -16.7654  -56.6743 H         1 UNK         0.0600 
    233 H233       -3.2519  -16.5386  -56.4289 H         1 UNK         0.0600 
    234 H234       -4.2513  -17.0983  -55.0969 H         1 UNK         0.0600 
    235 H235       -5.9570  -18.2319  -55.2456 H         1 UNK         0.3000 
    236 H236       -7.0342  -20.9685  -55.3598 H         1 UNK         0.0600 
    237 H237       -8.0771  -19.8412  -57.3329 H         1 UNK         0.0600 
    238 H238       -9.2694  -20.1424  -56.0794 H         1 UNK         0.0600 
    239 H239       -8.6241  -18.5189  -56.3034 H         1 UNK         0.0600 
    240 H240       -5.6770  -19.9582  -53.3182 H         1 UNK         0.3000 
    241 H241       -7.2826  -18.3567  -51.5225 H         1 UNK         0.0600 
    242 H242       -7.9953  -21.4794  -52.0692 H         1 UNK         0.3800 
    243 H243       -8.3455  -21.9745  -50.4338 H         1 UNK         0.3800 
    244 H244       -5.2701  -18.4699  -50.0373 H         1 UNK         0.0800 
    245 H245       -4.5279  -19.6055  -51.1391 H         1 UNK         0.0800 
    246 H246       -2.4322  -17.0910  -52.9877 H         1 UNK         0.0800 
    247 H247       -2.7311  -18.7555  -52.5713 H         1 UNK         0.0800 
@<TRIPOS>BOND
     1    1    2 1    
     2    1  127 1    
     3    1  128 1    
     4    1  129 1    
     5    2    3 2    
     6    2    4 am   BACKBONE|DICT|INTERRES
     7    4    5 1    
     8    4  130 1    
     9    5    6 1    
    10    5   65 1    
    11    5  131 1    
    12    6    7 1    
    13    6  132 1    
    14    6  133 1    
    15    7    8 1    
    16    8    9 1    
    17    8  134 1    
    18    8  135 1    
    19    9   10 ar   
    20    9   14 ar   
    21   10   11 ar   
    22   10  136 1    
    23   11   12 ar   
    24   11  126 1    
    25   12   13 ar   
    26   12  137 1    
    27   13   14 ar   
    28   13   15 1    
    29   14  138 1    
    30   15   16 1    
    31   15  139 1    
    32   15  140 1    
    33   16   17 1    
    34   17   18 1    
    35   17  141 1    
    36   17  142 1    
    37   18   19 1    
    38   18   67 1    
    39   18  143 1    
    40   19   20 am   BACKBONE|DICT|INTERRES
    41   19  144 1    
    42   20   21 2    
    43   20   22 1    
    44   22   23 1    
    45   22   24 1    
    46   22  145 1    
    47   23  146 1    
    48   23  147 1    
    49   23  148 1    
    50   24   25 am   BACKBONE|DICT|INTERRES
    51   24  149 1    
    52   25   26 2    
    53   25   27 1    
    54   27   28 1    
    55   27   29 1    
    56   27  150 1    
    57   28  151 1    
    58   28  152 1    
    59   28  153 1    
    60   29   30 am   BACKBONE|DICT|INTERRES
    61   29  154 1    
    62   30   31 2    
    63   30   32 1    
    64   32   33 1    
    65   32   34 1    
    66   32  155 1    
    67   33  156 1    
    68   33  157 1    
    69   33  158 1    
    70   34   35 am   BACKBONE|DICT|INTERRES
    71   34  159 1    
    72   35   36 2    
    73   35   37 1    
    74   37   38 1    
    75   37   39 1    
    76   37  160 1    
    77   38  161 1    
    78   38  162 1    
    79   38  163 1    
    80   39   40 am   BACKBONE|DICT|INTERRES
    81   39  164 1    
    82   40   41 2    
    83   40   42 1    
    84   42   43 1    
    85   42   44 1    
    86   42  165 1    
    87   43  166 1    
    88   43  167 1    
    89   43  168 1    
    90   44   45 am   BACKBONE|DICT|INTERRES
    91   44  169 1    
    92   45   46 2    
    93   45   47 1    
    94   47   48 1    
    95   47   49 1    
    96   47  170 1    
    97   48  171 1    
    98   48  172 1    
    99   48  173 1    
   100   49   50 am   BACKBONE|DICT|INTERRES
   101   49  174 1    
   102   50   51 2    
   103   50   52 1    
   104   52   53 1    
   105   52   54 1    
   106   52  175 1    
   107   53  176 1    
   108   53  177 1    
   109   53  178 1    
   110   54   55 am   BACKBONE|DICT|INTERRES
   111   54  179 1    
   112   55   56 2    
   113   55   57 1    
   114   57   58 1    
   115   57   59 1    
   116   57  180 1    
   117   58  181 1    
   118   58  182 1    
   119   58  183 1    
   120   59   60 am   BACKBONE|DICT|INTERRES
   121   59  184 1    
   122   60   61 2    
   123   60   62 1    
   124   62   63 1    
   125   62   64 1    
   126   62  185 1    
   127   63  186 1    
   128   63  187 1    
   129   63  188 1    
   130   64   65 am   BACKBONE|DICT|INTERRES
   131   64  189 1    
   132   65   66 2    
   133   67   68 2    
   134   67   69 am   BACKBONE|DICT|INTERRES
   135   69   70 1    
   136   69  190 1    
   137   70   71 1    
   138   70   72 1    
   139   70  191 1    
   140   71  192 1    
   141   71  193 1    
   142   71  194 1    
   143   72   73 2    
   144   72   74 am   BACKBONE|DICT|INTERRES
   145   74   75 1    
   146   74  195 1    
   147   75   76 1    
   148   75   77 1    
   149   75  196 1    
   150   76  197 1    
   151   76  198 1    
   152   76  199 1    
   153   77   78 2    
   154   77   79 am   BACKBONE|DICT|INTERRES
   155   79   80 1    
   156   79  200 1    
   157   80   81 1    
   158   80   82 1    
   159   80  201 1    
   160   81  202 1    
   161   81  203 1    
   162   81  204 1    
   163   82   83 2    
   164   82   84 am   BACKBONE|DICT|INTERRES
   165   84   85 1    
   166   84  205 1    
   167   85   86 1    
   168   85   87 1    
   169   85  206 1    
   170   86  207 1    
   171   86  208 1    
   172   86  209 1    
   173   87   88 2    
   174   87   89 am   BACKBONE|DICT|INTERRES
   175   89   90 1    
   176   89  210 1    
   177   90   91 1    
   178   90   92 1    
   179   90  211 1    
   180   91  212 1    
   181   91  213 1    
   182   91  214 1    
   183   92   93 2    
   184   92   94 am   BACKBONE|DICT|INTERRES
   185   94   95 1    
   186   94  215 1    
   187   95   96 1    
   188   95   97 1    
   189   95  216 1    
   190   96  217 1    
   191   96  218 1    
   192   96  219 1    
   193   97   98 2    
   194   97   99 am   BACKBONE|DICT|INTERRES
   195   99  100 1    
   196   99  220 1    
   197  100  101 1    
   198  100  102 1    
   199  100  221 1    
   200  101  222 1    
   201  101  223 1    
   202  101  224 1    
   203  102  103 2    
   204  102  104 am   BACKBONE|DICT|INTERRES
   205  104  105 1    
   206  104  225 1    
   207  105  106 1    
   208  105  107 1    
   209  105  226 1    
   210  106  227 1    
   211  106  228 1    
   212  106  229 1    
   213  107  108 2    
   214  107  109 am   BACKBONE|DICT|INTERRES
   215  109  110 1    
   216  109  230 1    
   217  110  111 1    
   218  110  112 1    
   219  110  231 1    
   220  111  232 1    
   221  111  233 1    
   222  111  234 1    
   223  112  113 2    
   224  112  114 am   BACKBONE|DICT|INTERRES
   225  114  115 1    
   226  114  235 1    
   227  115  116 1    
   228  115  117 1    
   229  115  236 1    
   230  116  237 1    
   231  116  238 1    
   232  116  239 1    
   233  117  118 2    
   234  117  119 am   BACKBONE|DICT|INTERRES
   235  119  120 1    
   236  119  240 1    
   237  120  121 1    
   238  120  124 1    
   239  120  241 1    
   240  121  122 am   BACKBONE|DICT|INTERRES
   241  121  123 2    
   242  122  242 1    
   243  122  243 1    
   244  124  125 1    
   245  124  244 1    
   246  124  245 1    
   247  125  126 1    
   248  126  246 1    
   249  126  247 1    
@<TRIPOS>SUBSTRUCTURE
     1 UNK         1 GROUP             0       ****    0 ROOT    
