@<TRIPOS>MOLECULE
3R540
247   249    1
SMALL
USER_CHARGES


@<TRIPOS>ATOM
      1 CA          4.2338  -13.2167  -46.1252 C.3       0 UNK        -0.1800 
      2 C           2.7473  -13.5048  -46.2724 C.2       0 UNK         0.5000 
      3 O           2.2445  -14.4372  -45.6479 O.2       0 UNK        -0.5000 
      4 N           2.0484  -12.7105  -47.0911 N.am      1 UNK        -0.5000 
      5 CA          0.6094  -12.8456  -47.3697 C.3       1 UNK         0.1400 
      6 C6          0.3125  -12.9267  -48.8904 C.3       23 UNK        -0.0398 
      7 S7          1.3310  -14.1674  -49.7612 S.3       23 UNK        -0.2404 
      8 C8          0.3016  -15.6572  -49.6179 C.3       23 UNK        -0.0205 
      9 C9          1.0273  -16.8622  -50.1942 C.ar      23 UNK        -0.0193 
     10 C10         0.9802  -17.1169  -51.5674 C.ar      23 UNK        -0.1150 
     11 C11         1.6366  -18.2269  -52.1110 C.ar      23 UNK        -0.0193 
     12 C12         2.3620  -19.0693  -51.2621 C.ar      23 UNK        -0.1150 
     13 C13         2.4211  -18.8271  -49.8863 C.ar      23 UNK        -0.0193 
     14 C14         1.7538  -17.7168  -49.3600 C.ar      23 UNK        -0.1150 
     15 C15         3.2254  -19.7467  -48.9718 C.3       23 UNK        -0.0205 
     16 S16         2.7382  -21.5009  -49.1067 S.3       23 UNK        -0.2404 
     17 C17         0.9812  -21.4217  -48.6321 C.3       23 UNK        -0.0398 
     18 CA          0.4870  -22.6873  -47.8958 C.3       11 UNK         0.1400 
     19 N           1.2628  -22.9624  -46.6816 N.am      11 UNK        -0.5000 
     20 C           1.2582  -24.1351  -46.0356 C.2       10 UNK         0.5000 
     21 O           0.5806  -25.1014  -46.3815 O.2       10 UNK        -0.5000 
     22 CA          2.1177  -24.2252  -44.7620 C.3       10 UNK         0.1400 
     23 CB          3.5878  -24.4879  -45.1204 C.3       10 UNK        -0.1800 
     24 N           2.0354  -23.0395  -43.9051 N.am      10 UNK        -0.5000 
     25 C           0.9164  -22.5264  -43.3796 C.2       9 UNK         0.5000 
     26 O          -0.2069  -22.9601  -43.6309 O.2       9 UNK        -0.5000 
     27 CA          1.0512  -21.3161  -42.4368 C.3       9 UNK         0.1400 
     28 CB          1.2342  -21.7724  -40.9778 C.3       9 UNK        -0.1800 
     29 N           2.0687  -20.3292  -42.8222 N.am      9 UNK        -0.5000 
     30 C           3.4068  -20.4442  -42.8468 C.2       8 UNK         0.5000 
     31 O           4.0064  -21.4867  -42.5832 O.2       8 UNK        -0.5000 
     32 CA          4.2208  -19.2024  -43.2705 C.3       8 UNK         0.1400 
     33 CB          4.8050  -19.4089  -44.6776 C.3       8 UNK        -0.1800 
     34 N           3.4410  -17.9642  -43.2719 N.am      8 UNK        -0.5000 
     35 C           2.9875  -17.3195  -42.1868 C.2       7 UNK         0.5000 
     36 O           3.2774  -17.6337  -41.0324 O.2       7 UNK        -0.5000 
     37 CA          2.0084  -16.1548  -42.4414 C.3       7 UNK         0.1400 
     38 CB          2.7365  -14.8048  -42.3565 C.3       7 UNK        -0.1800 
     39 N           1.3317  -16.2551  -43.7389 N.am      7 UNK        -0.5000 
     40 C           0.4444  -17.2007  -44.0702 C.2       6 UNK         0.5000 
     41 O           0.0564  -18.0760  -43.2944 O.2       6 UNK        -0.5000 
     42 CA         -0.0450  -17.2119  -45.5283 C.3       6 UNK         0.1400 
     43 CB          0.2082  -18.5812  -46.1749 C.3       6 UNK        -0.1800 
     44 N          -1.4682  -16.9012  -45.6210 N.am      6 UNK        -0.5000 
     45 C          -1.9845  -15.6950  -45.3697 C.2       5 UNK         0.5000 
     46 O          -1.3061  -14.7109  -45.0558 O.2       5 UNK        -0.5000 
     47 CA         -3.5087  -15.5578  -45.4968 C.3       5 UNK         0.1400 
     48 CB         -4.2207  -16.1694  -44.2757 C.3       5 UNK        -0.1800 
     49 N          -3.7738  -14.1324  -45.5819 N.am      5 UNK        -0.5000 
     50 C          -4.9088  -13.4917  -45.8691 C.2       4 UNK         0.5000 
     51 O          -5.9660  -14.0544  -46.1577 O.2       4 UNK        -0.5000 
     52 CA         -4.8145  -11.9505  -45.8298 C.3       4 UNK         0.1400 
     53 CB         -6.1632  -11.2597  -45.5384 C.3       4 UNK        -0.1800 
     54 N          -3.7487  -11.4909  -44.9258 N.am      4 UNK        -0.5000 
     55 C          -3.7080  -11.5940  -43.5857 C.2       3 UNK         0.5000 
     56 O          -4.6626  -11.9609  -42.9000 O.2       3 UNK        -0.5000 
     57 CA         -2.3646  -11.2863  -42.8847 C.3       3 UNK         0.1400 
     58 CB         -1.8864  -12.4981  -42.0658 C.3       3 UNK        -0.1800 
     59 N          -1.2937  -10.9111  -43.8100 N.am      3 UNK        -0.5000 
     60 C          -1.1535   -9.7092  -44.3822 C.2       2 UNK         0.5000 
     61 O          -1.8877   -8.7512  -44.1390 O.2       2 UNK        -0.5000 
     62 CA         -0.0236   -9.5513  -45.4193 C.3       2 UNK         0.1400 
     63 CB          1.1524   -8.7699  -44.8128 C.3       2 UNK        -0.1800 
     64 N           0.4903  -10.8046  -45.9855 N.am      2 UNK        -0.5000 
     65 C          -0.1968  -11.6985  -46.7155 C.2       1 UNK         0.5000 
     66 O          -1.4150  -11.6310  -46.8903 O.2       1 UNK        -0.5000 
     67 C          -1.0286  -22.5903  -47.6104 C.2       11 UNK         0.5000 
     68 O          -1.8314  -22.9115  -48.4850 O.2       11 UNK        -0.5000 
     69 N          -1.4003  -22.1616  -46.3952 N.am      12 UNK        -0.5000 
     70 CA         -2.7898  -22.1314  -45.9395 C.3       12 UNK         0.1400 
     71 CB         -2.9393  -21.1412  -44.7739 C.3       12 UNK        -0.1800 
     72 C          -3.2725  -23.5397  -45.5492 C.2       12 UNK         0.5000 
     73 O          -4.3796  -23.9293  -45.9210 O.2       12 UNK        -0.5000 
     74 N          -2.4138  -24.2909  -44.8443 N.am      13 UNK        -0.5000 
     75 CA         -2.6405  -25.6779  -44.4335 C.3       13 UNK         0.1400 
     76 CB         -1.4997  -26.1260  -43.5080 C.3       13 UNK        -0.1800 
     77 C          -2.7908  -26.6470  -45.6213 C.2       13 UNK         0.5000 
     78 O          -3.5841  -27.5863  -45.5408 O.2       13 UNK        -0.5000 
     79 N          -2.0689  -26.3806  -46.7185 N.am      14 UNK        -0.5000 
     80 CA         -2.1443  -27.0842  -48.0007 C.3       14 UNK         0.1400 
     81 CB         -0.8595  -26.7968  -48.7963 C.3       14 UNK        -0.1800 
     82 C          -3.4297  -26.7463  -48.7918 C.2       14 UNK         0.5000 
     83 O          -3.3599  -26.2698  -49.9268 O.2       14 UNK        -0.5000 
     84 N          -4.5838  -27.0059  -48.1602 N.am      15 UNK        -0.5000 
     85 CA         -5.9528  -26.8936  -48.6760 C.3       15 UNK         0.1400 
     86 CB         -6.1990  -27.9685  -49.7553 C.3       15 UNK        -0.1800 
     87 C          -6.3429  -25.4791  -49.1563 C.2       15 UNK         0.5000 
     88 O          -7.1889  -25.3518  -50.0432 O.2       15 UNK        -0.5000 
     89 N          -5.7111  -24.4436  -48.5834 N.am      16 UNK        -0.5000 
     90 CA         -5.8300  -23.0054  -48.8657 C.3       16 UNK         0.1400 
     91 CB         -7.2457  -22.4902  -48.5503 C.3       16 UNK        -0.1800 
     92 C          -5.3875  -22.5619  -50.2750 C.2       16 UNK         0.5000 
     93 O          -4.8199  -21.4779  -50.4078 O.2       16 UNK        -0.5000 
     94 N          -5.6365  -23.3884  -51.2981 N.am      17 UNK        -0.5000 
     95 CA         -5.3634  -23.1461  -52.7158 C.3       17 UNK         0.1400 
     96 CB         -5.7874  -24.3787  -53.5265 C.3       17 UNK        -0.1800 
     97 C          -3.9030  -22.7782  -53.0248 C.2       17 UNK         0.5000 
     98 O          -3.6635  -21.9413  -53.8954 O.2       17 UNK        -0.5000 
     99 N          -2.9564  -23.3577  -52.2760 N.am      18 UNK        -0.5000 
    100 CA        -1.5290  -23.0592  -52.3874 C.3       18 UNK         0.1400 
    101 CB        -0.7274  -24.1084  -51.6054 C.3       18 UNK        -0.1800 
    102 C         -1.1490  -21.6265  -51.9575 C.2       18 UNK         0.5000 
    103 O         -0.0852  -21.1646  -52.3625 O.2       18 UNK        -0.5000 
    104 N         -2.0066  -20.9532  -51.1757 N.am      19 UNK        -0.5000 
    105 CA        -1.8757  -19.5402  -50.8156 C.3       19 UNK         0.1400 
    106 CB        -2.1479  -19.3650  -49.3118 C.3       19 UNK        -0.1800 
    107 C         -2.8515  -18.6602  -51.6155 C.2       19 UNK         0.5000 
    108 O         -2.5008  -17.5370  -51.9756 O.2       19 UNK        -0.5000 
    109 N         -4.0759  -19.1588  -51.8358 N.am      20 UNK        -0.5000 
    110 CA        -5.1706  -18.4109  -52.4521 C.3       20 UNK         0.1400 
    111 CB        -6.5061  -19.0764  -52.0850 C.3       20 UNK        -0.1800 
    112 C         -5.0371  -18.2702  -53.9781 C.2       20 UNK         0.5000 
    113 O         -5.3510  -17.2044  -54.5103 O.2       20 UNK        -0.5000 
    114 N         -4.5980  -19.3406  -54.6514 N.am      21 UNK        -0.5000 
    115 CA        -4.4473  -19.4057  -56.1061 C.3       21 UNK         0.1400 
    116 CB        -5.2740  -20.5842  -56.6465 C.3       21 UNK        -0.1800 
    117 C         -2.9739  -19.5470  -56.5188 C.2       21 UNK         0.5000 
    118 O         -2.5906  -19.0049  -57.5560 O.2       21 UNK        -0.5000 
    119 N         -2.1806  -20.2627  -55.7088 N.am      22 UNK        -0.5000 
    120 CA        -0.7403  -20.5213  -55.9045 C.3       22 UNK         0.1400 
    121 C         -0.4113  -21.4717  -57.0973 C.2       22 UNK         0.5000 
    122 N         -1.3670  -22.2293  -57.6223 N.am      22 UNK        -0.7600 
    123 O          0.7325  -21.5544  -57.5372 O.2       22 UNK        -0.5000 
    124 C124        0.1255  -19.2266  -55.9114 C.3       23 UNK        -0.0398 
    125 S125       -0.0448  -18.2706  -54.3659 S.3       23 UNK        -0.2404 
    126 C126        1.5952  -18.5282  -53.6072 C.3       23 UNK        -0.0205 
    127 H127        4.4699  -12.9919  -45.0851 H         1 UNK         0.0600 
    128 H128        4.5464  -12.3703  -46.7372 H         1 UNK         0.0600 
    129 H129        4.8145  -14.0883  -46.4270 H         1 UNK         0.0600 
    130 H130        2.5264  -11.9833  -47.6049 H         1 UNK         0.3000 
    131 H131        0.2337  -13.7680  -46.9263 H         1 UNK         0.0600 
    132 H132        0.5014  -11.9623  -49.3653 H         1 UNK         0.0800 
    133 H133       -0.7420  -13.1477  -49.0660 H         1 UNK         0.0800 
    134 H134       -0.6425  -15.5053  -50.1440 H         1 UNK         0.0800 
    135 H135        0.0513  -15.8310  -48.5702 H         1 UNK         0.0800 
    136 H136        0.4230  -16.4512  -52.2114 H         1 UNK         0.1150 
    137 H137        2.8779  -19.9266  -51.6712 H         1 UNK         0.1150 
    138 H138        1.8096  -17.5062  -48.3021 H         1 UNK         0.1150 
    139 H139        4.2817  -19.6564  -49.2281 H         1 UNK         0.0800 
    140 H140        3.1361  -19.4350  -47.9303 H         1 UNK         0.0800 
    141 H141        0.4092  -21.2592  -49.5452 H         1 UNK         0.0800 
    142 H142        0.8264  -20.5421  -48.0112 H         1 UNK         0.0800 
    143 H143        0.6243  -23.5336  -48.5727 H         1 UNK         0.0600 
    144 H144        1.8607  -22.2237  -46.3425 H         1 UNK         0.3000 
    145 H145        1.7525  -25.0733  -44.1797 H         1 UNK         0.0600 
    146 H146        4.1878  -24.6528  -44.2252 H         1 UNK         0.0600 
    147 H147        3.6857  -25.3768  -45.7451 H         1 UNK         0.0600 
    148 H148        4.0251  -23.6512  -45.6669 H         1 UNK         0.0600 
    149 H149        2.9133  -22.6266  -43.6024 H         1 UNK         0.3000 
    150 H150        0.1004  -20.7832  -42.4904 H         1 UNK         0.0600 
    151 H151        0.4096  -22.4148  -40.6660 H         1 UNK         0.0600 
    152 H152        1.2565  -20.9197  -40.2991 H         1 UNK         0.0600 
    153 H153        2.1561  -22.3374  -40.8381 H         1 UNK         0.0600 
    154 H154        1.6786  -19.4267  -43.0667 H         1 UNK         0.3000 
    155 H155        5.0453  -19.0912  -42.5634 H         1 UNK         0.0600 
    156 H156        4.0209  -19.5261  -45.4267 H         1 UNK         0.0600 
    157 H157        5.4302  -20.3021  -44.7156 H         1 UNK         0.0600 
    158 H158        5.4298  -18.5659  -44.9738 H         1 UNK         0.0600 
    159 H159        3.1696  -17.6042  -44.1747 H         1 UNK         0.3000 
    160 H160        1.2471  -16.1851  -41.6592 H         1 UNK         0.0600 
    161 H161        3.5178  -14.7218  -43.1130 H         1 UNK         0.0600 
    162 H162        3.2072  -14.6747  -41.3813 H         1 UNK         0.0600 
    163 H163        2.0443  -13.9743  -42.4979 H         1 UNK         0.0600 
    164 H164        1.5993  -15.5618  -44.4390 H         1 UNK         0.3000 
    165 H165        0.5091  -16.4632  -46.0982 H         1 UNK         0.0600 
    166 H166       -0.1090  -18.5749  -47.2164 H         1 UNK         0.0600 
    167 H167        1.2688  -18.8344  -46.1532 H         1 UNK         0.0600 
    168 H168       -0.3311  -19.3802  -45.6652 H         1 UNK         0.0600 
    169 H169       -2.0861  -17.6693  -45.8349 H         1 UNK         0.3000 
    170 H170       -3.8412  -16.0425  -46.4165 H         1 UNK         0.0600 
    171 H171       -3.9958  -17.2323  -44.1803 H         1 UNK         0.0600 
    172 H172       -3.9129  -15.6831  -43.3489 H         1 UNK         0.0600 
    173 H173       -5.3036  -16.0765  -44.3572 H         1 UNK         0.0600 
    174 H174       -2.9450  -13.5802  -45.3916 H         1 UNK         0.3000 
    175 H175       -4.5039  -11.6460  -46.8302 H         1 UNK         0.0600 
    176 H176       -6.6059  -11.6030  -44.6034 H         1 UNK         0.0600 
    177 H177       -6.0482  -10.1774  -45.4803 H         1 UNK         0.0600 
    178 H178       -6.8832  -11.4672  -46.3307 H         1 UNK         0.0600 
    179 H179       -2.8953  -11.2104  -45.3956 H         1 UNK         0.3000 
    180 H180       -2.5412  -10.4579  -42.1955 H         1 UNK         0.0600 
    181 H181       -0.9577  -12.2776  -41.5391 H         1 UNK         0.0600 
    182 H182       -1.7139  -13.3692  -42.6988 H         1 UNK         0.0600 
    183 H183       -2.6233  -12.7813  -41.3132 H         1 UNK         0.0600 
    184 H184       -0.6528  -11.6438  -44.0789 H         1 UNK         0.3000 
    185 H185       -0.4319   -8.9654  -46.2451 H         1 UNK         0.0600 
    186 H186        1.9143   -8.5565  -45.5628 H         1 UNK         0.0600 
    187 H187        0.8212   -7.8122  -44.4089 H         1 UNK         0.0600 
    188 H188        1.6250   -9.3230  -44.0001 H         1 UNK         0.0600 
    189 H189        1.4796  -10.9680  -45.8696 H         1 UNK         0.3000 
    190 H190       -0.6904  -21.9876  -45.6984 H         1 UNK         0.3000 
    191 H191       -3.4179  -21.7722  -46.7568 H         1 UNK         0.0600 
    192 H192       -3.9766  -21.0898  -44.4408 H         1 UNK         0.0600 
    193 H193       -2.6452  -20.1349  -45.0711 H         1 UNK         0.0600 
    194 H194       -2.3350  -21.4259  -43.9129 H         1 UNK         0.0600 
    195 H195       -1.5421  -23.8675  -44.5350 H         1 UNK         0.3000 
    196 H196       -3.5724  -25.7057  -43.8654 H         1 UNK         0.0600 
    197 H197       -0.5376  -26.1101  -44.0201 H         1 UNK         0.0600 
    198 H198       -1.4236  -25.4793  -42.6336 H         1 UNK         0.0600 
    199 H199       -1.6643  -27.1425  -43.1486 H         1 UNK         0.0600 
    200 H200       -1.3929  -25.6265  -46.6671 H         1 UNK         0.3000 
    201 H201       -2.1714  -28.1575  -47.8023 H         1 UNK         0.0600 
    202 H202       -0.7208  -25.7280  -48.9526 H         1 UNK         0.0600 
    203 H203       -0.8791  -27.2785  -49.7747 H         1 UNK         0.0600 
    204 H204        0.0188  -27.1701  -48.2695 H         1 UNK         0.0600 
    205 H205       -4.5033  -27.3507  -47.2071 H         1 UNK         0.3000 
    206 H206       -6.6110  -27.1141  -47.8347 H         1 UNK         0.0600 
    207 H207       -5.9370  -28.9616  -49.3902 H         1 UNK         0.0600 
    208 H208       -7.2492  -28.0009  -50.0479 H         1 UNK         0.0600 
    209 H209       -5.6139  -27.7767  -50.6554 H         1 UNK         0.0600 
    210 H210       -5.0437  -24.6616  -47.8523 H         1 UNK         0.3000 
    211 H211       -5.1463  -22.5170  -48.1719 H         1 UNK         0.0600 
    212 H212       -7.2993  -21.4069  -48.6664 H         1 UNK         0.0600 
    213 H213       -7.5279  -22.7211  -47.5231 H         1 UNK         0.0600 
    214 H214       -7.9956  -22.9250  -49.2115 H         1 UNK         0.0600 
    215 H215       -6.1462  -24.2390  -51.0736 H         1 UNK         0.3000 
    216 H216       -5.9842  -22.3056  -53.0287 H         1 UNK         0.0600 
    217 H217       -5.2294  -25.2670  -53.2269 H         1 UNK         0.0600 
    218 H218       -5.6162  -24.2247  -54.5929 H         1 UNK         0.0600 
    219 H219       -6.8487  -24.5906  -53.3953 H         1 UNK         0.0600 
    220 H220       -3.2330  -24.0188  -51.5622 H         1 UNK         0.3000 
    221 H221       -1.2542  -23.1525  -53.4404 H         1 UNK         0.0600 
    222 H222       -0.8881  -25.1087  -52.0078 H         1 UNK         0.0600 
    223 H223       -1.0149  -24.1235  -50.5573 H         1 UNK         0.0600 
    224 H224        0.3433  -23.9048  -51.6517 H         1 UNK         0.0600 
    225 H225       -2.8576  -21.4148  -50.8744 H         1 UNK         0.3000 
    226 H226       -0.8630  -19.1903  -51.0187 H         1 UNK         0.0600 
    227 H227       -3.1494  -19.6995  -49.0386 H         1 UNK         0.0600 
    228 H228       -1.4388  -19.9280  -48.7118 H         1 UNK         0.0600 
    229 H229       -2.0575  -18.3181  -49.0191 H         1 UNK         0.0600 
    230 H230       -4.3148  -20.0615  -51.4334 H         1 UNK         0.3000 
    231 H231       -5.1756  -17.4044  -52.0279 H         1 UNK         0.0600 
    232 H232       -6.5708  -20.0929  -52.4720 H         1 UNK         0.0600 
    233 H233       -7.3474  -18.5155  -52.4939 H         1 UNK         0.0600 
    234 H234       -6.6400  -19.1221  -51.0040 H         1 UNK         0.0600 
    235 H235       -4.3348  -20.1760  -54.1387 H         1 UNK         0.3000 
    236 H236       -4.8255  -18.4940  -56.5730 H         1 UNK         0.0600 
    237 H237       -6.3301  -20.4656  -56.4041 H         1 UNK         0.0600 
    238 H238       -5.1953  -20.6502  -57.7324 H         1 UNK         0.0600 
    239 H239       -4.9425  -21.5378  -56.2348 H         1 UNK         0.0600 
    240 H240       -2.6061  -20.7356  -54.9181 H         1 UNK         0.3000 
    241 H241       -0.4365  -21.0954  -55.0298 H         1 UNK         0.0600 
    242 H242       -1.1460  -22.8488  -58.3861 H         1 UNK         0.3800 
    243 H243       -2.3079  -22.1866  -57.2658 H         1 UNK         0.3800 
    244 H244       -0.1439  -18.5830  -56.7490 H         1 UNK         0.0800 
    245 H245        1.1794  -19.4676  -56.0567 H         1 UNK         0.0800 
    246 H246        1.8904  -19.5653  -53.7749 H         1 UNK         0.0800 
    247 H247        2.3297  -17.9044  -54.1174 H         1 UNK         0.0800 
@<TRIPOS>BOND
     1    1    2 1    
     2    1  127 1    
     3    1  128 1    
     4    1  129 1    
     5    2    3 2    
     6    2    4 am   BACKBONE|DICT|INTERRES
     7    4    5 1    
     8    4  130 1    
     9    5    6 1    
    10    5   65 1    
    11    5  131 1    
    12    6    7 1    
    13    6  132 1    
    14    6  133 1    
    15    7    8 1    
    16    8    9 1    
    17    8  134 1    
    18    8  135 1    
    19    9   10 ar   
    20    9   14 ar   
    21   10   11 ar   
    22   10  136 1    
    23   11   12 ar   
    24   11  126 1    
    25   12   13 ar   
    26   12  137 1    
    27   13   14 ar   
    28   13   15 1    
    29   14  138 1    
    30   15   16 1    
    31   15  139 1    
    32   15  140 1    
    33   16   17 1    
    34   17   18 1    
    35   17  141 1    
    36   17  142 1    
    37   18   19 1    
    38   18   67 1    
    39   18  143 1    
    40   19   20 am   BACKBONE|DICT|INTERRES
    41   19  144 1    
    42   20   21 2    
    43   20   22 1    
    44   22   23 1    
    45   22   24 1    
    46   22  145 1    
    47   23  146 1    
    48   23  147 1    
    49   23  148 1    
    50   24   25 am   BACKBONE|DICT|INTERRES
    51   24  149 1    
    52   25   26 2    
    53   25   27 1    
    54   27   28 1    
    55   27   29 1    
    56   27  150 1    
    57   28  151 1    
    58   28  152 1    
    59   28  153 1    
    60   29   30 am   BACKBONE|DICT|INTERRES
    61   29  154 1    
    62   30   31 2    
    63   30   32 1    
    64   32   33 1    
    65   32   34 1    
    66   32  155 1    
    67   33  156 1    
    68   33  157 1    
    69   33  158 1    
    70   34   35 am   BACKBONE|DICT|INTERRES
    71   34  159 1    
    72   35   36 2    
    73   35   37 1    
    74   37   38 1    
    75   37   39 1    
    76   37  160 1    
    77   38  161 1    
    78   38  162 1    
    79   38  163 1    
    80   39   40 am   BACKBONE|DICT|INTERRES
    81   39  164 1    
    82   40   41 2    
    83   40   42 1    
    84   42   43 1    
    85   42   44 1    
    86   42  165 1    
    87   43  166 1    
    88   43  167 1    
    89   43  168 1    
    90   44   45 am   BACKBONE|DICT|INTERRES
    91   44  169 1    
    92   45   46 2    
    93   45   47 1    
    94   47   48 1    
    95   47   49 1    
    96   47  170 1    
    97   48  171 1    
    98   48  172 1    
    99   48  173 1    
   100   49   50 am   BACKBONE|DICT|INTERRES
   101   49  174 1    
   102   50   51 2    
   103   50   52 1    
   104   52   53 1    
   105   52   54 1    
   106   52  175 1    
   107   53  176 1    
   108   53  177 1    
   109   53  178 1    
   110   54   55 am   BACKBONE|DICT|INTERRES
   111   54  179 1    
   112   55   56 2    
   113   55   57 1    
   114   57   58 1    
   115   57   59 1    
   116   57  180 1    
   117   58  181 1    
   118   58  182 1    
   119   58  183 1    
   120   59   60 am   BACKBONE|DICT|INTERRES
   121   59  184 1    
   122   60   61 2    
   123   60   62 1    
   124   62   63 1    
   125   62   64 1    
   126   62  185 1    
   127   63  186 1    
   128   63  187 1    
   129   63  188 1    
   130   64   65 am   BACKBONE|DICT|INTERRES
   131   64  189 1    
   132   65   66 2    
   133   67   68 2    
   134   67   69 am   BACKBONE|DICT|INTERRES
   135   69   70 1    
   136   69  190 1    
   137   70   71 1    
   138   70   72 1    
   139   70  191 1    
   140   71  192 1    
   141   71  193 1    
   142   71  194 1    
   143   72   73 2    
   144   72   74 am   BACKBONE|DICT|INTERRES
   145   74   75 1    
   146   74  195 1    
   147   75   76 1    
   148   75   77 1    
   149   75  196 1    
   150   76  197 1    
   151   76  198 1    
   152   76  199 1    
   153   77   78 2    
   154   77   79 am   BACKBONE|DICT|INTERRES
   155   79   80 1    
   156   79  200 1    
   157   80   81 1    
   158   80   82 1    
   159   80  201 1    
   160   81  202 1    
   161   81  203 1    
   162   81  204 1    
   163   82   83 2    
   164   82   84 am   BACKBONE|DICT|INTERRES
   165   84   85 1    
   166   84  205 1    
   167   85   86 1    
   168   85   87 1    
   169   85  206 1    
   170   86  207 1    
   171   86  208 1    
   172   86  209 1    
   173   87   88 2    
   174   87   89 am   BACKBONE|DICT|INTERRES
   175   89   90 1    
   176   89  210 1    
   177   90   91 1    
   178   90   92 1    
   179   90  211 1    
   180   91  212 1    
   181   91  213 1    
   182   91  214 1    
   183   92   93 2    
   184   92   94 am   BACKBONE|DICT|INTERRES
   185   94   95 1    
   186   94  215 1    
   187   95   96 1    
   188   95   97 1    
   189   95  216 1    
   190   96  217 1    
   191   96  218 1    
   192   96  219 1    
   193   97   98 2    
   194   97   99 am   BACKBONE|DICT|INTERRES
   195   99  100 1    
   196   99  220 1    
   197  100  101 1    
   198  100  102 1    
   199  100  221 1    
   200  101  222 1    
   201  101  223 1    
   202  101  224 1    
   203  102  103 2    
   204  102  104 am   BACKBONE|DICT|INTERRES
   205  104  105 1    
   206  104  225 1    
   207  105  106 1    
   208  105  107 1    
   209  105  226 1    
   210  106  227 1    
   211  106  228 1    
   212  106  229 1    
   213  107  108 2    
   214  107  109 am   BACKBONE|DICT|INTERRES
   215  109  110 1    
   216  109  230 1    
   217  110  111 1    
   218  110  112 1    
   219  110  231 1    
   220  111  232 1    
   221  111  233 1    
   222  111  234 1    
   223  112  113 2    
   224  112  114 am   BACKBONE|DICT|INTERRES
   225  114  115 1    
   226  114  235 1    
   227  115  116 1    
   228  115  117 1    
   229  115  236 1    
   230  116  237 1    
   231  116  238 1    
   232  116  239 1    
   233  117  118 2    
   234  117  119 am   BACKBONE|DICT|INTERRES
   235  119  120 1    
   236  119  240 1    
   237  120  121 1    
   238  120  124 1    
   239  120  241 1    
   240  121  122 am   BACKBONE|DICT|INTERRES
   241  121  123 2    
   242  122  242 1    
   243  122  243 1    
   244  124  125 1    
   245  124  244 1    
   246  124  245 1    
   247  125  126 1    
   248  126  246 1    
   249  126  247 1    
@<TRIPOS>SUBSTRUCTURE
     1 UNK         1 GROUP             0       ****    0 ROOT    
