@<TRIPOS>MOLECULE
3R540
247   249    1
SMALL
USER_CHARGES


@<TRIPOS>ATOM
      1 CA         -4.8259  -10.8251  -46.0199 C.3       0 UNK        -0.1800 
      2 C          -3.3052  -10.8793  -46.0335 C.2       0 UNK         0.5000 
      3 O          -2.6528  -10.0065  -45.4615 O.2       0 UNK        -0.5000 
      4 N          -2.7342  -11.9130  -46.6623 N.am      1 UNK        -0.5000 
      5 CA         -1.2933  -12.1621  -46.8194 C.3       1 UNK         0.1400 
      6 C6         -1.0150  -13.0112  -48.0878 C.3       23 UNK        -0.0398 
      7 S7         -1.8571  -14.6311  -48.0674 S.3       23 UNK        -0.2404 
      8 C8         -1.6706  -15.1810  -49.7910 C.3       23 UNK        -0.0205 
      9 C9         -1.7095  -16.6996  -49.8746 C.ar      23 UNK        -0.0193 
     10 C10        -0.5920  -17.4116  -50.3194 C.ar      23 UNK        -0.1150 
     11 C11        -0.6001  -18.8096  -50.3394 C.ar      23 UNK        -0.0193 
     12 C12        -1.7404  -19.4942  -49.9098 C.ar      23 UNK        -0.1150 
     13 C13        -2.8634  -18.7952  -49.4613 C.ar      23 UNK        -0.0193 
     14 C14        -2.8491  -17.3980  -49.4659 C.ar      23 UNK        -0.1150 
     15 C15        -4.0743  -19.5439  -48.9303 C.3       23 UNK        -0.0205 
     16 S16        -4.1462  -19.3714  -47.1231 S.3       23 UNK        -0.2404 
     17 C17        -4.8269  -20.9690  -46.5709 C.3       23 UNK        -0.0398 
     18 CA         -3.8311  -22.1541  -46.6615 C.3       11 UNK         0.1400 
     19 N          -2.4751  -21.8195  -46.2057 N.am      11 UNK        -0.5000 
     20 C          -1.4037  -22.6146  -46.3453 C.2       10 UNK         0.5000 
     21 O          -1.4665  -23.7510  -46.8138 O.2       10 UNK        -0.5000 
     22 CA         -0.0424  -22.0736  -45.8751 C.3       10 UNK         0.1400 
     23 CB          0.8047  -21.6426  -47.0816 C.3       10 UNK        -0.1800 
     24 N          -0.1530  -20.9566  -44.9344 N.am      10 UNK        -0.5000 
     25 C          -0.5095  -21.0866  -43.6467 C.2       9 UNK         0.5000 
     26 O          -0.8246  -22.1636  -43.1390 O.2       9 UNK        -0.5000 
     27 CA         -0.5240  -19.8134  -42.7751 C.3       9 UNK         0.1400 
     28 CB          0.7775  -19.7023  -41.9671 C.3       9 UNK        -0.1800 
     29 N          -0.7045  -18.5865  -43.5498 N.am      9 UNK        -0.5000 
     30 C          -1.8441  -18.2359  -44.1618 C.2       8 UNK         0.5000 
     31 O          -2.8928  -18.8684  -44.0388 O.2       8 UNK        -0.5000 
     32 CA         -1.8080  -16.9896  -45.0741 C.3       8 UNK         0.1400 
     33 CB         -2.4840  -15.7993  -44.3765 C.3       8 UNK        -0.1800 
     34 N          -0.4650  -16.5871  -45.5048 N.am      8 UNK        -0.5000 
     35 C           0.3924  -17.3417  -46.2085 C.2       7 UNK         0.5000 
     36 O           0.1513  -18.4921  -46.5702 O.2       7 UNK        -0.5000 
     37 CA          1.7814  -16.7407  -46.4847 C.3       7 UNK         0.1400 
     38 CB          1.8425  -16.0994  -47.8767 C.3       7 UNK        -0.1800 
     39 N           2.1682  -15.7505  -45.4805 N.am      7 UNK        -0.5000 
     40 C           2.5482  -16.0373  -44.2291 C.2       6 UNK         0.5000 
     41 O           2.5927  -17.1872  -43.7892 O.2       6 UNK        -0.5000 
     42 CA          2.9069  -14.8489  -43.3077 C.3       6 UNK         0.1400 
     43 CB          4.0153  -15.2081  -42.2974 C.3       6 UNK        -0.1800 
     44 N           3.2430  -13.6035  -44.0107 N.am      6 UNK        -0.5000 
     45 C           4.2428  -13.3969  -44.8811 C.2       5 UNK         0.5000 
     46 O           5.0209  -14.2672  -45.2724 O.2       5 UNK        -0.5000 
     47 CA          4.4114  -11.9498  -45.3702 C.3       5 UNK         0.1400 
     48 CB          3.3298  -11.5803  -46.3990 C.3       5 UNK        -0.1800 
     49 N           4.3810  -11.0114  -44.2461 N.am      5 UNK        -0.5000 
     50 C           5.4150  -10.8174  -43.4128 C.2       4 UNK         0.5000 
     51 O           6.5129  -11.3573  -43.5563 O.2       4 UNK        -0.5000 
     52 CA          5.2110   -9.8567  -42.2249 C.3       4 UNK         0.1400 
     53 CB          5.7727   -8.4658  -42.5588 C.3       4 UNK        -0.1800 
     54 N           3.8148   -9.7146  -41.8136 N.am      4 UNK        -0.5000 
     55 C           3.1091  -10.6409  -41.1516 C.2       3 UNK         0.5000 
     56 O           3.5674  -11.7310  -40.8064 O.2       3 UNK        -0.5000 
     57 CA          1.6380  -10.3037  -40.8193 C.3       3 UNK         0.1400 
     58 CB          1.2135   -8.8701  -41.2127 C.3       3 UNK        -0.1800 
     59 N           0.6938  -11.2709  -41.3896 N.am      3 UNK        -0.5000 
     60 C           0.6024  -11.6473  -42.6731 C.2       2 UNK         0.5000 
     61 O           1.3930  -11.2786  -43.5452 O.2       2 UNK        -0.5000 
     62 CA         -0.5528  -12.6010  -43.0479 C.3       2 UNK         0.1400 
     63 CB         -1.7222  -12.5849  -42.0437 C.3       2 UNK        -0.1800 
     64 N          -1.0751  -12.2603  -44.3676 N.am      2 UNK        -0.5000 
     65 C          -0.6274  -12.7300  -45.5370 C.2       1 UNK         0.5000 
     66 O           0.2568  -13.5851  -45.6189 O.2       1 UNK        -0.5000 
     67 C          -4.4156  -23.3952  -45.9524 C.2       11 UNK         0.5000 
     68 O          -5.2370  -24.0999  -46.5404 O.2       11 UNK        -0.5000 
     69 N          -3.9499  -23.6617  -44.7232 N.am      12 UNK        -0.5000 
     70 CA         -4.2878  -24.8415  -43.9277 C.3       12 UNK         0.1400 
     71 CB         -3.7086  -24.6705  -42.5155 C.3       12 UNK        -0.1800 
     72 C          -3.8019  -26.1643  -44.5529 C.2       12 UNK         0.5000 
     73 O          -4.4250  -27.2019  -44.3250 O.2       12 UNK        -0.5000 
     74 N          -2.7319  -26.1131  -45.3597 N.am      13 UNK        -0.5000 
     75 CA         -2.1800  -27.2493  -46.0972 C.3       13 UNK         0.1400 
     76 CB         -0.6648  -27.0431  -46.2781 C.3       13 UNK        -0.1800 
     77 C          -2.9195  -27.4431  -47.4360 C.2       13 UNK         0.5000 
     78 O          -2.2919  -27.4274  -48.4956 O.2       13 UNK        -0.5000 
     79 N          -4.2502  -27.5930  -47.3614 N.am      14 UNK        -0.5000 
     80 CA         -5.1868  -27.8081  -48.4706 C.3       14 UNK         0.1400 
     81 CB         -5.0029  -29.2253  -49.0528 C.3       14 UNK        -0.1800 
     82 C          -5.0982  -26.7068  -49.5471 C.2       14 UNK         0.5000 
     83 O          -4.8712  -27.0062  -50.7206 O.2       14 UNK        -0.5000 
     84 N          -5.2301  -25.4436  -49.1144 N.am      15 UNK        -0.5000 
     85 CA         -5.1073  -24.2267  -49.9272 C.3       15 UNK         0.1400 
     86 CB         -6.2449  -24.1383  -50.9650 C.3       15 UNK        -0.1800 
     87 C          -3.7035  -24.0748  -50.5509 C.2       15 UNK         0.5000 
     88 O          -3.5855  -23.6593  -51.7059 O.2       15 UNK        -0.5000 
     89 N          -2.6795  -24.4448  -49.7653 N.am      16 UNK        -0.5000 
     90 CA         -1.2592  -24.5338  -50.1158 C.3       16 UNK         0.1400 
     91 CB         -0.6570  -23.1344  -50.3355 C.3       16 UNK        -0.1800 
     92 C          -1.0160  -25.5029  -51.2880 C.2       16 UNK         0.5000 
     93 O          -0.4548  -25.1156  -52.3128 O.2       16 UNK        -0.5000 
     94 N          -1.4808  -26.7472  -51.1078 N.am      17 UNK        -0.5000 
     95 CA         -1.4696  -27.8502  -52.0728 C.3       17 UNK         0.1400 
     96 CB         -0.0277  -28.3319  -52.3365 C.3       17 UNK        -0.1800 
     97 C          -2.2461  -27.5059  -53.3610 C.2       17 UNK         0.5000 
     98 O          -1.7408  -27.7039  -54.4678 O.2       17 UNK        -0.5000 
     99 N          -3.4668  -26.9846  -53.1734 N.am      18 UNK        -0.5000 
    100 CA        -4.4214  -26.5531  -54.1966 C.3       18 UNK         0.1400 
    101 CB        -4.9330  -27.7607  -55.0097 C.3       18 UNK        -0.1800 
    102 C         -3.9096  -25.3970  -55.0830 C.2       18 UNK         0.5000 
    103 O         -4.2633  -25.3269  -56.2618 O.2       18 UNK        -0.5000 
    104 N         -3.1087  -24.4912  -54.5028 N.am      19 UNK        -0.5000 
    105 CA        -2.6712  -23.2526  -55.1503 C.3       19 UNK         0.1400 
    106 CB        -1.4804  -22.6532  -54.3895 C.3       19 UNK        -0.1800 
    107 C         -3.8124  -22.2253  -55.2493 C.2       19 UNK         0.5000 
    108 O         -3.8749  -21.4949  -56.2384 O.2       19 UNK        -0.5000 
    109 N         -4.6969  -22.2161  -54.2368 N.am      20 UNK        -0.5000 
    110 CA        -5.8945  -21.3749  -54.1183 C.3       20 UNK         0.1400 
    111 CB        -6.9403  -21.7633  -55.1844 C.3       20 UNK        -0.1800 
    112 C         -5.5486  -19.8717  -54.1138 C.2       20 UNK         0.5000 
    113 O         -6.0640  -19.1109  -54.9347 O.2       20 UNK        -0.5000 
    114 N         -4.6659  -19.5067  -53.1729 N.am      21 UNK        -0.5000 
    115 CA        -3.9961  -18.2169  -52.9887 C.3       21 UNK         0.1400 
    116 CB        -4.9645  -17.0179  -52.9696 C.3       21 UNK        -0.1800 
    117 C         -2.8490  -18.0440  -53.9971 C.2       21 UNK         0.5000 
    118 O         -3.0846  -17.9308  -55.2008 O.2       21 UNK        -0.5000 
    119 N         -1.6187  -18.0509  -53.4736 N.am      22 UNK        -0.5000 
    120 CA        -0.3656  -18.0313  -54.2462 C.3       22 UNK         0.1400 
    121 C         -0.0364  -16.6801  -54.9485 C.2       22 UNK         0.5000 
    122 N         -0.7286  -15.5866  -54.6537 N.am      22 UNK        -0.7600 
    123 O          0.8659  -16.6247  -55.7797 O.2       22 UNK        -0.5000 
    124 C124        0.8431  -18.5051  -53.3960 C.3       23 UNK        -0.0398 
    125 S125        0.5562  -20.0887  -52.5276 S.3       23 UNK        -0.2404 
    126 C126        0.6355  -19.5820  -50.7792 C.3       23 UNK        -0.0205 
    127 H127       -5.1724   -9.9042  -46.4887 H         1 UNK         0.0600 
    128 H128       -5.1928  -10.8461  -44.9937 H         1 UNK         0.0600 
    129 H129       -5.2660  -11.6664  -46.5559 H         1 UNK         0.0600 
    130 H130       -3.3249  -12.6204  -47.0771 H         1 UNK         0.3000 
    131 H131       -0.8112  -11.1962  -46.9836 H         1 UNK         0.0600 
    132 H132        0.0565  -13.1626  -48.2266 H         1 UNK         0.0800 
    133 H133       -1.3513  -12.4627  -48.9687 H         1 UNK         0.0800 
    134 H134       -0.7312  -14.8004  -50.1949 H         1 UNK         0.0800 
    135 H135       -2.4708  -14.7568  -50.3988 H         1 UNK         0.0800 
    136 H136        0.2944  -16.8759  -50.6272 H         1 UNK         0.1150 
    137 H137       -1.7483  -20.5726  -49.9041 H         1 UNK         0.1150 
    138 H138       -3.7101  -16.8532  -49.1044 H         1 UNK         0.1150 
    139 H139       -4.9870  -19.1425  -49.3729 H         1 UNK         0.0800 
    140 H140       -4.0250  -20.5958  -49.2131 H         1 UNK         0.0800 
    141 H141       -5.7308  -21.1834  -47.1441 H         1 UNK         0.0800 
    142 H142       -5.1499  -20.8252  -45.5379 H         1 UNK         0.0800 
    143 H143       -3.7315  -22.4187  -47.7145 H         1 UNK         0.0600 
    144 H144       -2.3490  -20.8935  -45.8202 H         1 UNK         0.3000 
    145 H145        0.4789  -22.8917  -45.3738 H         1 UNK         0.0600 
    146 H146        0.2932  -20.8908  -47.6838 H         1 UNK         0.0600 
    147 H147        1.7621  -21.2268  -46.7675 H         1 UNK         0.0600 
    148 H148        1.0177  -22.4930  -47.7303 H         1 UNK         0.0600 
    149 H149        0.0419  -20.0336  -45.3112 H         1 UNK         0.3000 
    150 H150       -1.3558  -19.9025  -42.0730 H         1 UNK         0.0600 
    151 H151        0.9277  -20.5852  -41.3443 H         1 UNK         0.0600 
    152 H152        0.7593  -18.8367  -41.3047 H         1 UNK         0.0600 
    153 H153        1.6476  -19.6077  -42.6183 H         1 UNK         0.0600 
    154 H154        0.1197  -18.0228  -43.7053 H         1 UNK         0.3000 
    155 H155       -2.3776  -17.2288  -45.9738 H         1 UNK         0.0600 
    156 H156       -3.4893  -16.0593  -44.0425 H         1 UNK         0.0600 
    157 H157       -2.5818  -14.9491  -45.0506 H         1 UNK         0.0600 
    158 H158       -1.9199  -15.4748  -43.5018 H         1 UNK         0.0600 
    159 H159       -0.1877  -15.6334  -45.3037 H         1 UNK         0.3000 
    160 H160        2.5063  -17.5570  -46.4572 H         1 UNK         0.0600 
    161 H161        2.8264  -15.6736  -48.0738 H         1 UNK         0.0600 
    162 H162        1.1040  -15.3064  -47.9869 H         1 UNK         0.0600 
    163 H163        1.6504  -16.8433  -48.6492 H         1 UNK         0.0600 
    164 H164        2.0419  -14.7771  -45.7296 H         1 UNK         0.3000 
    165 H165        2.0048  -14.6359  -42.7346 H         1 UNK         0.0600 
    166 H166        4.9398  -15.4972  -42.7979 H         1 UNK         0.0600 
    167 H167        4.2384  -14.3659  -41.6422 H         1 UNK         0.0600 
    168 H168        3.7138  -16.0404  -41.6604 H         1 UNK         0.0600 
    169 H169        2.6517  -12.8059  -43.7994 H         1 UNK         0.3000 
    170 H170        5.3808  -11.8731  -45.8678 H         1 UNK         0.0600 
    171 H171        2.3270  -11.6249  -45.9752 H         1 UNK         0.0600 
    172 H172        3.4836  -10.5730  -46.7859 H         1 UNK         0.0600 
    173 H173        3.3533  -12.2628  -47.2494 H         1 UNK         0.0600 
    174 H174        3.4884  -10.5853  -44.0304 H         1 UNK         0.3000 
    175 H175        5.7768  -10.2568  -41.3807 H         1 UNK         0.0600 
    176 H176        5.2366   -8.0039  -43.3889 H         1 UNK         0.0600 
    177 H177        5.7061   -7.7965  -41.7008 H         1 UNK         0.0600 
    178 H178        6.8248   -8.5262  -42.8407 H         1 UNK         0.0600 
    179 H179        3.3543   -8.8536  -42.0701 H         1 UNK         0.3000 
    180 H180        1.5494  -10.3865  -39.7351 H         1 UNK         0.0600 
    181 H181        1.2570   -8.7092  -42.2906 H         1 UNK         0.0600 
    182 H182        1.8461   -8.1220  -40.7330 H         1 UNK         0.0600 
    183 H183        0.1905   -8.6689  -40.8944 H         1 UNK         0.0600 
    184 H184        0.0280  -11.6581  -40.7362 H         1 UNK         0.3000 
    185 H185       -0.1458  -13.6129  -43.0711 H         1 UNK         0.0600 
    186 H186       -2.5393  -13.2201  -42.3865 H         1 UNK         0.0600 
    187 H187       -1.4177  -12.9643  -41.0677 H         1 UNK         0.0600 
    188 H188       -2.1233  -11.5798  -41.9060 H         1 UNK         0.0600 
    189 H189       -1.7450  -11.5010  -44.4069 H         1 UNK         0.3000 
    190 H190       -3.2612  -23.0362  -44.3287 H         1 UNK         0.3000 
    191 H191       -5.3757  -24.8945  -43.8500 H         1 UNK         0.0600 
    192 H192       -2.6214  -24.5809  -42.5354 H         1 UNK         0.0600 
    193 H193       -4.1090  -23.7805  -42.0297 H         1 UNK         0.0600 
    194 H194       -3.9572  -25.5244  -41.8839 H         1 UNK         0.0600 
    195 H195       -2.3155  -25.2123  -45.5661 H         1 UNK         0.3000 
    196 H196       -2.3187  -28.1627  -45.5151 H         1 UNK         0.0600 
    197 H197       -0.1674  -26.9101  -45.3174 H         1 UNK         0.0600 
    198 H198       -0.4427  -26.1713  -46.8934 H         1 UNK         0.0600 
    199 H199       -0.2096  -27.9080  -46.7621 H         1 UNK         0.0600 
    200 H200       -4.6618  -27.5636  -46.4356 H         1 UNK         0.3000 
    201 H201       -6.1916  -27.7496  -48.0499 H         1 UNK         0.0600 
    202 H202       -5.7493  -29.4320  -49.8208 H         1 UNK         0.0600 
    203 H203       -5.1139  -29.9860  -48.2802 H         1 UNK         0.0600 
    204 H204       -4.0206  -29.3527  -49.5093 H         1 UNK         0.0600 
    205 H205       -5.3759  -25.2793  -48.1221 H         1 UNK         0.3000 
    206 H206       -5.2329  -23.3859  -49.2455 H         1 UNK         0.0600 
    207 H207       -7.2188  -24.2708  -50.4941 H         1 UNK         0.0600 
    208 H208       -6.1460  -24.8904  -51.7474 H         1 UNK         0.0600 
    209 H209       -6.2516  -23.1623  -51.4476 H         1 UNK         0.0600 
    210 H210       -2.9026  -24.7985  -48.8461 H         1 UNK         0.3000 
    211 H211       -0.7551  -24.9703  -49.2522 H         1 UNK         0.0600 
    212 H212       -0.7587  -22.5318  -49.4353 H         1 UNK         0.0600 
    213 H213        0.4072  -23.1950  -50.5655 H         1 UNK         0.0600 
    214 H214       -1.1394  -22.6032  -51.1544 H         1 UNK         0.0600 
    215 H215       -1.9077  -26.9651  -50.2080 H         1 UNK         0.3000 
    216 H216       -2.0099  -28.6720  -51.6004 H         1 UNK         0.0600 
    217 H217       -0.0238  -29.2238  -52.9639 H         1 UNK         0.0600 
    218 H218        0.5684  -27.5730  -52.8440 H         1 UNK         0.0600 
    219 H219        0.4776  -28.5882  -51.4054 H         1 UNK         0.0600 
    220 H220       -3.8054  -26.8963  -52.2165 H         1 UNK         0.3000 
    221 H221       -5.2741  -26.1487  -53.6505 H         1 UNK         0.0600 
    222 H222       -4.1502  -28.1887  -55.6364 H         1 UNK         0.0600 
    223 H223       -5.3061  -28.5472  -54.3537 H         1 UNK         0.0600 
    224 H224       -5.7550  -27.4716  -55.6656 H         1 UNK         0.0600 
    225 H225       -2.8840  -24.5902  -53.5195 H         1 UNK         0.3000 
    226 H226       -2.3400  -23.4886  -56.1637 H         1 UNK         0.0600 
    227 H227       -0.6398  -23.3459  -54.3599 H         1 UNK         0.0600 
    228 H228       -1.1303  -21.7380  -54.8687 H         1 UNK         0.0600 
    229 H229       -1.7463  -22.4011  -53.3636 H         1 UNK         0.0600 
    230 H230       -4.5046  -22.8325  -53.4543 H         1 UNK         0.3000 
    231 H231       -6.3341  -21.5881  -53.1441 H         1 UNK         0.0600 
    232 H232       -7.8696  -21.2119  -55.0368 H         1 UNK         0.0600 
    233 H233       -7.1806  -22.8251  -55.1305 H         1 UNK         0.0600 
    234 H234       -6.5917  -21.5501  -56.1953 H         1 UNK         0.0600 
    235 H235       -4.3060  -20.2472  -52.5879 H         1 UNK         0.3000 
    236 H236       -3.5571  -18.2706  -51.9961 H         1 UNK         0.0600 
    237 H237       -5.7878  -17.1857  -52.2753 H         1 UNK         0.0600 
    238 H238       -4.4466  -16.1139  -52.6476 H         1 UNK         0.0600 
    239 H239       -5.3868  -16.8122  -53.9532 H         1 UNK         0.0600 
    240 H240       -1.5065  -18.1566  -52.4747 H         1 UNK         0.3000 
    241 H241       -0.4897  -18.7566  -55.0528 H         1 UNK         0.0600 
    242 H242       -1.4798  -15.6212  -53.9845 H         1 UNK         0.3800 
    243 H243       -0.5086  -14.7195  -55.1182 H         1 UNK         0.3800 
    244 H244        1.7164  -18.6424  -54.0361 H         1 UNK         0.0800 
    245 H245        1.1260  -17.7376  -52.6753 H         1 UNK         0.0800 
    246 H246        0.7408  -20.4757  -50.1631 H         1 UNK         0.0800 
    247 H247        1.5383  -18.9944  -50.6055 H         1 UNK         0.0800 
@<TRIPOS>BOND
     1    1    2 1    
     2    1  127 1    
     3    1  128 1    
     4    1  129 1    
     5    2    3 2    
     6    2    4 am   BACKBONE|DICT|INTERRES
     7    4    5 1    
     8    4  130 1    
     9    5    6 1    
    10    5   65 1    
    11    5  131 1    
    12    6    7 1    
    13    6  132 1    
    14    6  133 1    
    15    7    8 1    
    16    8    9 1    
    17    8  134 1    
    18    8  135 1    
    19    9   10 ar   
    20    9   14 ar   
    21   10   11 ar   
    22   10  136 1    
    23   11   12 ar   
    24   11  126 1    
    25   12   13 ar   
    26   12  137 1    
    27   13   14 ar   
    28   13   15 1    
    29   14  138 1    
    30   15   16 1    
    31   15  139 1    
    32   15  140 1    
    33   16   17 1    
    34   17   18 1    
    35   17  141 1    
    36   17  142 1    
    37   18   19 1    
    38   18   67 1    
    39   18  143 1    
    40   19   20 am   BACKBONE|DICT|INTERRES
    41   19  144 1    
    42   20   21 2    
    43   20   22 1    
    44   22   23 1    
    45   22   24 1    
    46   22  145 1    
    47   23  146 1    
    48   23  147 1    
    49   23  148 1    
    50   24   25 am   BACKBONE|DICT|INTERRES
    51   24  149 1    
    52   25   26 2    
    53   25   27 1    
    54   27   28 1    
    55   27   29 1    
    56   27  150 1    
    57   28  151 1    
    58   28  152 1    
    59   28  153 1    
    60   29   30 am   BACKBONE|DICT|INTERRES
    61   29  154 1    
    62   30   31 2    
    63   30   32 1    
    64   32   33 1    
    65   32   34 1    
    66   32  155 1    
    67   33  156 1    
    68   33  157 1    
    69   33  158 1    
    70   34   35 am   BACKBONE|DICT|INTERRES
    71   34  159 1    
    72   35   36 2    
    73   35   37 1    
    74   37   38 1    
    75   37   39 1    
    76   37  160 1    
    77   38  161 1    
    78   38  162 1    
    79   38  163 1    
    80   39   40 am   BACKBONE|DICT|INTERRES
    81   39  164 1    
    82   40   41 2    
    83   40   42 1    
    84   42   43 1    
    85   42   44 1    
    86   42  165 1    
    87   43  166 1    
    88   43  167 1    
    89   43  168 1    
    90   44   45 am   BACKBONE|DICT|INTERRES
    91   44  169 1    
    92   45   46 2    
    93   45   47 1    
    94   47   48 1    
    95   47   49 1    
    96   47  170 1    
    97   48  171 1    
    98   48  172 1    
    99   48  173 1    
   100   49   50 am   BACKBONE|DICT|INTERRES
   101   49  174 1    
   102   50   51 2    
   103   50   52 1    
   104   52   53 1    
   105   52   54 1    
   106   52  175 1    
   107   53  176 1    
   108   53  177 1    
   109   53  178 1    
   110   54   55 am   BACKBONE|DICT|INTERRES
   111   54  179 1    
   112   55   56 2    
   113   55   57 1    
   114   57   58 1    
   115   57   59 1    
   116   57  180 1    
   117   58  181 1    
   118   58  182 1    
   119   58  183 1    
   120   59   60 am   BACKBONE|DICT|INTERRES
   121   59  184 1    
   122   60   61 2    
   123   60   62 1    
   124   62   63 1    
   125   62   64 1    
   126   62  185 1    
   127   63  186 1    
   128   63  187 1    
   129   63  188 1    
   130   64   65 am   BACKBONE|DICT|INTERRES
   131   64  189 1    
   132   65   66 2    
   133   67   68 2    
   134   67   69 am   BACKBONE|DICT|INTERRES
   135   69   70 1    
   136   69  190 1    
   137   70   71 1    
   138   70   72 1    
   139   70  191 1    
   140   71  192 1    
   141   71  193 1    
   142   71  194 1    
   143   72   73 2    
   144   72   74 am   BACKBONE|DICT|INTERRES
   145   74   75 1    
   146   74  195 1    
   147   75   76 1    
   148   75   77 1    
   149   75  196 1    
   150   76  197 1    
   151   76  198 1    
   152   76  199 1    
   153   77   78 2    
   154   77   79 am   BACKBONE|DICT|INTERRES
   155   79   80 1    
   156   79  200 1    
   157   80   81 1    
   158   80   82 1    
   159   80  201 1    
   160   81  202 1    
   161   81  203 1    
   162   81  204 1    
   163   82   83 2    
   164   82   84 am   BACKBONE|DICT|INTERRES
   165   84   85 1    
   166   84  205 1    
   167   85   86 1    
   168   85   87 1    
   169   85  206 1    
   170   86  207 1    
   171   86  208 1    
   172   86  209 1    
   173   87   88 2    
   174   87   89 am   BACKBONE|DICT|INTERRES
   175   89   90 1    
   176   89  210 1    
   177   90   91 1    
   178   90   92 1    
   179   90  211 1    
   180   91  212 1    
   181   91  213 1    
   182   91  214 1    
   183   92   93 2    
   184   92   94 am   BACKBONE|DICT|INTERRES
   185   94   95 1    
   186   94  215 1    
   187   95   96 1    
   188   95   97 1    
   189   95  216 1    
   190   96  217 1    
   191   96  218 1    
   192   96  219 1    
   193   97   98 2    
   194   97   99 am   BACKBONE|DICT|INTERRES
   195   99  100 1    
   196   99  220 1    
   197  100  101 1    
   198  100  102 1    
   199  100  221 1    
   200  101  222 1    
   201  101  223 1    
   202  101  224 1    
   203  102  103 2    
   204  102  104 am   BACKBONE|DICT|INTERRES
   205  104  105 1    
   206  104  225 1    
   207  105  106 1    
   208  105  107 1    
   209  105  226 1    
   210  106  227 1    
   211  106  228 1    
   212  106  229 1    
   213  107  108 2    
   214  107  109 am   BACKBONE|DICT|INTERRES
   215  109  110 1    
   216  109  230 1    
   217  110  111 1    
   218  110  112 1    
   219  110  231 1    
   220  111  232 1    
   221  111  233 1    
   222  111  234 1    
   223  112  113 2    
   224  112  114 am   BACKBONE|DICT|INTERRES
   225  114  115 1    
   226  114  235 1    
   227  115  116 1    
   228  115  117 1    
   229  115  236 1    
   230  116  237 1    
   231  116  238 1    
   232  116  239 1    
   233  117  118 2    
   234  117  119 am   BACKBONE|DICT|INTERRES
   235  119  120 1    
   236  119  240 1    
   237  120  121 1    
   238  120  124 1    
   239  120  241 1    
   240  121  122 am   BACKBONE|DICT|INTERRES
   241  121  123 2    
   242  122  242 1    
   243  122  243 1    
   244  124  125 1    
   245  124  244 1    
   246  124  245 1    
   247  125  126 1    
   248  126  246 1    
   249  126  247 1    
@<TRIPOS>SUBSTRUCTURE
     1 UNK         1 GROUP             0       ****    0 ROOT    
