@<TRIPOS>MOLECULE
3R540
247   249    1
SMALL
USER_CHARGES


@<TRIPOS>ATOM
      1 CA          5.0083  -18.7948  -50.1112 C.3       0 UNK        -0.1800 
      2 C           4.2970  -17.9556  -49.0602 C.2       0 UNK         0.5000 
      3 O           4.1893  -18.3755  -47.9086 O.2       0 UNK        -0.5000 
      4 N           3.8292  -16.7592  -49.4402 N.am      1 UNK        -0.5000 
      5 CA          3.0565  -15.8266  -48.6052 C.3       1 UNK         0.1400 
      6 C6          2.1563  -14.9042  -49.4758 C.3       23 UNK        -0.0398 
      7 S7          0.4958  -14.6559  -48.7529 S.3       23 UNK        -0.2404 
      8 C8         -0.5808  -15.3734  -50.0396 C.3       23 UNK        -0.0205 
      9 C9         -0.8323  -16.8649  -49.8488 C.ar      23 UNK        -0.0193 
     10 C10        -2.1202  -17.3162  -49.5534 C.ar      23 UNK        -0.1150 
     11 C11        -2.3901  -18.6768  -49.4061 C.ar      23 UNK        -0.0193 
     12 C12        -1.3599  -19.6004  -49.5844 C.ar      23 UNK        -0.1150 
     13 C13        -0.0615  -19.1704  -49.8738 C.ar      23 UNK        -0.0193 
     14 C14         0.1952  -17.8011  -50.0039 C.ar      23 UNK        -0.1150 
     15 C15         1.0569  -20.1800  -50.0818 C.3       23 UNK        -0.0205 
     16 S16         1.5269  -21.0114  -48.5312 S.3       23 UNK        -0.2404 
     17 C17         0.5801  -22.5649  -48.6724 C.3       23 UNK        -0.0398 
     18 CA          0.1763  -23.1840  -47.3108 C.3       11 UNK         0.1400 
     19 N          -0.5528  -22.2579  -46.4319 N.am      11 UNK        -0.5000 
     20 C          -1.7971  -21.7879  -46.5833 C.2       10 UNK         0.5000 
     21 O          -2.5417  -22.1208  -47.5007 O.2       10 UNK        -0.5000 
     22 CA         -2.3164  -20.7991  -45.5211 C.3       10 UNK         0.1400 
     23 CB         -2.6084  -21.5144  -44.1890 C.3       10 UNK        -0.1800 
     24 N          -1.4807  -19.6127  -45.3114 N.am      10 UNK        -0.5000 
     25 C          -0.2145  -19.5303  -44.8766 C.2       9 UNK         0.5000 
     26 O           0.4847  -20.4978  -44.5705 O.2       9 UNK        -0.5000 
     27 CA          0.3501  -18.1093  -44.7214 C.3       9 UNK         0.1400 
     28 CB          0.5116  -17.4248  -46.0880 C.3       9 UNK        -0.1800 
     29 N          -0.4911  -17.2860  -43.8548 N.am      9 UNK        -0.5000 
     30 C          -0.6600  -17.4828  -42.5384 C.2       8 UNK         0.5000 
     31 O          -0.0698  -18.3481  -41.8911 O.2       8 UNK        -0.5000 
     32 CA         -1.6663  -16.5648  -41.8228 C.3       8 UNK         0.1400 
     33 CB         -1.0165  -15.2326  -41.4233 C.3       8 UNK        -0.1800 
     34 N          -2.8390  -16.3011  -42.6526 N.am      8 UNK        -0.5000 
     35 C          -3.8615  -17.1539  -42.8037 C.2       7 UNK         0.5000 
     36 O          -3.9528  -18.2280  -42.2088 O.2       7 UNK        -0.5000 
     37 CA         -4.9717  -16.7378  -43.7868 C.3       7 UNK         0.1400 
     38 CB         -6.1148  -16.0311  -43.0427 C.3       7 UNK        -0.1800 
     39 N          -4.4916  -15.8676  -44.8616 N.am      7 UNK        -0.5000 
     40 C          -3.6882  -16.2716  -45.8534 C.2       6 UNK         0.5000 
     41 O          -3.2505  -17.4168  -45.9619 O.2       6 UNK        -0.5000 
     42 CA         -3.2821  -15.1993  -46.8765 C.3       6 UNK         0.1400 
     43 CB         -4.4234  -14.9442  -47.8753 C.3       6 UNK        -0.1800 
     44 N          -2.8712  -13.9289  -46.2766 N.am      6 UNK        -0.5000 
     45 C          -1.8253  -13.7800  -45.4551 C.2       5 UNK         0.5000 
     46 O          -1.1652  -14.7166  -44.9983 O.2       5 UNK        -0.5000 
     47 CA         -1.4469  -12.3453  -45.0785 C.3       5 UNK         0.1400 
     48 CB         -1.9681  -11.9747  -43.6800 C.3       5 UNK        -0.1800 
     49 N           0.0059  -12.2562  -45.1229 N.am      5 UNK        -0.5000 
     50 C           0.7195  -11.1474  -45.3423 C.2       4 UNK         0.5000 
     51 O           0.2121  -10.0312  -45.4670 O.2       4 UNK        -0.5000 
     52 CA          2.2488  -11.3149  -45.4852 C.3       4 UNK         0.1400 
     53 CB          3.0356  -10.0908  -44.9716 C.3       4 UNK        -0.1800 
     54 N           2.7767  -12.5606  -44.9143 N.am      4 UNK        -0.5000 
     55 C           2.8085  -12.9233  -43.6210 C.2       3 UNK         0.5000 
     56 O           2.3675  -12.2296  -42.7045 O.2       3 UNK        -0.5000 
     57 CA          3.4169  -14.3022  -43.2842 C.3       3 UNK         0.1400 
     58 CB          2.3147  -15.2790  -42.8553 C.3       3 UNK        -0.1800 
     59 N           4.1581  -14.9015  -44.3938 N.am      3 UNK        -0.5000 
     60 C           5.3740  -14.5161  -44.8019 C.2       2 UNK         0.5000 
     61 O           6.0440  -13.6529  -44.2342 O.2       2 UNK        -0.5000 
     62 CA          5.9247  -15.1918  -46.0730 C.3       2 UNK         0.1400 
     63 CB          6.9063  -16.3142  -45.7038 C.3       2 UNK        -0.1800 
     64 N           4.8974  -15.7394  -46.9659 N.am      2 UNK        -0.5000 
     65 C           3.9420  -15.0452  -47.5993 C.2       1 UNK         0.5000 
     66 O           3.7604  -13.8412  -47.4112 O.2       1 UNK        -0.5000 
     67 C          -0.5346  -24.5479  -47.4939 C.2       11 UNK         0.5000 
     68 O          -0.3750  -25.1959  -48.5324 O.2       11 UNK        -0.5000 
     69 N          -1.3003  -24.9722  -46.4782 N.am      12 UNK        -0.5000 
     70 CA         -2.0881  -26.2060  -46.4840 C.3       12 UNK         0.1400 
     71 CB         -3.0366  -26.2073  -45.2765 C.3       12 UNK        -0.1800 
     72 C          -1.2166  -27.4739  -46.5000 C.2       12 UNK         0.5000 
     73 O          -1.5660  -28.4409  -47.1760 O.2       12 UNK        -0.5000 
     74 N          -0.0736  -27.4273  -45.8003 N.am      13 UNK        -0.5000 
     75 CA          0.9219  -28.5028  -45.7551 C.3       13 UNK         0.1400 
     76 CB          1.9210  -28.2145  -44.6243 C.3       13 UNK        -0.1800 
     77 C           1.6623  -28.6966  -47.0934 C.2       13 UNK         0.5000 
     78 O           2.0737  -29.8143  -47.4054 O.2       13 UNK        -0.5000 
     79 N           1.7984  -27.6093  -47.8644 N.am      14 UNK        -0.5000 
     80 CA          2.3693  -27.6027  -49.2125 C.3       14 UNK         0.1400 
     81 CB          2.9856  -26.2186  -49.4744 C.3       14 UNK        -0.1800 
     82 C           1.3271  -27.9375  -50.2988 C.2       14 UNK         0.5000 
     83 O           1.7103  -28.1450  -51.4506 O.2       14 UNK        -0.5000 
     84 N           0.0387  -27.9576  -49.9208 N.am      15 UNK        -0.5000 
     85 CA         -1.1450  -28.1126  -50.7712 C.3       15 UNK         0.1400 
     86 CB         -1.1966  -29.5230  -51.3945 C.3       15 UNK        -0.1800 
     87 C          -1.2783  -26.9786  -51.8111 C.2       15 UNK         0.5000 
     88 O          -1.7075  -27.2213  -52.9404 O.2       15 UNK        -0.5000 
     89 N          -0.9069  -25.7571  -51.4044 N.am      16 UNK        -0.5000 
     90 CA         -0.8957  -24.5527  -52.2380 C.3       16 UNK         0.1400 
     91 CB          0.5495  -24.0392  -52.3616 C.3       16 UNK        -0.1800 
     92 C          -1.8581  -23.4838  -51.6888 C.2       16 UNK         0.5000 
     93 O          -1.6617  -22.2911  -51.9286 O.2       16 UNK        -0.5000 
     94 N          -2.9043  -23.9233  -50.9772 N.am      17 UNK        -0.5000 
     95 CA         -3.9419  -23.0990  -50.3510 C.3       17 UNK         0.1400 
     96 CB         -4.6168  -23.9254  -49.2410 C.3       17 UNK        -0.1800 
     97 C          -4.9577  -22.5099  -51.3566 C.2       17 UNK         0.5000 
     98 O          -6.1666  -22.5685  -51.1256 O.2       17 UNK        -0.5000 
     99 N          -4.4465  -21.9557  -52.4593 N.am      18 UNK        -0.5000 
    100 CA        -5.2040  -21.3128  -53.5313 C.3       18 UNK         0.1400 
    101 CB        -5.7428  -22.3830  -54.5008 C.3       18 UNK        -0.1800 
    102 C         -4.3616  -20.2402  -54.2502 C.2       18 UNK         0.5000 
    103 O         -4.6993  -19.8530  -55.3699 O.2       18 UNK        -0.5000 
    104 N         -3.2711  -19.7814  -53.6158 N.am      19 UNK        -0.5000 
    105 CA        -2.3751  -18.7503  -54.1495 C.3       19 UNK         0.1400 
    106 CB        -1.0523  -18.7985  -53.3750 C.3       19 UNK        -0.1800 
    107 C         -2.9806  -17.3324  -54.0933 C.2       19 UNK         0.5000 
    108 O         -2.5569  -16.4598  -54.8524 O.2       19 UNK        -0.5000 
    109 N         -3.9622  -17.1376  -53.2082 N.am      20 UNK        -0.5000 
    110 CA        -4.7779  -15.9378  -53.0671 C.3       20 UNK         0.1400 
    111 CB        -4.2318  -15.0892  -51.9017 C.3       20 UNK        -0.1800 
    112 C         -6.2400  -16.3820  -52.8715 C.2       20 UNK         0.5000 
    113 O         -6.6187  -17.4544  -53.3503 O.2       20 UNK        -0.5000 
    114 N         -7.0406  -15.5722  -52.1640 N.am      21 UNK        -0.5000 
    115 CA        -8.4049  -15.9223  -51.7558 C.3       21 UNK         0.1400 
    116 CB        -9.0959  -14.6855  -51.1608 C.3       21 UNK        -0.1800 
    117 C         -8.4259  -17.0973  -50.7578 C.2       21 UNK         0.5000 
    118 O         -9.2491  -18.0019  -50.8989 O.2       21 UNK        -0.5000 
    119 N         -7.4888  -17.0653  -49.7984 N.am      22 UNK        -0.5000 
    120 CA        -7.1748  -18.1418  -48.8397 C.3       22 UNK         0.1400 
    121 C         -8.3251  -18.5298  -47.8591 C.2       22 UNK         0.5000 
    122 N         -9.3259  -17.6834  -47.6508 N.am      22 UNK        -0.7600 
    123 O         -8.2960  -19.5931  -47.2457 O.2       22 UNK        -0.5000 
    124 C124       -6.5162  -19.3730  -49.5275 C.3       23 UNK        -0.0398 
    125 S125       -4.9666  -18.9367  -50.3910 S.3       23 UNK        -0.2404 
    126 C126       -3.7866  -19.1376  -49.0263 C.3       23 UNK        -0.0205 
    127 H127        4.9743  -18.3268  -51.0953 H         1 UNK         0.0600 
    128 H128        6.0533  -18.9350  -49.8348 H         1 UNK         0.0600 
    129 H129        4.5398  -19.7763  -50.1853 H         1 UNK         0.0600 
    130 H130        4.0079  -16.4481  -50.3845 H         1 UNK         0.3000 
    131 H131        2.3993  -16.4466  -47.9953 H         1 UNK         0.0600 
    132 H132        2.6123  -13.9295  -49.6570 H         1 UNK         0.0800 
    133 H133        2.0347  -15.3280  -50.4724 H         1 UNK         0.0800 
    134 H134       -0.1694  -15.1939  -51.0334 H         1 UNK         0.0800 
    135 H135       -1.5267  -14.8306  -50.0137 H         1 UNK         0.0800 
    136 H136       -2.9247  -16.6086  -49.4470 H         1 UNK         0.1150 
    137 H137       -1.5717  -20.6536  -49.4925 H         1 UNK         0.1150 
    138 H138        1.1922  -17.4690  -50.2464 H         1 UNK         0.1150 
    139 H139        0.7551  -20.9108  -50.8340 H         1 UNK         0.0800 
    140 H140        1.9408  -19.6847  -50.4850 H         1 UNK         0.0800 
    141 H141       -0.3028  -22.4143  -49.2918 H         1 UNK         0.0800 
    142 H142        1.2195  -23.2586  -49.2170 H         1 UNK         0.0800 
    143 H143        1.1004  -23.4151  -46.7794 H         1 UNK         0.0600 
    144 H144       -0.0140  -21.8569  -45.6667 H         1 UNK         0.3000 
    145 H145       -3.2665  -20.4148  -45.8961 H         1 UNK         0.0600 
    146 H146       -3.0753  -20.8351  -43.4753 H         1 UNK         0.0600 
    147 H147       -3.2925  -22.3508  -44.3376 H         1 UNK         0.0600 
    148 H148       -1.7029  -21.9102  -43.7286 H         1 UNK         0.0600 
    149 H149       -1.9520  -18.7391  -45.5361 H         1 UNK         0.3000 
    150 H150        1.3382  -18.1871  -44.2632 H         1 UNK         0.0600 
    151 H151        0.9983  -16.4551  -45.9860 H         1 UNK         0.0600 
    152 H152       -0.4478  -17.2614  -46.5807 H         1 UNK         0.0600 
    153 H153        1.1210  -18.0336  -46.7576 H         1 UNK         0.0600 
    154 H154       -0.9657  -16.5049  -44.2977 H         1 UNK         0.3000 
    155 H155       -1.9884  -17.0663  -40.9075 H         1 UNK         0.0600 
    156 H156       -1.7309  -14.5770  -40.9253 H         1 UNK         0.0600 
    157 H157       -0.6196  -14.7019  -42.2886 H         1 UNK         0.0600 
    158 H158       -0.1919  -15.3985  -40.7295 H         1 UNK         0.0600 
    159 H159       -2.8249  -15.4591  -43.2085 H         1 UNK         0.3000 
    160 H160       -5.3699  -17.6493  -44.2381 H         1 UNK         0.0600 
    161 H161       -5.7816  -15.0992  -42.5842 H         1 UNK         0.0600 
    162 H162       -6.5134  -16.6637  -42.2484 H         1 UNK         0.0600 
    163 H163       -6.9400  -15.7991  -43.7163 H         1 UNK         0.0600 
    164 H164       -4.7947  -14.9049  -44.8427 H         1 UNK         0.3000 
    165 H165       -2.4188  -15.5856  -47.4196 H         1 UNK         0.0600 
    166 H166       -5.2756  -14.4583  -47.3990 H         1 UNK         0.0600 
    167 H167       -4.0914  -14.3086  -48.6964 H         1 UNK         0.0600 
    168 H168       -4.7843  -15.8764  -48.3101 H         1 UNK         0.0600 
    169 H169       -3.3653  -13.1063  -46.5908 H         1 UNK         0.3000 
    170 H170       -1.8730  -11.6630  -45.8172 H         1 UNK         0.0600 
    171 H171       -3.0508  -12.0916  -43.6208 H         1 UNK         0.0600 
    172 H172       -1.5247  -12.6000  -42.9055 H         1 UNK         0.0600 
    173 H173       -1.7399  -10.9367  -43.4379 H         1 UNK         0.0600 
    174 H174        0.4809  -13.1471  -45.0596 H         1 UNK         0.3000 
    175 H175        2.4333  -11.3882  -46.5579 H         1 UNK         0.0600 
    176 H176        4.1095  -10.2338  -45.0922 H         1 UNK         0.0600 
    177 H177        2.7660   -9.1912  -45.5260 H         1 UNK         0.0600 
    178 H178        2.8385   -9.8938  -43.9176 H         1 UNK         0.0600 
    179 H179        3.1701  -13.1977  -45.5999 H         1 UNK         0.3000 
    180 H180        4.1007  -14.1663  -42.4437 H         1 UNK         0.0600 
    181 H181        1.5527  -15.3839  -43.6279 H         1 UNK         0.0600 
    182 H182        2.7160  -16.2689  -42.6375 H         1 UNK         0.0600 
    183 H183        1.8235  -14.9244  -41.9498 H         1 UNK         0.0600 
    184 H184        3.6898  -15.6258  -44.9172 H         1 UNK         0.3000 
    185 H185        6.4713  -14.4291  -46.6314 H         1 UNK         0.0600 
    186 H186        7.3758  -16.7362  -46.5927 H         1 UNK         0.0600 
    187 H187        7.7054  -15.9414  -45.0616 H         1 UNK         0.0600 
    188 H188        6.4068  -17.1246  -45.1712 H         1 UNK         0.0600 
    189 H189        4.9378  -16.7371  -47.1520 H         1 UNK         0.3000 
    190 H190       -1.3856  -24.3794  -45.6659 H         1 UNK         0.3000 
    191 H191       -2.6943  -26.2130  -47.3924 H         1 UNK         0.0600 
    192 H192       -3.6540  -27.1066  -45.2660 H         1 UNK         0.0600 
    193 H193       -2.4902  -26.1723  -44.3332 H         1 UNK         0.0600 
    194 H194       -3.7115  -25.3515  -45.3060 H         1 UNK         0.0600 
    195 H195        0.1331  -26.5925  -45.2718 H         1 UNK         0.3000 
    196 H196        0.4048  -29.4368  -45.5252 H         1 UNK         0.0600 
    197 H197        2.6630  -29.0103  -44.5467 H         1 UNK         0.0600 
    198 H198        1.4169  -28.1474  -43.6600 H         1 UNK         0.0600 
    199 H199        2.4583  -27.2797  -44.7892 H         1 UNK         0.0600 
    200 H200        1.4129  -26.7360  -47.5369 H         1 UNK         0.3000 
    201 H201        3.1646  -28.3484  -49.2745 H         1 UNK         0.0600 
    202 H202        3.7407  -25.9736  -48.7274 H         1 UNK         0.0600 
    203 H203        2.2301  -25.4333  -49.4604 H         1 UNK         0.0600 
    204 H204        3.4721  -26.1852  -50.4501 H         1 UNK         0.0600 
    205 H205       -0.1591  -27.7752  -48.9466 H         1 UNK         0.3000 
    206 H206       -2.0063  -28.0161  -50.1086 H         1 UNK         0.0600 
    207 H207       -1.1040  -30.2941  -50.6297 H         1 UNK         0.0600 
    208 H208       -2.1445  -29.6888  -51.9076 H         1 UNK         0.0600 
    209 H209       -0.4003  -29.6753  -52.1234 H         1 UNK         0.0600 
    210 H210       -0.6102  -25.6350  -50.4391 H         1 UNK         0.3000 
    211 H211       -1.2493  -24.7819  -53.2448 H         1 UNK         0.0600 
    212 H212        0.9616  -23.7553  -51.3958 H         1 UNK         0.0600 
    213 H213        0.6054  -23.1666  -53.0135 H         1 UNK         0.0600 
    214 H214        1.2001  -24.8031  -52.7879 H         1 UNK         0.0600 
    215 H215       -2.9996  -24.9205  -50.8586 H         1 UNK         0.3000 
    216 H216       -3.4519  -22.2450  -49.8839 H         1 UNK         0.0600 
    217 H217       -5.3314  -23.3196  -48.6823 H         1 UNK         0.0600 
    218 H218       -3.8831  -24.2945  -48.5243 H         1 UNK         0.0600 
    219 H219       -5.1533  -24.7837  -49.6466 H         1 UNK         0.0600 
    220 H220       -3.4354  -21.9684  -52.5601 H         1 UNK         0.3000 
    221 H221       -6.0518  -20.7829  -53.0915 H         1 UNK         0.0600 
    222 H222       -4.9308  -22.9302  -54.9807 H         1 UNK         0.0600 
    223 H223       -6.3739  -23.1057  -53.9835 H         1 UNK         0.0600 
    224 H224       -6.3503  -21.9343  -55.2876 H         1 UNK         0.0600 
    225 H225       -3.0558  -20.1248  -52.6907 H         1 UNK         0.3000 
    226 H226       -2.1656  -18.9814  -55.1959 H         1 UNK         0.0600 
    227 H227       -0.3282  -18.0949  -53.7873 H         1 UNK         0.0600 
    228 H228       -1.2073  -18.5348  -52.3309 H         1 UNK         0.0600 
    229 H229       -0.6034  -19.7916  -53.4090 H         1 UNK         0.0600 
    230 H230       -4.2793  -17.9314  -52.6673 H         1 UNK         0.3000 
    231 H231       -4.7408  -15.3505  -53.9866 H         1 UNK         0.0600 
    232 H232       -4.7207  -14.1161  -51.8519 H         1 UNK         0.0600 
    233 H233       -3.1642  -14.9027  -52.0194 H         1 UNK         0.0600 
    234 H234       -4.3786  -15.5879  -50.9440 H         1 UNK         0.0600 
    235 H235       -6.6722  -14.6975  -51.8205 H         1 UNK         0.3000 
    236 H236       -8.9598  -16.2280  -52.6454 H         1 UNK         0.0600 
    237 H237       -8.5713  -14.3108  -50.2811 H         1 UNK         0.0600 
    238 H238       -9.1494  -13.8763  -51.8893 H         1 UNK         0.0600 
    239 H239      -10.1183  -14.9178  -50.8597 H         1 UNK         0.0600 
    240 H240       -6.8710  -16.2690  -49.7743 H         1 UNK         0.3000 
    241 H241       -6.4221  -17.7153  -48.1768 H         1 UNK         0.0600 
    242 H242      -10.0614  -17.9332  -47.0085 H         1 UNK         0.3800 
    243 H243       -9.3664  -16.8058  -48.1435 H         1 UNK         0.3800 
    244 H244       -7.2012  -19.8178  -50.2507 H         1 UNK         0.0800 
    245 H245       -6.2946  -20.1601  -48.8048 H         1 UNK         0.0800 
    246 H246       -4.1260  -18.5630  -48.1652 H         1 UNK         0.0800 
    247 H247       -3.7787  -20.1805  -48.7124 H         1 UNK         0.0800 
@<TRIPOS>BOND
     1    1    2 1    
     2    1  127 1    
     3    1  128 1    
     4    1  129 1    
     5    2    3 2    
     6    2    4 am   BACKBONE|DICT|INTERRES
     7    4    5 1    
     8    4  130 1    
     9    5    6 1    
    10    5   65 1    
    11    5  131 1    
    12    6    7 1    
    13    6  132 1    
    14    6  133 1    
    15    7    8 1    
    16    8    9 1    
    17    8  134 1    
    18    8  135 1    
    19    9   10 ar   
    20    9   14 ar   
    21   10   11 ar   
    22   10  136 1    
    23   11   12 ar   
    24   11  126 1    
    25   12   13 ar   
    26   12  137 1    
    27   13   14 ar   
    28   13   15 1    
    29   14  138 1    
    30   15   16 1    
    31   15  139 1    
    32   15  140 1    
    33   16   17 1    
    34   17   18 1    
    35   17  141 1    
    36   17  142 1    
    37   18   19 1    
    38   18   67 1    
    39   18  143 1    
    40   19   20 am   BACKBONE|DICT|INTERRES
    41   19  144 1    
    42   20   21 2    
    43   20   22 1    
    44   22   23 1    
    45   22   24 1    
    46   22  145 1    
    47   23  146 1    
    48   23  147 1    
    49   23  148 1    
    50   24   25 am   BACKBONE|DICT|INTERRES
    51   24  149 1    
    52   25   26 2    
    53   25   27 1    
    54   27   28 1    
    55   27   29 1    
    56   27  150 1    
    57   28  151 1    
    58   28  152 1    
    59   28  153 1    
    60   29   30 am   BACKBONE|DICT|INTERRES
    61   29  154 1    
    62   30   31 2    
    63   30   32 1    
    64   32   33 1    
    65   32   34 1    
    66   32  155 1    
    67   33  156 1    
    68   33  157 1    
    69   33  158 1    
    70   34   35 am   BACKBONE|DICT|INTERRES
    71   34  159 1    
    72   35   36 2    
    73   35   37 1    
    74   37   38 1    
    75   37   39 1    
    76   37  160 1    
    77   38  161 1    
    78   38  162 1    
    79   38  163 1    
    80   39   40 am   BACKBONE|DICT|INTERRES
    81   39  164 1    
    82   40   41 2    
    83   40   42 1    
    84   42   43 1    
    85   42   44 1    
    86   42  165 1    
    87   43  166 1    
    88   43  167 1    
    89   43  168 1    
    90   44   45 am   BACKBONE|DICT|INTERRES
    91   44  169 1    
    92   45   46 2    
    93   45   47 1    
    94   47   48 1    
    95   47   49 1    
    96   47  170 1    
    97   48  171 1    
    98   48  172 1    
    99   48  173 1    
   100   49   50 am   BACKBONE|DICT|INTERRES
   101   49  174 1    
   102   50   51 2    
   103   50   52 1    
   104   52   53 1    
   105   52   54 1    
   106   52  175 1    
   107   53  176 1    
   108   53  177 1    
   109   53  178 1    
   110   54   55 am   BACKBONE|DICT|INTERRES
   111   54  179 1    
   112   55   56 2    
   113   55   57 1    
   114   57   58 1    
   115   57   59 1    
   116   57  180 1    
   117   58  181 1    
   118   58  182 1    
   119   58  183 1    
   120   59   60 am   BACKBONE|DICT|INTERRES
   121   59  184 1    
   122   60   61 2    
   123   60   62 1    
   124   62   63 1    
   125   62   64 1    
   126   62  185 1    
   127   63  186 1    
   128   63  187 1    
   129   63  188 1    
   130   64   65 am   BACKBONE|DICT|INTERRES
   131   64  189 1    
   132   65   66 2    
   133   67   68 2    
   134   67   69 am   BACKBONE|DICT|INTERRES
   135   69   70 1    
   136   69  190 1    
   137   70   71 1    
   138   70   72 1    
   139   70  191 1    
   140   71  192 1    
   141   71  193 1    
   142   71  194 1    
   143   72   73 2    
   144   72   74 am   BACKBONE|DICT|INTERRES
   145   74   75 1    
   146   74  195 1    
   147   75   76 1    
   148   75   77 1    
   149   75  196 1    
   150   76  197 1    
   151   76  198 1    
   152   76  199 1    
   153   77   78 2    
   154   77   79 am   BACKBONE|DICT|INTERRES
   155   79   80 1    
   156   79  200 1    
   157   80   81 1    
   158   80   82 1    
   159   80  201 1    
   160   81  202 1    
   161   81  203 1    
   162   81  204 1    
   163   82   83 2    
   164   82   84 am   BACKBONE|DICT|INTERRES
   165   84   85 1    
   166   84  205 1    
   167   85   86 1    
   168   85   87 1    
   169   85  206 1    
   170   86  207 1    
   171   86  208 1    
   172   86  209 1    
   173   87   88 2    
   174   87   89 am   BACKBONE|DICT|INTERRES
   175   89   90 1    
   176   89  210 1    
   177   90   91 1    
   178   90   92 1    
   179   90  211 1    
   180   91  212 1    
   181   91  213 1    
   182   91  214 1    
   183   92   93 2    
   184   92   94 am   BACKBONE|DICT|INTERRES
   185   94   95 1    
   186   94  215 1    
   187   95   96 1    
   188   95   97 1    
   189   95  216 1    
   190   96  217 1    
   191   96  218 1    
   192   96  219 1    
   193   97   98 2    
   194   97   99 am   BACKBONE|DICT|INTERRES
   195   99  100 1    
   196   99  220 1    
   197  100  101 1    
   198  100  102 1    
   199  100  221 1    
   200  101  222 1    
   201  101  223 1    
   202  101  224 1    
   203  102  103 2    
   204  102  104 am   BACKBONE|DICT|INTERRES
   205  104  105 1    
   206  104  225 1    
   207  105  106 1    
   208  105  107 1    
   209  105  226 1    
   210  106  227 1    
   211  106  228 1    
   212  106  229 1    
   213  107  108 2    
   214  107  109 am   BACKBONE|DICT|INTERRES
   215  109  110 1    
   216  109  230 1    
   217  110  111 1    
   218  110  112 1    
   219  110  231 1    
   220  111  232 1    
   221  111  233 1    
   222  111  234 1    
   223  112  113 2    
   224  112  114 am   BACKBONE|DICT|INTERRES
   225  114  115 1    
   226  114  235 1    
   227  115  116 1    
   228  115  117 1    
   229  115  236 1    
   230  116  237 1    
   231  116  238 1    
   232  116  239 1    
   233  117  118 2    
   234  117  119 am   BACKBONE|DICT|INTERRES
   235  119  120 1    
   236  119  240 1    
   237  120  121 1    
   238  120  124 1    
   239  120  241 1    
   240  121  122 am   BACKBONE|DICT|INTERRES
   241  121  123 2    
   242  122  242 1    
   243  122  243 1    
   244  124  125 1    
   245  124  244 1    
   246  124  245 1    
   247  125  126 1    
   248  126  246 1    
   249  126  247 1    
@<TRIPOS>SUBSTRUCTURE
     1 UNK         1 GROUP             0       ****    0 ROOT    
