@<TRIPOS>MOLECULE
3R540
247   249    1
SMALL
USER_CHARGES


@<TRIPOS>ATOM
      1 CA          0.3223  -10.4243  -49.5183 C.3       0 UNK        -0.1800 
      2 C           1.0571  -11.6919  -49.1070 C.2       0 UNK         0.5000 
      3 O           2.2715  -11.7842  -49.2848 O.2       0 UNK        -0.5000 
      4 N           0.3306  -12.6645  -48.5420 N.am      1 UNK        -0.5000 
      5 CA          0.8566  -13.9612  -48.0933 C.3       1 UNK         0.1400 
      6 C6         -0.2175  -15.0722  -48.1544 C.3       23 UNK        -0.0398 
      7 S7         -1.6891  -14.7845  -47.1027 S.3       23 UNK        -0.2404 
      8 C8         -3.0565  -14.7087  -48.3214 C.3       23 UNK        -0.0205 
      9 C9         -3.1697  -15.8947  -49.2849 C.ar      23 UNK        -0.0193 
     10 C10        -3.8579  -15.7218  -50.4906 C.ar      23 UNK        -0.1150 
     11 C11        -3.9403  -16.7549  -51.4305 C.ar      23 UNK        -0.0193 
     12 C12        -3.2967  -17.9672  -51.1615 C.ar      23 UNK        -0.1150 
     13 C13        -2.6189  -18.1684  -49.9573 C.ar      23 UNK        -0.0193 
     14 C14        -2.5914  -17.1394  -49.0118 C.ar      23 UNK        -0.1150 
     15 C15        -1.9338  -19.5070  -49.7100 C.3       23 UNK        -0.0205 
     16 S16        -0.3011  -19.3884  -48.9184 S.3       23 UNK        -0.2404 
     17 C17        -0.7662  -19.5187  -47.1631 C.3       23 UNK        -0.0398 
     18 CA         -0.3997  -20.8926  -46.5528 C.3       11 UNK         0.1400 
     19 N           0.0203  -20.7386  -45.1596 N.am      11 UNK        -0.5000 
     20 C           0.5849  -21.6978  -44.4178 C.2       10 UNK         0.5000 
     21 O           0.8513  -22.8223  -44.8385 O.2       10 UNK        -0.5000 
     22 CA          0.8467  -21.3498  -42.9439 C.3       10 UNK         0.1400 
     23 CB          2.1867  -20.6173  -42.7848 C.3       10 UNK        -0.1800 
     24 N          -0.2408  -20.5485  -42.3755 N.am      10 UNK        -0.5000 
     25 C          -1.4670  -21.0312  -42.1264 C.2       9 UNK         0.5000 
     26 O          -1.7794  -22.2107  -42.2862 O.2       9 UNK        -0.5000 
     27 CA         -2.5385  -20.0194  -41.6844 C.3       9 UNK         0.1400 
     28 CB         -2.4683  -19.7702  -40.1708 C.3       9 UNK        -0.1800 
     29 N          -2.4388  -18.7516  -42.4120 N.am      9 UNK        -0.5000 
     30 C          -2.7472  -18.6184  -43.7116 C.2       8 UNK         0.5000 
     31 O          -3.1478  -19.5475  -44.4087 O.2       8 UNK        -0.5000 
     32 CA         -2.5464  -17.2404  -44.3689 C.3       8 UNK         0.1400 
     33 CB         -3.8506  -16.4311  -44.3258 C.3       8 UNK        -0.1800 
     34 N          -1.4680  -16.4478  -43.7822 N.am      8 UNK        -0.5000 
     35 C          -0.1825  -16.8158  -43.7151 C.2       7 UNK         0.5000 
     36 O           0.2358  -17.8999  -44.1306 O.2       7 UNK        -0.5000 
     37 CA          0.7924  -15.8368  -43.0235 C.3       7 UNK         0.1400 
     38 CB          0.1204  -14.5591  -42.4705 C.3       7 UNK        -0.1800 
     39 N           1.5642  -16.4915  -41.9654 N.am      7 UNK        -0.5000 
     40 C           1.0765  -17.1844  -40.9239 C.2       6 UNK         0.5000 
     41 O          -0.1269  -17.3515  -40.7209 O.2       6 UNK        -0.5000 
     42 CA          2.1089  -17.8197  -39.9758 C.3       6 UNK         0.1400 
     43 CB          1.5603  -19.0491  -39.2268 C.3       6 UNK        -0.1800 
     44 N           3.3128  -18.1878  -40.7199 N.am      6 UNK        -0.5000 
     45 C           4.5685  -17.9707  -40.3190 C.2       5 UNK         0.5000 
     46 O           4.8674  -17.5132  -39.2151 O.2       5 UNK        -0.5000 
     47 CA          5.6875  -18.3063  -41.3270 C.3       5 UNK         0.1400 
     48 CB          6.2159  -19.7266  -41.0721 C.3       5 UNK        -0.1800 
     49 N           5.3429  -18.1817  -42.7522 N.am      5 UNK        -0.5000 
     50 C           4.8337  -17.0998  -43.3591 C.2       4 UNK         0.5000 
     51 O           4.3886  -16.1196  -42.7578 O.2       4 UNK        -0.5000 
     52 CA          4.7912  -17.1388  -44.8997 C.3       4 UNK         0.1400 
     53 CB          3.5205  -17.8420  -45.3984 C.3       4 UNK        -0.1800 
     54 N           4.8484  -15.7914  -45.4693 N.am      4 UNK        -0.5000 
     55 C           5.9499  -15.0239  -45.4835 C.2       3 UNK         0.5000 
     56 O           7.0551  -15.4192  -45.1087 O.2       3 UNK        -0.5000 
     57 CA          5.8127  -13.5762  -46.0037 C.3       3 UNK         0.1400 
     58 CB          6.2691  -13.4865  -47.4680 C.3       3 UNK        -0.1800 
     59 N           4.4533  -13.0467  -45.9023 N.am      3 UNK        -0.5000 
     60 C           3.8199  -12.7601  -44.7570 C.2       2 UNK         0.5000 
     61 O           4.3700  -12.7755  -43.6559 O.2       2 UNK        -0.5000 
     62 CA          2.3188  -12.4061  -44.8440 C.3       2 UNK         0.1400 
     63 CB          2.0924  -10.9218  -44.5179 C.3       2 UNK        -0.1800 
     64 N           1.6729  -12.7040  -46.1277 N.am      2 UNK        -0.5000 
     65 C           1.5721  -13.9019  -46.7231 C.2       1 UNK         0.5000 
     66 O           2.0509  -14.9309  -46.2464 O.2       1 UNK        -0.5000 
     67 C          -1.5345  -21.9368  -46.7089 C.2       11 UNK         0.5000 
     68 O          -1.5159  -22.7363  -47.6476 O.2       11 UNK        -0.5000 
     69 N          -2.4796  -21.9448  -45.7576 N.am      12 UNK        -0.5000 
     70 CA         -3.5451  -22.9390  -45.6416 C.3       12 UNK         0.1400 
     71 CB         -4.6235  -22.4392  -44.6702 C.3       12 UNK        -0.1800 
     72 C          -3.0240  -24.3220  -45.2199 C.2       12 UNK         0.5000 
     73 O          -3.4747  -25.3216  -45.7774 O.2       12 UNK        -0.5000 
     74 N          -2.0577  -24.3682  -44.2904 N.am      13 UNK        -0.5000 
     75 CA         -1.3767  -25.5985  -43.8677 C.3       13 UNK         0.1400 
     76 CB         -0.4824  -25.3095  -42.6532 C.3       13 UNK        -0.1800 
     77 C          -0.5652  -26.2551  -45.0032 C.2       13 UNK         0.5000 
     78 O          -0.5050  -27.4824  -45.0792 O.2       13 UNK        -0.5000 
     79 N          -0.0064  -25.4257  -45.8949 N.am      14 UNK        -0.5000 
     80 CA          0.6444  -25.8293  -47.1432 C.3       14 UNK         0.1400 
     81 CB          1.5337  -24.6727  -47.6288 C.3       14 UNK        -0.1800 
     82 C          -0.3463  -26.2572  -48.2502 C.2       14 UNK         0.5000 
     83 O           0.0999  -26.7194  -49.3009 O.2       14 UNK        -0.5000 
     84 N          -1.6568  -26.0918  -48.0082 N.am      15 UNK        -0.5000 
     85 CA         -2.7874  -26.4049  -48.8895 C.3       15 UNK         0.1400 
     86 CB         -2.8592  -27.9183  -49.1825 C.3       15 UNK        -0.1800 
     87 C          -2.8372  -25.5395  -50.1658 C.2       15 UNK         0.5000 
     88 O          -3.4086  -25.9643  -51.1715 O.2       15 UNK        -0.5000 
     89 N          -2.2527  -24.3361  -50.1039 N.am      16 UNK        -0.5000 
     90 CA         -2.1970  -23.3871  -51.2153 C.3       16 UNK         0.1400 
     91 CB         -0.8279  -22.6900  -51.1862 C.3       16 UNK        -0.1800 
     92 C          -3.3422  -22.3580  -51.1717 C.2       16 UNK         0.5000 
     93 O          -3.5576  -21.6556  -52.1598 O.2       16 UNK        -0.5000 
     94 N          -4.0407  -22.2520  -50.0322 N.am      17 UNK        -0.5000 
     95 CA         -5.1532  -21.3236  -49.8319 C.3       17 UNK         0.1400 
     96 CB         -5.5239  -21.2754  -48.3426 C.3       17 UNK        -0.1800 
     97 C          -6.3672  -21.7050  -50.6951 C.2       17 UNK         0.5000 
     98 O          -6.7711  -22.8698  -50.6954 O.2       17 UNK        -0.5000 
     99 N          -6.9107  -20.7108  -51.4107 N.am      18 UNK        -0.5000 
    100 CA        -8.0374  -20.8036  -52.3480 C.3       18 UNK         0.1400 
    101 CB        -9.3374  -21.1943  -51.6135 C.3       18 UNK        -0.1800 
    102 C         -7.7605  -21.6874  -53.5860 C.2       18 UNK         0.5000 
    103 O         -8.7050  -22.1363  -54.2389 O.2       18 UNK        -0.5000 
    104 N         -6.4777  -21.9058  -53.9063 N.am      19 UNK        -0.5000 
    105 CA        -6.0241  -22.5689  -55.1277 C.3       19 UNK         0.1400 
    106 CB        -4.5834  -23.0623  -54.9100 C.3       19 UNK        -0.1800 
    107 C         -6.0996  -21.6191  -56.3394 C.2       19 UNK         0.5000 
    108 O         -6.3773  -20.4271  -56.1834 O.2       19 UNK        -0.5000 
    109 N         -5.7890  -22.1499  -57.5311 N.am      20 UNK        -0.5000 
    110 CA        -5.7287  -21.4097  -58.7996 C.3       20 UNK         0.1400 
    111 CB        -5.3810  -22.3854  -59.9339 C.3       20 UNK        -0.1800 
    112 C         -4.7453  -20.2192  -58.7917 C.2       20 UNK         0.5000 
    113 O         -4.9556  -19.2515  -59.5244 O.2       20 UNK        -0.5000 
    114 N         -3.7288  -20.2841  -57.9189 N.am      21 UNK        -0.5000 
    115 CA        -2.7835  -19.2079  -57.6139 C.3       21 UNK         0.1400 
    116 CB        -1.7491  -19.7331  -56.6062 C.3       21 UNK        -0.1800 
    117 C         -3.4452  -17.9200  -57.0776 C.2       21 UNK         0.5000 
    118 O         -2.8744  -16.8415  -57.2458 O.2       21 UNK        -0.5000 
    119 N         -4.6329  -18.0432  -56.4683 N.am      22 UNK        -0.5000 
    120 CA        -5.4695  -16.9132  -56.0362 C.3       22 UNK         0.1400 
    121 C         -6.2854  -16.2518  -57.1881 C.2       22 UNK         0.5000 
    122 N         -6.2755  -16.7690  -58.4121 N.am      22 UNK        -0.7600 
    123 O         -6.9362  -15.2336  -56.9694 O.2       22 UNK        -0.5000 
    124 C124       -6.3953  -17.2853  -54.8462 C.3       23 UNK        -0.0398 
    125 S125       -5.5225  -17.9968  -53.4089 S.3       23 UNK        -0.2404 
    126 C126       -4.6797  -16.5175  -52.7458 C.3       23 UNK        -0.0205 
    127 H127       -0.7432  -10.4824  -49.2944 H         1 UNK         0.0600 
    128 H128        0.4359  -10.2562  -50.5892 H         1 UNK         0.0600 
    129 H129        0.7344   -9.5637  -48.9914 H         1 UNK         0.0600 
    130 H130       -0.6603  -12.5288  -48.3985 H         1 UNK         0.3000 
    131 H131        1.6340  -14.2581  -48.8007 H         1 UNK         0.0600 
    132 H132       -0.5297  -15.1885  -49.1924 H         1 UNK         0.0800 
    133 H133        0.2135  -16.0363  -47.8776 H         1 UNK         0.0800 
    134 H134       -2.9424  -13.7880  -48.8955 H         1 UNK         0.0800 
    135 H135       -3.9967  -14.6174  -47.7763 H         1 UNK         0.0800 
    136 H136       -4.3204  -14.7685  -50.7056 H         1 UNK         0.1150 
    137 H137       -3.3206  -18.7628  -51.8933 H         1 UNK         0.1150 
    138 H138       -2.0796  -17.2938  -48.0766 H         1 UNK         0.1150 
    139 H139       -2.5846  -20.1442  -49.1140 H         1 UNK         0.0800 
    140 H140       -1.7830  -20.0101  -50.6642 H         1 UNK         0.0800 
    141 H141       -1.8213  -19.2853  -47.0119 H         1 UNK         0.0800 
    142 H142       -0.2182  -18.7206  -46.6599 H         1 UNK         0.0800 
    143 H143        0.4687  -21.2885  -47.0841 H         1 UNK         0.0600 
    144 H144       -0.1137  -19.8247  -44.7398 H         1 UNK         0.3000 
    145 H145        0.9112  -22.2892  -42.3912 H         1 UNK         0.0600 
    146 H146        2.4947  -20.6026  -41.7408 H         1 UNK         0.0600 
    147 H147        2.9796  -21.1209  -43.3398 H         1 UNK         0.0600 
    148 H148        2.1319  -19.5909  -43.1466 H         1 UNK         0.0600 
    149 H149       -0.0860  -19.5547  -42.2793 H         1 UNK         0.3000 
    150 H150       -3.5155  -20.4560  -41.9029 H         1 UNK         0.0600 
    151 H151       -2.6369  -20.6957  -39.6189 H         1 UNK         0.0600 
    152 H152       -3.2290  -19.0579  -39.8512 H         1 UNK         0.0600 
    153 H153       -1.4966  -19.3844  -39.8652 H         1 UNK         0.0600 
    154 H154       -2.0538  -17.9621  -41.9086 H         1 UNK         0.3000 
    155 H155       -2.2900  -17.4131  -45.4156 H         1 UNK         0.0600 
    156 H156       -4.6681  -16.9840  -44.7906 H         1 UNK         0.0600 
    157 H157       -3.7507  -15.4896  -44.8659 H         1 UNK         0.0600 
    158 H158       -4.1482  -16.2020  -43.3018 H         1 UNK         0.0600 
    159 H159       -1.7300  -15.5536  -43.3946 H         1 UNK         0.3000 
    160 H160        1.5140  -15.5334  -43.7806 H         1 UNK         0.0600 
    161 H161       -0.6324  -14.7846  -41.7141 H         1 UNK         0.0600 
    162 H162       -0.3602  -13.9871  -43.2654 H         1 UNK         0.0600 
    163 H163        0.8578  -13.9032  -42.0076 H         1 UNK         0.0600 
    164 H164        2.5724  -16.3998  -42.0545 H         1 UNK         0.3000 
    165 H165        2.3498  -17.0510  -39.2388 H         1 UNK         0.0600 
    166 H166        2.3215  -19.4910  -38.5838 H         1 UNK         0.0600 
    167 H167        0.7197  -18.7741  -38.5888 H         1 UNK         0.0600 
    168 H168        1.2110  -19.8208  -39.9123 H         1 UNK         0.0600 
    169 H169        3.1688  -18.5527  -41.6498 H         1 UNK         0.3000 
    170 H170        6.5016  -17.6038  -41.1376 H         1 UNK         0.0600 
    171 H171        6.5097  -19.8554  -40.0294 H         1 UNK         0.0600 
    172 H172        5.4607  -20.4813  -41.2957 H         1 UNK         0.0600 
    173 H173        7.0944  -19.9380  -41.6820 H         1 UNK         0.0600 
    174 H174        5.6497  -18.9476  -43.3346 H         1 UNK         0.3000 
    175 H175        5.6571  -17.6997  -45.2579 H         1 UNK         0.0600 
    176 H176        2.6217  -17.3332  -45.0545 H         1 UNK         0.0600 
    177 H177        3.4866  -17.8714  -46.4876 H         1 UNK         0.0600 
    178 H178        3.4735  -18.8724  -45.0460 H         1 UNK         0.0600 
    179 H179        3.9626  -15.3893  -45.7578 H         1 UNK         0.3000 
    180 H180        6.4696  -12.9462  -45.4004 H         1 UNK         0.0600 
    181 H181        5.6361  -14.0857  -48.1238 H         1 UNK         0.0600 
    182 H182        7.2928  -13.8458  -47.5813 H         1 UNK         0.0600 
    183 H183        6.2458  -12.4572  -47.8267 H         1 UNK         0.0600 
    184 H184        3.9258  -12.9881  -46.7609 H         1 UNK         0.3000 
    185 H185        1.8160  -13.0009  -44.0825 H         1 UNK         0.0600 
    186 H186        2.5221  -10.6615  -43.5496 H         1 UNK         0.0600 
    187 H187        2.5503  -10.2730  -45.2656 H         1 UNK         0.0600 
    188 H188        1.0292  -10.6850  -44.4718 H         1 UNK         0.0600 
    189 H189        1.2639  -11.9173  -46.6100 H         1 UNK         0.3000 
    190 H190       -2.4887  -21.1987  -45.0678 H         1 UNK         0.3000 
    191 H191       -4.0042  -23.0565  -46.6240 H         1 UNK         0.0600 
    192 H192       -5.0637  -21.5049  -45.0191 H         1 UNK         0.0600 
    193 H193       -5.4329  -23.1643  -44.5768 H         1 UNK         0.0600 
    194 H194       -4.2188  -22.2664  -43.6727 H         1 UNK         0.0600 
    195 H195       -1.7822  -23.5110  -43.8222 H         1 UNK         0.3000 
    196 H196       -2.1442  -26.3109  -43.5584 H         1 UNK         0.0600 
    197 H197       -0.0126  -26.2243  -42.2898 H         1 UNK         0.0600 
    198 H198       -1.0590  -24.8908  -41.8283 H         1 UNK         0.0600 
    199 H199        0.3147  -24.6080  -42.8965 H         1 UNK         0.0600 
    200 H200       -0.0303  -24.4296  -45.7019 H         1 UNK         0.3000 
    201 H201        1.2866  -26.6872  -46.9345 H         1 UNK         0.0600 
    202 H202        2.2637  -24.3907  -46.8698 H         1 UNK         0.0600 
    203 H203        0.9464  -23.7873  -47.8723 H         1 UNK         0.0600 
    204 H204        2.0894  -24.9530  -48.5245 H         1 UNK         0.0600 
    205 H205       -1.9235  -25.7082  -47.1094 H         1 UNK         0.3000 
    206 H206       -3.6849  -26.1447  -48.3276 H         1 UNK         0.0600 
    207 H207       -2.8263  -28.4995  -48.2609 H         1 UNK         0.0600 
    208 H208       -3.7886  -28.1746  -49.6921 H         1 UNK         0.0600 
    209 H209       -2.0378  -28.2490  -49.8184 H         1 UNK         0.0600 
    210 H210       -1.8264  -24.0363  -49.2325 H         1 UNK         0.3000 
    211 H211       -2.2789  -23.9171  -52.1666 H         1 UNK         0.0600 
    212 H212       -0.7440  -21.9493  -51.9825 H         1 UNK         0.0600 
    213 H213       -0.0208  -23.4093  -51.3263 H         1 UNK         0.0600 
    214 H214       -0.6549  -22.1807  -50.2382 H         1 UNK         0.0600 
    215 H215       -3.8176  -22.8776  -49.2735 H         1 UNK         0.3000 
    216 H216       -4.8173  -20.3273  -50.1255 H         1 UNK         0.0600 
    217 H217       -6.3398  -20.5729  -48.1679 H         1 UNK         0.0600 
    218 H218       -4.6804  -20.9454  -47.7358 H         1 UNK         0.0600 
    219 H219       -5.8487  -22.2500  -47.9768 H         1 UNK         0.0600 
    220 H220       -6.4822  -19.7965  -51.3574 H         1 UNK         0.3000 
    221 H221       -8.1783  -19.7947  -52.7386 H         1 UNK         0.0600 
    222 H222       -9.3112  -22.2259  -51.2620 H         1 UNK         0.0600 
    223 H223       -9.5130  -20.5499  -50.7521 H         1 UNK         0.0600 
    224 H224      -10.2026  -21.0967  -52.2701 H         1 UNK         0.0600 
    225 H225       -5.7590  -21.4847  -53.3332 H         1 UNK         0.3000 
    226 H226       -6.6649  -23.4307  -55.3248 H         1 UNK         0.0600 
    227 H227       -4.5122  -23.6898  -54.0211 H         1 UNK         0.0600 
    228 H228       -4.2346  -23.6610  -55.7519 H         1 UNK         0.0600 
    229 H229       -3.8880  -22.2306  -54.7884 H         1 UNK         0.0600 
    230 H230       -5.5662  -23.1337  -57.5812 H         1 UNK         0.3000 
    231 H231       -6.7243  -21.0037  -58.9895 H         1 UNK         0.0600 
    232 H232       -4.4056  -22.8489  -59.7808 H         1 UNK         0.0600 
    233 H233       -5.3533  -21.8723  -60.8963 H         1 UNK         0.0600 
    234 H234       -6.1231  -23.1800  -60.0132 H         1 UNK         0.0600 
    235 H235       -3.6446  -21.1213  -57.3626 H         1 UNK         0.3000 
    236 H236       -2.2658  -18.9497  -58.5398 H         1 UNK         0.0600 
    237 H237       -1.2126  -20.5955  -57.0023 H         1 UNK         0.0600 
    238 H238       -1.0063  -18.9688  -56.3739 H         1 UNK         0.0600 
    239 H239       -2.2185  -20.0301  -55.6670 H         1 UNK         0.0600 
    240 H240       -5.0581  -18.9602  -56.3747 H         1 UNK         0.3000 
    241 H241       -4.8009  -16.1271  -55.6829 H         1 UNK         0.0600 
    242 H242       -6.8070  -16.3177  -59.1397 H         1 UNK         0.3800 
    243 H243       -5.7422  -17.6027  -58.6315 H         1 UNK         0.3800 
    244 H244       -6.9525  -16.4114  -54.5043 H         1 UNK         0.0800 
    245 H245       -7.1443  -18.0099  -55.1695 H         1 UNK         0.0800 
    246 H246       -3.9578  -16.1573  -53.4791 H         1 UNK         0.0800 
    247 H247       -5.4204  -15.7268  -52.6167 H         1 UNK         0.0800 
@<TRIPOS>BOND
     1    1    2 1    
     2    1  127 1    
     3    1  128 1    
     4    1  129 1    
     5    2    3 2    
     6    2    4 am   BACKBONE|DICT|INTERRES
     7    4    5 1    
     8    4  130 1    
     9    5    6 1    
    10    5   65 1    
    11    5  131 1    
    12    6    7 1    
    13    6  132 1    
    14    6  133 1    
    15    7    8 1    
    16    8    9 1    
    17    8  134 1    
    18    8  135 1    
    19    9   10 ar   
    20    9   14 ar   
    21   10   11 ar   
    22   10  136 1    
    23   11   12 ar   
    24   11  126 1    
    25   12   13 ar   
    26   12  137 1    
    27   13   14 ar   
    28   13   15 1    
    29   14  138 1    
    30   15   16 1    
    31   15  139 1    
    32   15  140 1    
    33   16   17 1    
    34   17   18 1    
    35   17  141 1    
    36   17  142 1    
    37   18   19 1    
    38   18   67 1    
    39   18  143 1    
    40   19   20 am   BACKBONE|DICT|INTERRES
    41   19  144 1    
    42   20   21 2    
    43   20   22 1    
    44   22   23 1    
    45   22   24 1    
    46   22  145 1    
    47   23  146 1    
    48   23  147 1    
    49   23  148 1    
    50   24   25 am   BACKBONE|DICT|INTERRES
    51   24  149 1    
    52   25   26 2    
    53   25   27 1    
    54   27   28 1    
    55   27   29 1    
    56   27  150 1    
    57   28  151 1    
    58   28  152 1    
    59   28  153 1    
    60   29   30 am   BACKBONE|DICT|INTERRES
    61   29  154 1    
    62   30   31 2    
    63   30   32 1    
    64   32   33 1    
    65   32   34 1    
    66   32  155 1    
    67   33  156 1    
    68   33  157 1    
    69   33  158 1    
    70   34   35 am   BACKBONE|DICT|INTERRES
    71   34  159 1    
    72   35   36 2    
    73   35   37 1    
    74   37   38 1    
    75   37   39 1    
    76   37  160 1    
    77   38  161 1    
    78   38  162 1    
    79   38  163 1    
    80   39   40 am   BACKBONE|DICT|INTERRES
    81   39  164 1    
    82   40   41 2    
    83   40   42 1    
    84   42   43 1    
    85   42   44 1    
    86   42  165 1    
    87   43  166 1    
    88   43  167 1    
    89   43  168 1    
    90   44   45 am   BACKBONE|DICT|INTERRES
    91   44  169 1    
    92   45   46 2    
    93   45   47 1    
    94   47   48 1    
    95   47   49 1    
    96   47  170 1    
    97   48  171 1    
    98   48  172 1    
    99   48  173 1    
   100   49   50 am   BACKBONE|DICT|INTERRES
   101   49  174 1    
   102   50   51 2    
   103   50   52 1    
   104   52   53 1    
   105   52   54 1    
   106   52  175 1    
   107   53  176 1    
   108   53  177 1    
   109   53  178 1    
   110   54   55 am   BACKBONE|DICT|INTERRES
   111   54  179 1    
   112   55   56 2    
   113   55   57 1    
   114   57   58 1    
   115   57   59 1    
   116   57  180 1    
   117   58  181 1    
   118   58  182 1    
   119   58  183 1    
   120   59   60 am   BACKBONE|DICT|INTERRES
   121   59  184 1    
   122   60   61 2    
   123   60   62 1    
   124   62   63 1    
   125   62   64 1    
   126   62  185 1    
   127   63  186 1    
   128   63  187 1    
   129   63  188 1    
   130   64   65 am   BACKBONE|DICT|INTERRES
   131   64  189 1    
   132   65   66 2    
   133   67   68 2    
   134   67   69 am   BACKBONE|DICT|INTERRES
   135   69   70 1    
   136   69  190 1    
   137   70   71 1    
   138   70   72 1    
   139   70  191 1    
   140   71  192 1    
   141   71  193 1    
   142   71  194 1    
   143   72   73 2    
   144   72   74 am   BACKBONE|DICT|INTERRES
   145   74   75 1    
   146   74  195 1    
   147   75   76 1    
   148   75   77 1    
   149   75  196 1    
   150   76  197 1    
   151   76  198 1    
   152   76  199 1    
   153   77   78 2    
   154   77   79 am   BACKBONE|DICT|INTERRES
   155   79   80 1    
   156   79  200 1    
   157   80   81 1    
   158   80   82 1    
   159   80  201 1    
   160   81  202 1    
   161   81  203 1    
   162   81  204 1    
   163   82   83 2    
   164   82   84 am   BACKBONE|DICT|INTERRES
   165   84   85 1    
   166   84  205 1    
   167   85   86 1    
   168   85   87 1    
   169   85  206 1    
   170   86  207 1    
   171   86  208 1    
   172   86  209 1    
   173   87   88 2    
   174   87   89 am   BACKBONE|DICT|INTERRES
   175   89   90 1    
   176   89  210 1    
   177   90   91 1    
   178   90   92 1    
   179   90  211 1    
   180   91  212 1    
   181   91  213 1    
   182   91  214 1    
   183   92   93 2    
   184   92   94 am   BACKBONE|DICT|INTERRES
   185   94   95 1    
   186   94  215 1    
   187   95   96 1    
   188   95   97 1    
   189   95  216 1    
   190   96  217 1    
   191   96  218 1    
   192   96  219 1    
   193   97   98 2    
   194   97   99 am   BACKBONE|DICT|INTERRES
   195   99  100 1    
   196   99  220 1    
   197  100  101 1    
   198  100  102 1    
   199  100  221 1    
   200  101  222 1    
   201  101  223 1    
   202  101  224 1    
   203  102  103 2    
   204  102  104 am   BACKBONE|DICT|INTERRES
   205  104  105 1    
   206  104  225 1    
   207  105  106 1    
   208  105  107 1    
   209  105  226 1    
   210  106  227 1    
   211  106  228 1    
   212  106  229 1    
   213  107  108 2    
   214  107  109 am   BACKBONE|DICT|INTERRES
   215  109  110 1    
   216  109  230 1    
   217  110  111 1    
   218  110  112 1    
   219  110  231 1    
   220  111  232 1    
   221  111  233 1    
   222  111  234 1    
   223  112  113 2    
   224  112  114 am   BACKBONE|DICT|INTERRES
   225  114  115 1    
   226  114  235 1    
   227  115  116 1    
   228  115  117 1    
   229  115  236 1    
   230  116  237 1    
   231  116  238 1    
   232  116  239 1    
   233  117  118 2    
   234  117  119 am   BACKBONE|DICT|INTERRES
   235  119  120 1    
   236  119  240 1    
   237  120  121 1    
   238  120  124 1    
   239  120  241 1    
   240  121  122 am   BACKBONE|DICT|INTERRES
   241  121  123 2    
   242  122  242 1    
   243  122  243 1    
   244  124  125 1    
   245  124  244 1    
   246  124  245 1    
   247  125  126 1    
   248  126  246 1    
   249  126  247 1    
@<TRIPOS>SUBSTRUCTURE
     1 UNK         1 GROUP             0       ****    0 ROOT    
