@<TRIPOS>MOLECULE
3R540
247   249    1
SMALL
USER_CHARGES


@<TRIPOS>ATOM
      1 CA         -0.3064  -10.6432  -47.2703 C.3       0 UNK        -0.1800 
      2 C           0.9347  -10.4213  -48.1225 C.2       0 UNK         0.5000 
      3 O           1.5212   -9.3397  -48.0848 O.2       0 UNK        -0.5000 
      4 N           1.3297  -11.4392  -48.8969 N.am      1 UNK        -0.5000 
      5 CA          2.4844  -11.4076  -49.8038 C.3       1 UNK         0.1400 
      6 C6          2.3732  -12.4783  -50.9176 C.3       23 UNK        -0.0398 
      7 S7          2.1888  -14.1970  -50.3164 S.3       23 UNK        -0.2404 
      8 C8          0.4142  -14.4964  -50.5951 C.3       23 UNK        -0.0205 
      9 C9          0.0999  -15.9825  -50.5463 C.ar      23 UNK        -0.0193 
     10 C10         0.0022  -16.7149  -51.7329 C.ar      23 UNK        -0.1150 
     11 C11        -0.2666  -18.0857  -51.7013 C.ar      23 UNK        -0.0193 
     12 C12        -0.4236  -18.7250  -50.4685 C.ar      23 UNK        -0.1150 
     13 C13        -0.3435  -18.0024  -49.2751 C.ar      23 UNK        -0.0193 
     14 C14        -0.0881  -16.6282  -49.3205 C.ar      23 UNK        -0.1150 
     15 C15        -0.5390  -18.7064  -47.9416 C.3       23 UNK        -0.0205 
     16 S16         0.9742  -19.5726  -47.4225 S.3       23 UNK        -0.2404 
     17 C17         0.5107  -20.0994  -45.7400 C.3       23 UNK        -0.0398 
     18 CA          0.1484  -21.6020  -45.6485 C.3       11 UNK         0.1400 
     19 N           0.2431  -22.0991  -44.2773 N.am      11 UNK        -0.5000 
     20 C           0.4176  -23.3852  -43.9440 C.2       10 UNK         0.5000 
     21 O           0.6137  -24.2851  -44.7602 O.2       10 UNK        -0.5000 
     22 CA          0.3459  -23.7282  -42.4431 C.3       10 UNK         0.1400 
     23 CB          1.7499  -23.7115  -41.8201 C.3       10 UNK        -0.1800 
     24 N          -0.5243  -22.8258  -41.6854 N.am      10 UNK        -0.5000 
     25 C          -1.8544  -22.7521  -41.8332 C.2       9 UNK         0.5000 
     26 O          -2.4954  -23.4490  -42.6175 O.2       9 UNK        -0.5000 
     27 CA         -2.5796  -21.6741  -41.0090 C.3       9 UNK         0.1400 
     28 CB         -2.8819  -22.1864  -39.5931 C.3       9 UNK        -0.1800 
     29 N          -1.8403  -20.4108  -40.9247 N.am      9 UNK        -0.5000 
     30 C          -1.5066  -19.6532  -41.9774 C.2       8 UNK         0.5000 
     31 O          -1.7238  -19.9720  -43.1487 O.2       8 UNK        -0.5000 
     32 CA         -0.7805  -18.3339  -41.6797 C.3       8 UNK         0.1400 
     33 CB          0.7000  -18.4249  -42.0732 C.3       8 UNK        -0.1800 
     34 N          -1.4060  -17.2381  -42.4128 N.am      8 UNK        -0.5000 
     35 C          -2.5632  -16.6609  -42.0612 C.2       7 UNK         0.5000 
     36 O          -3.1996  -16.9853  -41.0564 O.2       7 UNK        -0.5000 
     37 CA         -3.1039  -15.5423  -42.9807 C.3       7 UNK         0.1400 
     38 CB         -3.9390  -14.4950  -42.2143 C.3       7 UNK        -0.1800 
     39 N          -2.0736  -14.8855  -43.7942 N.am      7 UNK        -0.5000 
     40 C          -0.9999  -14.2079  -43.3618 C.2       6 UNK         0.5000 
     41 O          -0.7249  -14.0221  -42.1749 O.2       6 UNK        -0.5000 
     42 CA         -0.0663  -13.6677  -44.4618 C.3       6 UNK         0.1400 
     43 CB          0.4527  -12.2632  -44.1074 C.3       6 UNK        -0.1800 
     44 N           1.0847  -14.5295  -44.7358 N.am      6 UNK        -0.5000 
     45 C           1.0915  -15.8439  -45.0048 C.2       5 UNK         0.5000 
     46 O           0.0887  -16.5583  -45.0029 O.2       5 UNK        -0.5000 
     47 CA          2.4567  -16.4667  -45.3417 C.3       5 UNK         0.1400 
     48 CB          2.7924  -16.2538  -46.8264 C.3       5 UNK        -0.1800 
     49 N           3.5301  -15.8865  -44.5355 N.am      5 UNK        -0.5000 
     50 C           4.1045  -16.4807  -43.4810 C.2       4 UNK         0.5000 
     51 O           3.7758  -17.5898  -43.0603 O.2       4 UNK        -0.5000 
     52 CA          5.2632  -15.7346  -42.7873 C.3       4 UNK         0.1400 
     53 CB          6.6102  -16.3661  -43.1733 C.3       4 UNK        -0.1800 
     54 N           5.3096  -14.3075  -43.1079 N.am      4 UNK        -0.5000 
     55 C           4.5174  -13.3758  -42.5618 C.2       3 UNK         0.5000 
     56 O           3.6930  -13.6108  -41.6786 O.2       3 UNK        -0.5000 
     57 CA          4.6532  -11.9423  -43.1154 C.3       3 UNK         0.1400 
     58 CB          5.6196  -11.1213  -42.2484 C.3       3 UNK        -0.1800 
     59 N           5.0883  -11.8726  -44.5171 N.am      3 UNK        -0.5000 
     60 C           4.4080  -12.3853  -45.5493 C.2       2 UNK         0.5000 
     61 O           3.3788  -13.0523  -45.4225 O.2       2 UNK        -0.5000 
     62 CA          4.9774  -12.1580  -46.9519 C.3       2 UNK         0.1400 
     63 CB          5.8951  -13.3226  -47.3629 C.3       2 UNK        -0.1800 
     64 N           3.8454  -12.0629  -47.8636 N.am      2 UNK        -0.5000 
     65 C           3.8399  -11.4751  -49.0640 C.2       1 UNK         0.5000 
     66 O           4.8402  -10.9780  -49.5842 O.2       1 UNK        -0.5000 
     67 C          -1.2516  -21.9021  -46.2146 C.2       11 UNK         0.5000 
     68 O          -1.3572  -22.4896  -47.2870 O.2       11 UNK        -0.5000 
     69 N          -2.3006  -21.5330  -45.4655 N.am      12 UNK        -0.5000 
     70 CA         -3.7063  -21.7021  -45.8423 C.3       12 UNK         0.1400 
     71 CB         -4.5904  -21.0363  -44.7777 C.3       12 UNK        -0.1800 
     72 C          -4.1318  -23.1680  -46.0601 C.2       12 UNK         0.5000 
     73 O          -4.9670  -23.4332  -46.9238 O.2       12 UNK        -0.5000 
     74 N          -3.5455  -24.0899  -45.2859 N.am      13 UNK        -0.5000 
     75 CA         -3.7817  -25.5321  -45.3703 C.3       13 UNK         0.1400 
     76 CB         -3.4070  -26.1708  -44.0228 C.3       13 UNK        -0.1800 
     77 C          -3.0285  -26.2301  -46.5223 C.2       13 UNK         0.5000 
     78 O          -3.2364  -27.4279  -46.7233 O.2       13 UNK        -0.5000 
     79 N          -2.1665  -25.5073  -47.2468 N.am      14 UNK        -0.5000 
     80 CA         -1.3505  -26.0275  -48.3391 C.3       14 UNK         0.1400 
     81 CB         -0.0170  -26.5614  -47.7743 C.3       14 UNK        -0.1800 
     82 C          -1.1939  -24.9326  -49.4071 C.2       14 UNK         0.5000 
     83 O          -2.1704  -24.2381  -49.6971 O.2       14 UNK        -0.5000 
     84 N           0.0097  -24.8170  -49.9926 N.am      15 UNK        -0.5000 
     85 CA          0.5122  -23.7420  -50.8675 C.3       15 UNK         0.1400 
     86 CB          0.6587  -22.4446  -50.0463 C.3       15 UNK        -0.1800 
     87 C          -0.2811  -23.4823  -52.1689 C.2       15 UNK         0.5000 
     88 O          -0.0073  -22.4944  -52.8486 O.2       15 UNK        -0.5000 
     89 N          -1.2593  -24.3471  -52.4730 N.am      16 UNK        -0.5000 
     90 CA         -2.3520  -24.1700  -53.4383 C.3       16 UNK         0.1400 
     91 CB         -1.8298  -23.9451  -54.8700 C.3       16 UNK        -0.1800 
     92 C          -3.3881  -23.1048  -53.0053 C.2       16 UNK         0.5000 
     93 O          -4.3110  -22.8098  -53.7667 O.2       16 UNK        -0.5000 
     94 N          -3.2784  -22.6020  -51.7668 N.am      17 UNK        -0.5000 
     95 CA         -4.2613  -21.7394  -51.1142 C.3       17 UNK         0.1400 
     96 CB         -3.6235  -21.0504  -49.8997 C.3       17 UNK        -0.1800 
     97 C          -5.4971  -22.5477  -50.6946 C.2       17 UNK         0.5000 
     98 O          -6.6167  -22.0538  -50.8210 O.2       17 UNK        -0.5000 
     99 N          -5.2770  -23.8083  -50.2925 N.am      18 UNK        -0.5000 
    100 CA        -6.3217  -24.8005  -50.0266 C.3       18 UNK         0.1400 
    101 CB        -5.6734  -26.0537  -49.4210 C.3       18 UNK        -0.1800 
    102 C         -7.1410  -25.1678  -51.2825 C.2       18 UNK         0.5000 
    103 O         -8.3143  -25.5208  -51.1636 O.2       18 UNK        -0.5000 
    104 N         -6.5131  -25.0500  -52.4610 N.am      19 UNK        -0.5000 
    105 CA        -7.1335  -25.2201  -53.7765 C.3       19 UNK         0.1400 
    106 CB        -6.0756  -25.7756  -54.7455 C.3       19 UNK        -0.1800 
    107 C         -7.7368  -23.9088  -54.3258 C.2       19 UNK         0.5000 
    108 O         -8.3534  -23.9368  -55.3914 O.2       19 UNK        -0.5000 
    109 N         -7.5373  -22.7907  -53.6092 N.am      20 UNK        -0.5000 
    110 CA        -7.9466  -21.4208  -53.9379 C.3       20 UNK         0.1400 
    111 CB        -9.4843  -21.2957  -53.9531 C.3       20 UNK        -0.1800 
    112 C         -7.2852  -20.8579  -55.2155 C.2       20 UNK         0.5000 
    113 O         -7.8414  -19.9563  -55.8456 O.2       20 UNK        -0.5000 
    114 N         -6.0994  -21.3724  -55.5715 N.am      21 UNK        -0.5000 
    115 CA        -5.3426  -20.9571  -56.7555 C.3       21 UNK         0.1400 
    116 CB        -4.3286  -22.0530  -57.1107 C.3       21 UNK        -0.1800 
    117 C         -4.6227  -19.6094  -56.5610 C.2       21 UNK         0.5000 
    118 O         -4.3251  -18.9328  -57.5462 O.2       21 UNK        -0.5000 
    119 N         -4.3557  -19.2488  -55.3000 N.am      22 UNK        -0.5000 
    120 CA        -3.6677  -18.0125  -54.8915 C.3       22 UNK         0.1400 
    121 C         -4.5187  -16.7148  -55.0349 C.2       22 UNK         0.5000 
    122 N         -5.8125  -16.7893  -55.3257 N.am      22 UNK        -0.7600 
    123 O         -3.9918  -15.6160  -54.8848 O.2       22 UNK        -0.5000 
    124 C124       -3.0861  -18.1286  -53.4584 C.3       23 UNK        -0.0398 
    125 S125       -2.0257  -19.5991  -53.2388 S.3       23 UNK        -0.2404 
    126 C126       -0.3716  -18.8775  -52.9974 C.3       23 UNK        -0.0205 
    127 H127       -0.5315  -11.7035  -47.1547 H         1 UNK         0.0600 
    128 H128       -1.1668  -10.1581  -47.7310 H         1 UNK         0.0600 
    129 H129       -0.1667  -10.2136  -46.2786 H         1 UNK         0.0600 
    130 H130        0.8159  -12.3074  -48.8804 H         1 UNK         0.3000 
    131 H131        2.4706  -10.4374  -50.3058 H         1 UNK         0.0600 
    132 H132        1.5322  -12.2319  -51.5665 H         1 UNK         0.0800 
    133 H133        3.2500  -12.4396  -51.5665 H         1 UNK         0.0800 
    134 H134        0.1170  -14.0903  -51.5633 H         1 UNK         0.0800 
    135 H135       -0.1734  -13.9670  -49.8442 H         1 UNK         0.0800 
    136 H136        0.1416  -16.2167  -52.6821 H         1 UNK         0.1150 
    137 H137       -0.6127  -19.7878  -50.4416 H         1 UNK         0.1150 
    138 H138       -0.0213  -16.0621  -48.4021 H         1 UNK         0.1150 
    139 H139       -1.3593  -19.4215  -48.0201 H         1 UNK         0.0800 
    140 H140       -0.8279  -17.9841  -47.1766 H         1 UNK         0.0800 
    141 H141        1.3812  -19.9019  -45.1135 H         1 UNK         0.0800 
    142 H142       -0.2837  -19.4629  -45.3467 H         1 UNK         0.0800 
    143 H143        0.8726  -22.1553  -46.2513 H         1 UNK         0.0600 
    144 H144        0.0243  -21.4389  -43.5452 H         1 UNK         0.3000 
    145 H145       -0.0567  -24.7397  -42.3555 H         1 UNK         0.0600 
    146 H146        2.4189  -24.3933  -42.3471 H         1 UNK         0.0600 
    147 H147        1.7227  -24.0271  -40.7770 H         1 UNK         0.0600 
    148 H148        2.1966  -22.7172  -41.8598 H         1 UNK         0.0600 
    149 H149       -0.0782  -22.2110  -41.0207 H         1 UNK         0.3000 
    150 H150       -3.5302  -21.4670  -41.5043 H         1 UNK         0.0600 
    151 H151       -1.9684  -22.3770  -39.0284 H         1 UNK         0.0600 
    152 H152       -3.4470  -23.1190  -39.6280 H         1 UNK         0.0600 
    153 H153       -3.4798  -21.4673  -39.0327 H         1 UNK         0.0600 
    154 H154       -1.6241  -20.0797  -39.9955 H         1 UNK         0.3000 
    155 H155       -0.8373  -18.1218  -40.6099 H         1 UNK         0.0600 
    156 H156        1.2262  -17.5017  -41.8294 H         1 UNK         0.0600 
    157 H157        0.8252  -18.6034  -43.1408 H         1 UNK         0.0600 
    158 H158        1.2011  -19.2349  -41.5422 H         1 UNK         0.0600 
    159 H159       -0.9614  -16.9555  -43.2802 H         1 UNK         0.3000 
    160 H160       -3.7710  -16.0390  -43.6864 H         1 UNK         0.0600 
    161 H161       -3.3548  -14.0016  -41.4370 H         1 UNK         0.0600 
    162 H162       -4.8009  -14.9566  -41.7312 H         1 UNK         0.0600 
    163 H163       -4.3206  -13.7262  -42.8862 H         1 UNK         0.0600 
    164 H164       -2.1610  -15.0327  -44.7902 H         1 UNK         0.3000 
    165 H165       -0.6381  -13.5866  -45.3879 H         1 UNK         0.0600 
    166 H166        1.0346  -11.8378  -44.9241 H         1 UNK         0.0600 
    167 H167       -0.3721  -11.5792  -43.9041 H         1 UNK         0.0600 
    168 H168        1.0919  -12.2826  -43.2236 H         1 UNK         0.0600 
    169 H169        1.9704  -14.0368  -44.8102 H         1 UNK         0.3000 
    170 H170        2.3866  -17.5418  -45.1647 H         1 UNK         0.0600 
    171 H171        3.7612  -16.6859  -47.0770 H         1 UNK         0.0600 
    172 H172        2.8185  -15.1969  -47.0943 H         1 UNK         0.0600 
    173 H173        2.0538  -16.7355  -47.4649 H         1 UNK         0.0600 
    174 H174        3.8229  -14.9509  -44.7875 H         1 UNK         0.3000 
    175 H175        5.1294  -15.8499  -41.7096 H         1 UNK         0.0600 
    176 H176        6.6320  -17.4269  -42.9201 H         1 UNK         0.0600 
    177 H177        6.8031  -16.2802  -44.2434 H         1 UNK         0.0600 
    178 H178        7.4355  -15.8905  -42.6430 H         1 UNK         0.0600 
    179 H179        5.9660  -14.0215  -43.8193 H         1 UNK         0.3000 
    180 H180        3.6657  -11.4798  -43.0552 H         1 UNK         0.0600 
    181 H181        6.6353  -11.5163  -42.2939 H         1 UNK         0.0600 
    182 H182        5.3105  -11.1302  -41.2022 H         1 UNK         0.0600 
    183 H183        5.6487  -10.0793  -42.5674 H         1 UNK         0.0600 
    184 H184        5.9360  -11.3536  -44.6971 H         1 UNK         0.3000 
    185 H185        5.5351  -11.2193  -46.9636 H         1 UNK         0.0600 
    186 H186        6.7360  -13.4208  -46.6756 H         1 UNK         0.0600 
    187 H187        5.3596  -14.2731  -47.3677 H         1 UNK         0.0600 
    188 H188        6.3082  -13.1684  -48.3597 H         1 UNK         0.0600 
    189 H189        2.9795  -12.4246  -47.4852 H         1 UNK         0.3000 
    190 H190       -2.1263  -21.0460  -44.5889 H         1 UNK         0.3000 
    191 H191       -3.8560  -21.1750  -46.7863 H         1 UNK         0.0600 
    192 H192       -4.3472  -19.9794  -44.6663 H         1 UNK         0.0600 
    193 H193       -5.6451  -21.1021  -45.0476 H         1 UNK         0.0600 
    194 H194       -4.4691  -21.5119  -43.8040 H         1 UNK         0.0600 
    195 H195       -2.9224  -23.7792  -44.5470 H         1 UNK         0.3000 
    196 H196       -4.8477  -25.6999  -45.5372 H         1 UNK         0.0600 
    197 H197       -3.6058  -27.2432  -44.0234 H         1 UNK         0.0600 
    198 H198       -3.9855  -25.7371  -43.2069 H         1 UNK         0.0600 
    199 H199       -2.3492  -26.0319  -43.7952 H         1 UNK         0.0600 
    200 H200       -2.0898  -24.5075  -47.0895 H         1 UNK         0.3000 
    201 H201       -1.8764  -26.8502  -48.8275 H         1 UNK         0.0600 
    202 H202        0.5837  -27.0424  -48.5467 H         1 UNK         0.0600 
    203 H203       -0.1916  -27.3099  -47.0011 H         1 UNK         0.0600 
    204 H204        0.5777  -25.7626  -47.3283 H         1 UNK         0.0600 
    205 H205        0.7143  -25.4832  -49.7088 H         1 UNK         0.3000 
    206 H206        1.5101  -24.0498  -51.1824 H         1 UNK         0.0600 
    207 H207        1.2397  -22.6109  -49.1392 H         1 UNK         0.0600 
    208 H208        1.1669  -21.6657  -50.6159 H         1 UNK         0.0600 
    209 H209       -0.3133  -22.0501  -49.7487 H         1 UNK         0.0600 
    210 H210       -1.3787  -25.1195  -51.8329 H         1 UNK         0.3000 
    211 H211       -2.8896  -25.1191  -53.4396 H         1 UNK         0.0600 
    212 H212       -1.4627  -22.9283  -55.0140 H         1 UNK         0.0600 
    213 H213       -2.6231  -24.1153  -55.5977 H         1 UNK         0.0600 
    214 H214       -1.0207  -24.6343  -55.1111 H         1 UNK         0.0600 
    215 H215       -2.5475  -22.9673  -51.1654 H         1 UNK         0.3000 
    216 H216       -4.5794  -20.9703  -51.8212 H         1 UNK         0.0600 
    217 H217       -4.3465  -20.4189  -49.3823 H         1 UNK         0.0600 
    218 H218       -3.2420  -21.7740  -49.1787 H         1 UNK         0.0600 
    219 H219       -2.7965  -20.4124  -50.2044 H         1 UNK         0.0600 
    220 H220       -4.3168  -24.1052  -50.1619 H         1 UNK         0.3000 
    221 H221       -7.0093  -24.3773  -49.2914 H         1 UNK         0.0600 
    222 H222       -4.9355  -26.4930  -50.0933 H         1 UNK         0.0600 
    223 H223       -5.1732  -25.8166  -48.4831 H         1 UNK         0.0600 
    224 H224       -6.4211  -26.8178  -49.2048 H         1 UNK         0.0600 
    225 H225       -5.5543  -24.7374  -52.4581 H         1 UNK         0.3000 
    226 H226       -7.9439  -25.9483  -53.7046 H         1 UNK         0.0600 
    227 H227       -6.5134  -25.9886  -55.7215 H         1 UNK         0.0600 
    228 H228       -5.2591  -25.0706  -54.9030 H         1 UNK         0.0600 
    229 H229       -5.6489  -26.7071  -54.3734 H         1 UNK         0.0600 
    230 H230       -7.0386  -22.8775  -52.7328 H         1 UNK         0.3000 
    231 H231       -7.5798  -20.7981  -53.1211 H         1 UNK         0.0600 
    232 H232       -9.9270  -21.8316  -54.7929 H         1 UNK         0.0600 
    233 H233       -9.7921  -20.2526  -54.0334 H         1 UNK         0.0600 
    234 H234       -9.9202  -21.6901  -53.0351 H         1 UNK         0.0600 
    235 H235       -5.6599  -22.0663  -54.9727 H         1 UNK         0.3000 
    236 H236       -6.0363  -20.8510  -57.5923 H         1 UNK         0.0600 
    237 H237       -3.8383  -21.8370  -58.0606 H         1 UNK         0.0600 
    238 H238       -3.5504  -22.1272  -56.3521 H         1 UNK         0.0600 
    239 H239       -4.8082  -23.0278  -57.2027 H         1 UNK         0.0600 
    240 H240       -4.6088  -19.8855  -54.5594 H         1 UNK         0.3000 
    241 H241       -2.8220  -17.8821  -55.5694 H         1 UNK         0.0600 
    242 H242       -6.2574  -17.6825  -55.4707 H         1 UNK         0.3800 
    243 H243       -6.3489  -15.9411  -55.4202 H         1 UNK         0.3800 
    244 H244       -3.8926  -18.1882  -52.7259 H         1 UNK         0.0800 
    245 H245       -2.5165  -17.2330  -53.2060 H         1 UNK         0.0800 
    246 H246        0.3609  -19.6856  -52.9759 H         1 UNK         0.0800 
    247 H247       -0.1221  -18.2581  -53.8602 H         1 UNK         0.0800 
@<TRIPOS>BOND
     1    1    2 1    
     2    1  127 1    
     3    1  128 1    
     4    1  129 1    
     5    2    3 2    
     6    2    4 am   BACKBONE|DICT|INTERRES
     7    4    5 1    
     8    4  130 1    
     9    5    6 1    
    10    5   65 1    
    11    5  131 1    
    12    6    7 1    
    13    6  132 1    
    14    6  133 1    
    15    7    8 1    
    16    8    9 1    
    17    8  134 1    
    18    8  135 1    
    19    9   10 ar   
    20    9   14 ar   
    21   10   11 ar   
    22   10  136 1    
    23   11   12 ar   
    24   11  126 1    
    25   12   13 ar   
    26   12  137 1    
    27   13   14 ar   
    28   13   15 1    
    29   14  138 1    
    30   15   16 1    
    31   15  139 1    
    32   15  140 1    
    33   16   17 1    
    34   17   18 1    
    35   17  141 1    
    36   17  142 1    
    37   18   19 1    
    38   18   67 1    
    39   18  143 1    
    40   19   20 am   BACKBONE|DICT|INTERRES
    41   19  144 1    
    42   20   21 2    
    43   20   22 1    
    44   22   23 1    
    45   22   24 1    
    46   22  145 1    
    47   23  146 1    
    48   23  147 1    
    49   23  148 1    
    50   24   25 am   BACKBONE|DICT|INTERRES
    51   24  149 1    
    52   25   26 2    
    53   25   27 1    
    54   27   28 1    
    55   27   29 1    
    56   27  150 1    
    57   28  151 1    
    58   28  152 1    
    59   28  153 1    
    60   29   30 am   BACKBONE|DICT|INTERRES
    61   29  154 1    
    62   30   31 2    
    63   30   32 1    
    64   32   33 1    
    65   32   34 1    
    66   32  155 1    
    67   33  156 1    
    68   33  157 1    
    69   33  158 1    
    70   34   35 am   BACKBONE|DICT|INTERRES
    71   34  159 1    
    72   35   36 2    
    73   35   37 1    
    74   37   38 1    
    75   37   39 1    
    76   37  160 1    
    77   38  161 1    
    78   38  162 1    
    79   38  163 1    
    80   39   40 am   BACKBONE|DICT|INTERRES
    81   39  164 1    
    82   40   41 2    
    83   40   42 1    
    84   42   43 1    
    85   42   44 1    
    86   42  165 1    
    87   43  166 1    
    88   43  167 1    
    89   43  168 1    
    90   44   45 am   BACKBONE|DICT|INTERRES
    91   44  169 1    
    92   45   46 2    
    93   45   47 1    
    94   47   48 1    
    95   47   49 1    
    96   47  170 1    
    97   48  171 1    
    98   48  172 1    
    99   48  173 1    
   100   49   50 am   BACKBONE|DICT|INTERRES
   101   49  174 1    
   102   50   51 2    
   103   50   52 1    
   104   52   53 1    
   105   52   54 1    
   106   52  175 1    
   107   53  176 1    
   108   53  177 1    
   109   53  178 1    
   110   54   55 am   BACKBONE|DICT|INTERRES
   111   54  179 1    
   112   55   56 2    
   113   55   57 1    
   114   57   58 1    
   115   57   59 1    
   116   57  180 1    
   117   58  181 1    
   118   58  182 1    
   119   58  183 1    
   120   59   60 am   BACKBONE|DICT|INTERRES
   121   59  184 1    
   122   60   61 2    
   123   60   62 1    
   124   62   63 1    
   125   62   64 1    
   126   62  185 1    
   127   63  186 1    
   128   63  187 1    
   129   63  188 1    
   130   64   65 am   BACKBONE|DICT|INTERRES
   131   64  189 1    
   132   65   66 2    
   133   67   68 2    
   134   67   69 am   BACKBONE|DICT|INTERRES
   135   69   70 1    
   136   69  190 1    
   137   70   71 1    
   138   70   72 1    
   139   70  191 1    
   140   71  192 1    
   141   71  193 1    
   142   71  194 1    
   143   72   73 2    
   144   72   74 am   BACKBONE|DICT|INTERRES
   145   74   75 1    
   146   74  195 1    
   147   75   76 1    
   148   75   77 1    
   149   75  196 1    
   150   76  197 1    
   151   76  198 1    
   152   76  199 1    
   153   77   78 2    
   154   77   79 am   BACKBONE|DICT|INTERRES
   155   79   80 1    
   156   79  200 1    
   157   80   81 1    
   158   80   82 1    
   159   80  201 1    
   160   81  202 1    
   161   81  203 1    
   162   81  204 1    
   163   82   83 2    
   164   82   84 am   BACKBONE|DICT|INTERRES
   165   84   85 1    
   166   84  205 1    
   167   85   86 1    
   168   85   87 1    
   169   85  206 1    
   170   86  207 1    
   171   86  208 1    
   172   86  209 1    
   173   87   88 2    
   174   87   89 am   BACKBONE|DICT|INTERRES
   175   89   90 1    
   176   89  210 1    
   177   90   91 1    
   178   90   92 1    
   179   90  211 1    
   180   91  212 1    
   181   91  213 1    
   182   91  214 1    
   183   92   93 2    
   184   92   94 am   BACKBONE|DICT|INTERRES
   185   94   95 1    
   186   94  215 1    
   187   95   96 1    
   188   95   97 1    
   189   95  216 1    
   190   96  217 1    
   191   96  218 1    
   192   96  219 1    
   193   97   98 2    
   194   97   99 am   BACKBONE|DICT|INTERRES
   195   99  100 1    
   196   99  220 1    
   197  100  101 1    
   198  100  102 1    
   199  100  221 1    
   200  101  222 1    
   201  101  223 1    
   202  101  224 1    
   203  102  103 2    
   204  102  104 am   BACKBONE|DICT|INTERRES
   205  104  105 1    
   206  104  225 1    
   207  105  106 1    
   208  105  107 1    
   209  105  226 1    
   210  106  227 1    
   211  106  228 1    
   212  106  229 1    
   213  107  108 2    
   214  107  109 am   BACKBONE|DICT|INTERRES
   215  109  110 1    
   216  109  230 1    
   217  110  111 1    
   218  110  112 1    
   219  110  231 1    
   220  111  232 1    
   221  111  233 1    
   222  111  234 1    
   223  112  113 2    
   224  112  114 am   BACKBONE|DICT|INTERRES
   225  114  115 1    
   226  114  235 1    
   227  115  116 1    
   228  115  117 1    
   229  115  236 1    
   230  116  237 1    
   231  116  238 1    
   232  116  239 1    
   233  117  118 2    
   234  117  119 am   BACKBONE|DICT|INTERRES
   235  119  120 1    
   236  119  240 1    
   237  120  121 1    
   238  120  124 1    
   239  120  241 1    
   240  121  122 am   BACKBONE|DICT|INTERRES
   241  121  123 2    
   242  122  242 1    
   243  122  243 1    
   244  124  125 1    
   245  124  244 1    
   246  124  245 1    
   247  125  126 1    
   248  126  246 1    
   249  126  247 1    
@<TRIPOS>SUBSTRUCTURE
     1 UNK         1 GROUP             0       ****    0 ROOT    
