@<TRIPOS>MOLECULE
3R540
247   249    1
SMALL
USER_CHARGES


@<TRIPOS>ATOM
      1 CA         -0.6287  -13.4798  -48.0988 C.3       0 UNK        -0.1800 
      2 C           0.7469  -12.9396  -48.4555 C.2       0 UNK         0.5000 
      3 O           0.8982  -12.2855  -49.4866 O.2       0 UNK        -0.5000 
      4 N           1.7498  -13.2135  -47.6113 N.am      1 UNK        -0.5000 
      5 CA          3.1557  -12.8615  -47.8559 C.3       1 UNK         0.1400 
      6 C6          4.1523  -13.7610  -47.0746 C.3       23 UNK        -0.0398 
      7 S7          3.7639  -15.5449  -47.1536 S.3       23 UNK        -0.2404 
      8 C8          4.2807  -15.9667  -48.8421 C.3       23 UNK        -0.0205 
      9 C9          3.5627  -17.2088  -49.3477 C.ar      23 UNK        -0.0193 
     10 C10         2.3362  -17.0885  -50.0128 C.ar      23 UNK        -0.1150 
     11 C11         1.7056  -18.2183  -50.5431 C.ar      23 UNK        -0.0193 
     12 C12         2.3128  -19.4670  -50.4080 C.ar      23 UNK        -0.1150 
     13 C13         3.5109  -19.6097  -49.7045 C.ar      23 UNK        -0.0193 
     14 C14         4.1350  -18.4743  -49.1784 C.ar      23 UNK        -0.1150 
     15 C15         4.1295  -20.9911  -49.5339 C.3       23 UNK        -0.0205 
     16 S16         3.4847  -21.8653  -48.0689 S.3       23 UNK        -0.2404 
     17 C17         1.7113  -21.9961  -48.4782 C.3       23 UNK        -0.0398 
     18 CA          0.9552  -23.0493  -47.6402 C.3       11 UNK         0.1400 
     19 N           0.8759  -22.7021  -46.2184 N.am      11 UNK        -0.5000 
     20 C           0.3864  -23.5078  -45.2653 C.2       10 UNK         0.5000 
     21 O          -0.0099  -24.6547  -45.4770 O.2       10 UNK        -0.5000 
     22 CA          0.2751  -22.9233  -43.8457 C.3       10 UNK         0.1400 
     23 CB          1.6393  -22.9228  -43.1399 C.3       10 UNK        -0.1800 
     24 N          -0.2926  -21.5745  -43.8343 N.am      10 UNK        -0.5000 
     25 C          -1.5429  -21.2760  -44.2160 C.2       9 UNK         0.5000 
     26 O          -2.3642  -22.1168  -44.5814 O.2       9 UNK        -0.5000 
     27 CA         -1.9315  -19.7852  -44.2376 C.3       9 UNK         0.1400 
     28 CB         -2.2697  -19.2823  -42.8266 C.3       9 UNK        -0.1800 
     29 N          -0.8977  -18.9358  -44.8292 N.am      9 UNK        -0.5000 
     30 C          -0.4590  -19.0479  -46.0915 C.2       8 UNK         0.5000 
     31 O          -0.9038  -19.8569  -46.9017 O.2       8 UNK        -0.5000 
     32 CA          0.7122  -18.1423  -46.5013 C.3       8 UNK         0.1400 
     33 CB          0.2084  -16.7258  -46.8127 C.3       8 UNK        -0.1800 
     34 N           1.7618  -18.0935  -45.4816 N.am      8 UNK        -0.5000 
     35 C           2.4554  -19.1608  -45.0582 C.2       7 UNK         0.5000 
     36 O           2.2909  -20.3006  -45.4864 O.2       7 UNK        -0.5000 
     37 CA          3.4463  -18.9281  -43.9058 C.3       7 UNK         0.1400 
     38 CB          4.7066  -18.2002  -44.3978 C.3       7 UNK        -0.1800 
     39 N           2.8403  -18.1764  -42.8074 N.am      7 UNK        -0.5000 
     40 C           1.8086  -18.6049  -42.0639 C.2       6 UNK         0.5000 
     41 O           1.2955  -19.7174  -42.1771 O.2       6 UNK        -0.5000 
     42 CA          1.2205  -17.5948  -41.0607 C.3       6 UNK         0.1400 
     43 CB          1.9624  -17.6682  -39.7180 C.3       6 UNK        -0.1800 
     44 N           1.2630  -16.2209  -41.5692 N.am      6 UNK        -0.5000 
     45 C           0.5571  -15.7909  -42.6223 C.2       5 UNK         0.5000 
     46 O          -0.2598  -16.4850  -43.2340 O.2       5 UNK        -0.5000 
     47 CA          0.8720  -14.3771  -43.1206 C.3       5 UNK         0.1400 
     48 CB          2.0746  -14.4309  -44.0841 C.3       5 UNK        -0.1800 
     49 N          -0.3186  -13.8417  -43.7764 N.am      5 UNK        -0.5000 
     50 C          -0.4562  -12.6089  -44.2728 C.2       4 UNK         0.5000 
     51 O           0.4704  -11.7930  -44.3345 O.2       4 UNK        -0.5000 
     52 CA         -1.8514  -12.2434  -44.8306 C.3       4 UNK         0.1400 
     53 CB         -2.9676  -12.3873  -43.7740 C.3       4 UNK        -0.1800 
     54 N          -1.8259  -10.9105  -45.4484 N.am      4 UNK        -0.5000 
     55 C          -1.7134   -9.7297  -44.8214 C.2       3 UNK         0.5000 
     56 O          -1.9755   -9.5302  -43.6340 O.2       3 UNK        -0.5000 
     57 CA         -1.0296   -8.6383  -45.6523 C.3       3 UNK         0.1400 
     58 CB         -1.1012   -7.2413  -45.0013 C.3       3 UNK        -0.1800 
     59 N           0.3586   -9.0734  -45.7957 N.am      3 UNK        -0.5000 
     60 C           1.2500   -8.6051  -46.6743 C.2       2 UNK         0.5000 
     61 O           0.9994   -7.7393  -47.5133 O.2       2 UNK        -0.5000 
     62 CA          2.6497   -9.2330  -46.6201 C.3       2 UNK         0.1400 
     63 CB          3.3414   -8.9835  -45.2677 C.3       2 UNK        -0.1800 
     64 N           2.5674  -10.6684  -46.8832 N.am      2 UNK        -0.5000 
     65 C           3.4530  -11.3654  -47.6085 C.2       1 UNK         0.5000 
     66 O           4.4769  -10.8741  -48.0864 O.2       1 UNK        -0.5000 
     67 C          -0.4411  -23.2972  -48.2443 C.2       11 UNK         0.5000 
     68 O          -0.6252  -24.2995  -48.9329 O.2       11 UNK        -0.5000 
     69 N          -1.4046  -22.4105  -47.9547 N.am      12 UNK        -0.5000 
     70 CA         -2.7971  -22.5285  -48.3847 C.3       12 UNK         0.1400 
     71 CB         -3.5785  -21.2652  -47.9971 C.3       12 UNK        -0.1800 
     72 C          -3.4849  -23.7852  -47.8285 C.2       12 UNK         0.5000 
     73 O          -4.1856  -24.4627  -48.5789 O.2       12 UNK        -0.5000 
     74 N          -3.2446  -24.0996  -46.5479 N.am      13 UNK        -0.5000 
     75 CA         -3.7263  -25.3161  -45.8935 C.3       13 UNK         0.1400 
     76 CB         -3.4296  -25.2533  -44.3878 C.3       13 UNK        -0.1800 
     77 C          -3.1389  -26.5935  -46.5199 C.2       13 UNK         0.5000 
     78 O          -3.8903  -27.5284  -46.7978 O.2       13 UNK        -0.5000 
     79 N          -1.8223  -26.5940  -46.7754 N.am      14 UNK        -0.5000 
     80 CA         -1.1028  -27.6858  -47.4373 C.3       14 UNK         0.1400 
     81 CB          0.4085  -27.4202  -47.3663 C.3       14 UNK        -0.1800 
     82 C          -1.5507  -27.9082  -48.8953 C.2       14 UNK         0.5000 
     83 O          -1.6649  -29.0549  -49.3295 O.2       14 UNK        -0.5000 
     84 N          -1.8258  -26.8107  -49.6116 N.am      15 UNK        -0.5000 
     85 CA         -2.3429  -26.8031  -50.9808 C.3       15 UNK         0.1400 
     86 CB         -2.0789  -25.4195  -51.6003 C.3       15 UNK        -0.1800 
     87 C          -3.8428  -27.1447  -51.0810 C.2       15 UNK         0.5000 
     88 O          -4.3354  -27.3153  -52.1950 O.2       15 UNK        -0.5000 
     89 N          -4.5549  -27.1896  -49.9445 N.am      16 UNK        -0.5000 
     90 CA         -6.0107  -27.3381  -49.8218 C.3       16 UNK         0.1400 
     91 CB         -6.4623  -28.7442  -50.2677 C.3       16 UNK        -0.1800 
     92 C          -6.7704  -26.1960  -50.5337 C.2       16 UNK         0.5000 
     93 O          -7.7527  -26.4363  -51.2371 O.2       16 UNK        -0.5000 
     94 N          -6.2576  -24.9710  -50.3506 N.am      17 UNK        -0.5000 
     95 CA         -6.7030  -23.6897  -50.9046 C.3       17 UNK         0.1400 
     96 CB         -8.1472  -23.3632  -50.4754 C.3       17 UNK        -0.1800 
     97 C          -6.4949  -23.5235  -52.4247 C.2       17 UNK         0.5000 
     98 O          -6.9031  -22.4939  -52.9644 O.2       17 UNK        -0.5000 
     99 N          -5.8242  -24.4796  -53.0891 N.am      18 UNK        -0.5000 
    100 CA        -5.5729  -24.4824  -54.5381 C.3       18 UNK         0.1400 
    101 CB        -4.9558  -25.8255  -54.9518 C.3       18 UNK        -0.1800 
    102 C         -4.6980  -23.3151  -55.0396 C.2       18 UNK         0.5000 
    103 O         -4.7753  -22.9626  -56.2162 O.2       18 UNK        -0.5000 
    104 N         -3.9277  -22.6978  -54.1341 N.am      19 UNK        -0.5000 
    105 CA        -3.1449  -21.4776  -54.3517 C.3       19 UNK         0.1400 
    106 CB        -1.9910  -21.4609  -53.3303 C.3       19 UNK        -0.1800 
    107 C         -4.0019  -20.1899  -54.2683 C.2       19 UNK         0.5000 
    108 O         -3.4856  -19.1430  -53.8755 O.2       19 UNK        -0.5000 
    109 N         -5.3070  -20.2923  -54.5713 N.am      20 UNK        -0.5000 
    110 CA        -6.3505  -19.2656  -54.4263 C.3       20 UNK         0.1400 
    111 CB        -6.1360  -18.1249  -55.4420 C.3       20 UNK        -0.1800 
    112 C         -6.4733  -18.7602  -52.9724 C.2       20 UNK         0.5000 
    113 O         -6.6829  -17.5677  -52.7379 O.2       20 UNK        -0.5000 
    114 N         -6.2501  -19.6822  -52.0222 N.am      21 UNK        -0.5000 
    115 CA        -6.0987  -19.4709  -50.5767 C.3       21 UNK         0.1400 
    116 CB        -7.4647  -19.1325  -49.9471 C.3       21 UNK        -0.1800 
    117 C         -5.0032  -18.4446  -50.1915 C.2       21 UNK         0.5000 
    118 O         -5.0439  -17.9042  -49.0855 O.2       21 UNK        -0.5000 
    119 N         -4.0642  -18.1757  -51.1121 N.am      22 UNK        -0.5000 
    120 CA        -3.0757  -17.0854  -51.0620 C.3       22 UNK         0.1400 
    121 C         -3.7028  -15.6556  -51.0574 C.2       22 UNK         0.5000 
    122 N         -4.9314  -15.4711  -51.5296 N.am      22 UNK        -0.7600 
    123 O         -3.0623  -14.6891  -50.6542 O.2       22 UNK        -0.5000 
    124 C124       -1.9861  -17.2927  -49.9731 C.3       23 UNK        -0.0398 
    125 S125       -0.9928  -18.7892  -50.2925 S.3       23 UNK        -0.2404 
    126 C126        0.3810  -18.1118  -51.2826 C.3       23 UNK        -0.0205 
    127 H127       -0.9578  -14.1866  -48.8599 H         1 UNK         0.0600 
    128 H128       -1.3545  -12.6685  -48.0536 H         1 UNK         0.0600 
    129 H129       -0.6234  -13.9960  -47.1402 H         1 UNK         0.0600 
    130 H130        1.5777  -13.7634  -46.7835 H         1 UNK         0.3000 
    131 H131        3.3469  -13.0257  -48.9181 H         1 UNK         0.0600 
    132 H132        4.1739  -13.4798  -46.0208 H         1 UNK         0.0800 
    133 H133        5.1685  -13.6108  -47.4436 H         1 UNK         0.0800 
    134 H134        4.0769  -15.1366  -49.5184 H         1 UNK         0.0800 
    135 H135        5.3612  -16.1168  -48.8602 H         1 UNK         0.0800 
    136 H136        1.8823  -16.1142  -50.1283 H         1 UNK         0.1150 
    137 H137        1.8316  -20.3345  -50.8360 H         1 UNK         0.1150 
    138 H138        5.0715  -18.5733  -48.6478 H         1 UNK         0.1150 
    139 H139        3.9508  -21.5950  -50.4249 H         1 UNK         0.0800 
    140 H140        5.2129  -20.9033  -49.4409 H         1 UNK         0.0800 
    141 H141        1.6383  -22.2457  -49.5382 H         1 UNK         0.0800 
    142 H142        1.2503  -21.0148  -48.3518 H         1 UNK         0.0800 
    143 H143        1.5040  -23.9908  -47.7116 H         1 UNK         0.0600 
    144 H144        1.2313  -21.7848  -45.9567 H         1 UNK         0.3000 
    145 H145       -0.3963  -23.5691  -43.2759 H         1 UNK         0.0600 
    146 H146        2.0700  -23.9246  -43.1222 H         1 UNK         0.0600 
    147 H147        2.3531  -22.2670  -43.6387 H         1 UNK         0.0600 
    148 H148        1.5469  -22.5894  -42.1062 H         1 UNK         0.0600 
    149 H149        0.3164  -20.8277  -43.5145 H         1 UNK         0.3000 
    150 H150       -2.8272  -19.6868  -44.8541 H         1 UNK         0.0600 
    151 H151       -2.6013  -18.2440  -42.8468 H         1 UNK         0.0600 
    152 H152       -1.4108  -19.3455  -42.1588 H         1 UNK         0.0600 
    153 H153       -3.0729  -19.8731  -42.3848 H         1 UNK         0.0600 
    154 H154       -0.5012  -18.2153  -44.2344 H         1 UNK         0.3000 
    155 H155        1.1494  -18.5567  -47.4127 H         1 UNK         0.0600 
    156 H156       -0.6315  -16.7560  -47.5052 H         1 UNK         0.0600 
    157 H157        0.9828  -16.1260  -47.2851 H         1 UNK         0.0600 
    158 H158       -0.1301  -16.2071  -45.9164 H         1 UNK         0.0600 
    159 H159        1.9468  -17.1973  -45.0610 H         1 UNK         0.3000 
    160 H160        3.7455  -19.9059  -43.5221 H         1 UNK         0.0600 
    161 H161        5.1521  -18.7207  -45.2468 H         1 UNK         0.0600 
    162 H162        5.4626  -18.1502  -43.6141 H         1 UNK         0.0600 
    163 H163        4.4879  -17.1809  -44.7162 H         1 UNK         0.0600 
    164 H164        3.2038  -17.2518  -42.6343 H         1 UNK         0.3000 
    165 H165        0.1760  -17.8634  -40.8895 H         1 UNK         0.0600 
    166 H166        1.5090  -17.0057  -38.9804 H         1 UNK         0.0600 
    167 H167        1.9285  -18.6791  -39.3094 H         1 UNK         0.0600 
    168 H168        3.0121  -17.3902  -39.8199 H         1 UNK         0.0600 
    169 H169        1.9110  -15.5916  -41.1173 H         1 UNK         0.3000 
    170 H170        1.1130  -13.7454  -42.2633 H         1 UNK         0.0600 
    171 H171        2.4254  -13.4343  -44.3479 H         1 UNK         0.0600 
    172 H172        2.9231  -14.9487  -43.6355 H         1 UNK         0.0600 
    173 H173        1.8200  -14.9540  -45.0040 H         1 UNK         0.0600 
    174 H174       -1.1007  -14.4850  -43.7822 H         1 UNK         0.3000 
    175 H175       -2.0743  -12.9449  -45.6337 H         1 UNK         0.0600 
    176 H176       -3.9139  -11.9907  -44.1419 H         1 UNK         0.0600 
    177 H177       -2.7241  -11.8714  -42.8449 H         1 UNK         0.0600 
    178 H178       -3.1344  -13.4352  -43.5232 H         1 UNK         0.0600 
    179 H179       -1.5733  -10.9168  -46.4259 H         1 UNK         0.3000 
    180 H180       -1.5077   -8.6003  -46.6333 H         1 UNK         0.0600 
    181 H181       -0.6543   -6.4805  -45.6411 H         1 UNK         0.0600 
    182 H182       -0.5826   -7.2165  -44.0421 H         1 UNK         0.0600 
    183 H183       -2.1365   -6.9471  -44.8254 H         1 UNK         0.0600 
    184 H184        0.6331   -9.8106  -45.1532 H         1 UNK         0.3000 
    185 H185        3.2415   -8.7472  -47.3992 H         1 UNK         0.0600 
    186 H186        2.8350   -9.4989  -44.4507 H         1 UNK         0.0600 
    187 H187        4.3749   -9.3297  -45.2880 H         1 UNK         0.0600 
    188 H188        3.3595   -7.9197  -45.0276 H         1 UNK         0.0600 
    189 H189        1.7449  -11.1453  -46.5410 H         1 UNK         0.3000 
    190 H190       -1.1693  -21.5749  -47.4209 H         1 UNK         0.3000 
    191 H191       -2.8004  -22.6053  -49.4738 H         1 UNK         0.0600 
    192 H192       -3.5426  -21.0846  -46.9226 H         1 UNK         0.0600 
    193 H193       -4.6281  -21.3498  -48.2787 H         1 UNK         0.0600 
    194 H194       -3.1737  -20.3844  -48.4960 H         1 UNK         0.0600 
    195 H195       -2.6978  -23.4607  -45.9775 H         1 UNK         0.3000 
    196 H196       -4.8102  -25.3536  -46.0214 H         1 UNK         0.0600 
    197 H197       -3.7893  -26.1493  -43.8805 H         1 UNK         0.0600 
    198 H198       -3.9227  -24.3980  -43.9256 H         1 UNK         0.0600 
    199 H199       -2.3611  -25.1690  -44.1889 H         1 UNK         0.0600 
    200 H200       -1.2667  -25.7938  -46.4858 H         1 UNK         0.3000 
    201 H201       -1.3116  -28.6039  -46.8844 H         1 UNK         0.0600 
    202 H202        0.7459  -27.3400  -46.3328 H         1 UNK         0.0600 
    203 H203        0.6797  -26.4965  -47.8780 H         1 UNK         0.0600 
    204 H204        0.9707  -28.2312  -47.8307 H         1 UNK         0.0600 
    205 H205       -1.6265  -25.9015  -49.2018 H         1 UNK         0.3000 
    206 H206       -1.7979  -27.5487  -51.5630 H         1 UNK         0.0600 
    207 H207       -2.4050  -25.3817  -52.6401 H         1 UNK         0.0600 
    208 H208       -2.6063  -24.6319  -51.0610 H         1 UNK         0.0600 
    209 H209       -1.0158  -25.1784  -51.5880 H         1 UNK         0.0600 
    210 H210       -4.0633  -27.0125  -49.0779 H         1 UNK         0.3000 
    211 H211       -6.2379  -27.2401  -48.7592 H         1 UNK         0.0600 
    212 H212       -6.3174  -28.8994  -51.3371 H         1 UNK         0.0600 
    213 H213       -7.5210  -28.8982  -50.0565 H         1 UNK         0.0600 
    214 H214       -5.9098  -29.5203  -49.7381 H         1 UNK         0.0600 
    215 H215       -5.4452  -24.8991  -49.7368 H         1 UNK         0.3000 
    216 H216       -6.0562  -22.9430  -50.4426 H         1 UNK         0.0600 
    217 H217       -8.4194  -22.3452  -50.7559 H         1 UNK         0.0600 
    218 H218       -8.2645  -23.4417  -49.3946 H         1 UNK         0.0600 
    219 H219       -8.8711  -24.0313  -50.9424 H         1 UNK         0.0600 
    220 H220       -5.5247  -25.3022  -52.5818 H         1 UNK         0.3000 
    221 H221       -6.5416  -24.3912  -55.0336 H         1 UNK         0.0600 
    222 H222       -3.9697  -25.9682  -54.5094 H         1 UNK         0.0600 
    223 H223       -5.5864  -26.6614  -54.6481 H         1 UNK         0.0600 
    224 H224       -4.8390  -25.8850  -56.0347 H         1 UNK         0.0600 
    225 H225       -3.9434  -23.0546  -53.1911 H         1 UNK         0.3000 
    226 H226       -2.7107  -21.5097  -55.3529 H         1 UNK         0.0600 
    227 H227       -1.3916  -22.3692  -53.3954 H         1 UNK         0.0600 
    228 H228       -1.3187  -20.6201  -53.5064 H         1 UNK         0.0600 
    229 H229       -2.3594  -21.3751  -52.3070 H         1 UNK         0.0600 
    230 H230       -5.6386  -21.2010  -54.8651 H         1 UNK         0.3000 
    231 H231       -7.2984  -19.7510  -54.6626 H         1 UNK         0.0600 
    232 H232       -5.2307  -17.5559  -55.2277 H         1 UNK         0.0600 
    233 H233       -6.0563  -18.5119  -56.4577 H         1 UNK         0.0600 
    234 H234       -6.9726  -17.4254  -55.4266 H         1 UNK         0.0600 
    235 H235       -6.1477  -20.6387  -52.3417 H         1 UNK         0.3000 
    236 H236       -5.7731  -20.4266  -50.1668 H         1 UNK         0.0600 
    237 H237       -7.8234  -18.1539  -50.2676 H         1 UNK         0.0600 
    238 H238       -8.2188  -19.8709  -50.2187 H         1 UNK         0.0600 
    239 H239       -7.4043  -19.1193  -48.8583 H         1 UNK         0.0600 
    240 H240       -4.0976  -18.6621  -52.0010 H         1 UNK         0.3000 
    241 H241       -2.5652  -17.1293  -52.0246 H         1 UNK         0.0600 
    242 H242       -5.3227  -14.5429  -51.5332 H         1 UNK         0.3800 
    243 H243       -5.4789  -16.2460  -51.8922 H         1 UNK         0.3800 
    244 H244       -1.3113  -16.4380  -49.9148 H         1 UNK         0.0800 
    245 H245       -2.4424  -17.3815  -48.9869 H         1 UNK         0.0800 
    246 H246        0.1823  -17.0794  -51.5729 H         1 UNK         0.0800 
    247 H247        0.4455  -18.6755  -52.2144 H         1 UNK         0.0800 
@<TRIPOS>BOND
     1    1    2 1    
     2    1  127 1    
     3    1  128 1    
     4    1  129 1    
     5    2    3 2    
     6    2    4 am   BACKBONE|DICT|INTERRES
     7    4    5 1    
     8    4  130 1    
     9    5    6 1    
    10    5   65 1    
    11    5  131 1    
    12    6    7 1    
    13    6  132 1    
    14    6  133 1    
    15    7    8 1    
    16    8    9 1    
    17    8  134 1    
    18    8  135 1    
    19    9   10 ar   
    20    9   14 ar   
    21   10   11 ar   
    22   10  136 1    
    23   11   12 ar   
    24   11  126 1    
    25   12   13 ar   
    26   12  137 1    
    27   13   14 ar   
    28   13   15 1    
    29   14  138 1    
    30   15   16 1    
    31   15  139 1    
    32   15  140 1    
    33   16   17 1    
    34   17   18 1    
    35   17  141 1    
    36   17  142 1    
    37   18   19 1    
    38   18   67 1    
    39   18  143 1    
    40   19   20 am   BACKBONE|DICT|INTERRES
    41   19  144 1    
    42   20   21 2    
    43   20   22 1    
    44   22   23 1    
    45   22   24 1    
    46   22  145 1    
    47   23  146 1    
    48   23  147 1    
    49   23  148 1    
    50   24   25 am   BACKBONE|DICT|INTERRES
    51   24  149 1    
    52   25   26 2    
    53   25   27 1    
    54   27   28 1    
    55   27   29 1    
    56   27  150 1    
    57   28  151 1    
    58   28  152 1    
    59   28  153 1    
    60   29   30 am   BACKBONE|DICT|INTERRES
    61   29  154 1    
    62   30   31 2    
    63   30   32 1    
    64   32   33 1    
    65   32   34 1    
    66   32  155 1    
    67   33  156 1    
    68   33  157 1    
    69   33  158 1    
    70   34   35 am   BACKBONE|DICT|INTERRES
    71   34  159 1    
    72   35   36 2    
    73   35   37 1    
    74   37   38 1    
    75   37   39 1    
    76   37  160 1    
    77   38  161 1    
    78   38  162 1    
    79   38  163 1    
    80   39   40 am   BACKBONE|DICT|INTERRES
    81   39  164 1    
    82   40   41 2    
    83   40   42 1    
    84   42   43 1    
    85   42   44 1    
    86   42  165 1    
    87   43  166 1    
    88   43  167 1    
    89   43  168 1    
    90   44   45 am   BACKBONE|DICT|INTERRES
    91   44  169 1    
    92   45   46 2    
    93   45   47 1    
    94   47   48 1    
    95   47   49 1    
    96   47  170 1    
    97   48  171 1    
    98   48  172 1    
    99   48  173 1    
   100   49   50 am   BACKBONE|DICT|INTERRES
   101   49  174 1    
   102   50   51 2    
   103   50   52 1    
   104   52   53 1    
   105   52   54 1    
   106   52  175 1    
   107   53  176 1    
   108   53  177 1    
   109   53  178 1    
   110   54   55 am   BACKBONE|DICT|INTERRES
   111   54  179 1    
   112   55   56 2    
   113   55   57 1    
   114   57   58 1    
   115   57   59 1    
   116   57  180 1    
   117   58  181 1    
   118   58  182 1    
   119   58  183 1    
   120   59   60 am   BACKBONE|DICT|INTERRES
   121   59  184 1    
   122   60   61 2    
   123   60   62 1    
   124   62   63 1    
   125   62   64 1    
   126   62  185 1    
   127   63  186 1    
   128   63  187 1    
   129   63  188 1    
   130   64   65 am   BACKBONE|DICT|INTERRES
   131   64  189 1    
   132   65   66 2    
   133   67   68 2    
   134   67   69 am   BACKBONE|DICT|INTERRES
   135   69   70 1    
   136   69  190 1    
   137   70   71 1    
   138   70   72 1    
   139   70  191 1    
   140   71  192 1    
   141   71  193 1    
   142   71  194 1    
   143   72   73 2    
   144   72   74 am   BACKBONE|DICT|INTERRES
   145   74   75 1    
   146   74  195 1    
   147   75   76 1    
   148   75   77 1    
   149   75  196 1    
   150   76  197 1    
   151   76  198 1    
   152   76  199 1    
   153   77   78 2    
   154   77   79 am   BACKBONE|DICT|INTERRES
   155   79   80 1    
   156   79  200 1    
   157   80   81 1    
   158   80   82 1    
   159   80  201 1    
   160   81  202 1    
   161   81  203 1    
   162   81  204 1    
   163   82   83 2    
   164   82   84 am   BACKBONE|DICT|INTERRES
   165   84   85 1    
   166   84  205 1    
   167   85   86 1    
   168   85   87 1    
   169   85  206 1    
   170   86  207 1    
   171   86  208 1    
   172   86  209 1    
   173   87   88 2    
   174   87   89 am   BACKBONE|DICT|INTERRES
   175   89   90 1    
   176   89  210 1    
   177   90   91 1    
   178   90   92 1    
   179   90  211 1    
   180   91  212 1    
   181   91  213 1    
   182   91  214 1    
   183   92   93 2    
   184   92   94 am   BACKBONE|DICT|INTERRES
   185   94   95 1    
   186   94  215 1    
   187   95   96 1    
   188   95   97 1    
   189   95  216 1    
   190   96  217 1    
   191   96  218 1    
   192   96  219 1    
   193   97   98 2    
   194   97   99 am   BACKBONE|DICT|INTERRES
   195   99  100 1    
   196   99  220 1    
   197  100  101 1    
   198  100  102 1    
   199  100  221 1    
   200  101  222 1    
   201  101  223 1    
   202  101  224 1    
   203  102  103 2    
   204  102  104 am   BACKBONE|DICT|INTERRES
   205  104  105 1    
   206  104  225 1    
   207  105  106 1    
   208  105  107 1    
   209  105  226 1    
   210  106  227 1    
   211  106  228 1    
   212  106  229 1    
   213  107  108 2    
   214  107  109 am   BACKBONE|DICT|INTERRES
   215  109  110 1    
   216  109  230 1    
   217  110  111 1    
   218  110  112 1    
   219  110  231 1    
   220  111  232 1    
   221  111  233 1    
   222  111  234 1    
   223  112  113 2    
   224  112  114 am   BACKBONE|DICT|INTERRES
   225  114  115 1    
   226  114  235 1    
   227  115  116 1    
   228  115  117 1    
   229  115  236 1    
   230  116  237 1    
   231  116  238 1    
   232  116  239 1    
   233  117  118 2    
   234  117  119 am   BACKBONE|DICT|INTERRES
   235  119  120 1    
   236  119  240 1    
   237  120  121 1    
   238  120  124 1    
   239  120  241 1    
   240  121  122 am   BACKBONE|DICT|INTERRES
   241  121  123 2    
   242  122  242 1    
   243  122  243 1    
   244  124  125 1    
   245  124  244 1    
   246  124  245 1    
   247  125  126 1    
   248  126  246 1    
   249  126  247 1    
@<TRIPOS>SUBSTRUCTURE
     1 UNK         1 GROUP             0       ****    0 ROOT    
