@<TRIPOS>MOLECULE
3R540
247   249    1
SMALL
USER_CHARGES


@<TRIPOS>ATOM
      1 CA          1.5987   -8.7849  -50.1784 C.3       0 UNK        -0.1800 
      2 C           1.3159  -10.0394  -49.3646 C.2       0 UNK         0.5000 
      3 O           0.6595   -9.9590  -48.3261 O.2       0 UNK        -0.5000 
      4 N           1.8259  -11.1913  -49.8207 N.am      1 UNK        -0.5000 
      5 CA          1.6703  -12.5492  -49.2702 C.3       1 UNK         0.1400 
      6 C6          0.1960  -13.0324  -49.1927 C.3       23 UNK        -0.0398 
      7 S7         -0.5376  -13.3022  -50.8424 S.3       23 UNK        -0.2404 
      8 C8         -0.8177  -15.1054  -50.8348 C.3       23 UNK        -0.0205 
      9 C9          0.4001  -15.9001  -51.2925 C.ar      23 UNK        -0.0193 
     10 C10         0.3529  -16.6270  -52.4855 C.ar      23 UNK        -0.1150 
     11 C11         1.4363  -17.4159  -52.8859 C.ar      23 UNK        -0.0193 
     12 C12         2.5903  -17.4469  -52.0954 C.ar      23 UNK        -0.1150 
     13 C13         2.6610  -16.7086  -50.9108 C.ar      23 UNK        -0.0193 
     14 C14         1.5586  -15.9486  -50.5124 C.ar      23 UNK        -0.1150 
     15 C15         3.9280  -16.7243  -50.0652 C.3       23 UNK        -0.0205 
     16 S16         3.9725  -18.1248  -48.9002 S.3       23 UNK        -0.2404 
     17 C17         2.6913  -17.6434  -47.6924 C.3       23 UNK        -0.0398 
     18 CA          1.3402  -18.3279  -47.9992 C.3       11 UNK         0.1400 
     19 N           1.4014  -19.7809  -47.8285 N.am      11 UNK        -0.5000 
     20 C           0.6527  -20.6493  -48.5203 C.2       10 UNK         0.5000 
     21 O          -0.1749  -20.3108  -49.3639 O.2       10 UNK        -0.5000 
     22 CA          0.7890  -22.1379  -48.1500 C.3       10 UNK         0.1400 
     23 CB          1.8966  -22.8057  -48.9769 C.3       10 UNK        -0.1800 
     24 N           1.0420  -22.3517  -46.7254 N.am      10 UNK        -0.5000 
     25 C           0.2148  -21.9642  -45.7462 C.2       9 UNK         0.5000 
     26 O          -0.8696  -21.4196  -45.9570 O.2       9 UNK        -0.5000 
     27 CA          0.6814  -22.1758  -44.2959 C.3       9 UNK         0.1400 
     28 CB          1.7879  -23.2424  -44.1467 C.3       9 UNK        -0.1800 
     29 N           1.1002  -20.9272  -43.6526 N.am      9 UNK        -0.5000 
     30 C           2.0462  -20.0602  -44.0549 C.2       8 UNK         0.5000 
     31 O           2.6113  -20.1262  -45.1474 O.2       8 UNK        -0.5000 
     32 CA          2.4618  -18.9437  -43.0671 C.3       8 UNK         0.1400 
     33 CB          2.0383  -17.5519  -43.5651 C.3       8 UNK        -0.1800 
     34 N           1.9515  -19.1489  -41.7084 N.am      8 UNK        -0.5000 
     35 C           2.3959  -20.0972  -40.8666 C.2       7 UNK         0.5000 
     36 O           3.3716  -20.8098  -41.1042 O.2       7 UNK        -0.5000 
     37 CA          1.6072  -20.3238  -39.5583 C.3       7 UNK         0.1400 
     38 CB          2.3476  -19.6905  -38.3703 C.3       7 UNK        -0.1800 
     39 N           0.2366  -19.8086  -39.5830 N.am      7 UNK        -0.5000 
     40 C          -0.7372  -20.1700  -40.4319 C.2       6 UNK         0.5000 
     41 O          -0.6141  -21.0635  -41.2692 O.2       6 UNK        -0.5000 
     42 CA         -2.0462  -19.3544  -40.3774 C.3       6 UNK         0.1400 
     43 CB         -3.1432  -20.1471  -39.6517 C.3       6 UNK        -0.1800 
     44 N          -1.9029  -18.0387  -39.7405 N.am      6 UNK        -0.5000 
     45 C          -1.1126  -17.0487  -40.1775 C.2       5 UNK         0.5000 
     46 O          -0.4150  -17.1239  -41.1943 O.2       5 UNK        -0.5000 
     47 CA         -1.0387  -15.8012  -39.2880 C.3       5 UNK         0.1400 
     48 CB         -0.2197  -16.0856  -38.0140 C.3       5 UNK        -0.1800 
     49 N          -0.4135  -14.7300  -40.0501 N.am      5 UNK        -0.5000 
     50 C          -0.4964  -13.4216  -39.7899 C.2       4 UNK         0.5000 
     51 O          -1.1019  -12.9518  -38.8255 O.2       4 UNK        -0.5000 
     52 CA          0.2122  -12.4731  -40.7762 C.3       4 UNK         0.1400 
     53 CB          1.5974  -12.0777  -40.2420 C.3       4 UNK        -0.1800 
     54 N           0.3687  -13.0366  -42.1190 N.am      4 UNK        -0.5000 
     55 C          -0.6258  -13.2551  -42.9877 C.2       3 UNK         0.5000 
     56 O          -1.8070  -13.0053  -42.7407 O.2       3 UNK        -0.5000 
     57 CA         -0.2163  -13.8139  -44.3678 C.3       3 UNK         0.1400 
     58 CB         -1.4242  -14.0158  -45.3007 C.3       3 UNK        -0.1800 
     59 N           0.7478  -12.9431  -45.0431 N.am      3 UNK        -0.5000 
     60 C           2.0578  -12.8476  -44.7750 C.2       2 UNK         0.5000 
     61 O           2.6157  -13.4963  -43.8875 O.2       2 UNK        -0.5000 
     62 CA          2.8559  -11.8438  -45.6365 C.3       2 UNK         0.1400 
     63 CB          4.3812  -12.0696  -45.5763 C.3       2 UNK        -0.1800 
     64 N           2.3768  -11.7937  -47.0237 N.am      2 UNK        -0.5000 
     65 C           2.3820  -12.7901  -47.9201 C.2       1 UNK         0.5000 
     66 O           2.9042  -13.8860  -47.7180 O.2       1 UNK        -0.5000 
     67 C           0.1727  -17.6884  -47.2179 C.2       11 UNK         0.5000 
     68 O          -0.1659  -16.5397  -47.4968 O.2       11 UNK        -0.5000 
     69 N          -0.4655  -18.4423  -46.3086 N.am      12 UNK        -0.5000 
     70 CA         -1.7698  -18.1049  -45.7291 C.3       12 UNK         0.1400 
     71 CB         -1.8615  -18.6541  -44.2931 C.3       12 UNK        -0.1800 
     72 C          -2.9351  -18.6419  -46.5891 C.2       12 UNK         0.5000 
     73 O          -4.0916  -18.4000  -46.2429 O.2       12 UNK        -0.5000 
     74 N          -2.6172  -19.3693  -47.6742 N.am      13 UNK        -0.5000 
     75 CA         -3.5274  -20.0588  -48.5928 C.3       13 UNK         0.1400 
     76 CB         -4.4140  -19.0446  -49.3433 C.3       13 UNK        -0.1800 
     77 C          -4.3243  -21.1902  -47.9058 C.2       13 UNK         0.5000 
     78 O          -5.4771  -21.4408  -48.2630 O.2       13 UNK        -0.5000 
     79 N          -3.6965  -21.8483  -46.9198 N.am      14 UNK        -0.5000 
     80 CA         -4.2892  -22.9109  -46.1093 C.3       14 UNK         0.1400 
     81 CB         -3.3430  -23.2296  -44.9408 C.3       14 UNK        -0.1800 
     82 C          -4.5991  -24.1921  -46.9078 C.2       14 UNK         0.5000 
     83 O          -3.9558  -24.4702  -47.9228 O.2       14 UNK        -0.5000 
     84 N          -5.5715  -24.9614  -46.3969 N.am      15 UNK        -0.5000 
     85 CA         -6.0047  -26.2878  -46.8599 C.3       15 UNK         0.1400 
     86 CB         -4.8628  -27.3146  -46.7041 C.3       15 UNK        -0.1800 
     87 C          -6.6227  -26.3175  -48.2751 C.2       15 UNK         0.5000 
     88 O          -6.7408  -27.3969  -48.8568 O.2       15 UNK        -0.5000 
     89 N          -7.0007  -25.1459  -48.8094 N.am      16 UNK        -0.5000 
     90 CA         -7.6186  -24.8714  -50.1172 C.3       16 UNK         0.1400 
     91 CB         -8.9894  -25.5614  -50.2427 C.3       16 UNK        -0.1800 
     92 C          -6.7362  -25.1767  -51.3462 C.2       16 UNK         0.5000 
     93 O          -6.8292  -24.4603  -52.3425 O.2       16 UNK        -0.5000 
     94 N          -5.8765  -26.1984  -51.2637 N.am      17 UNK        -0.5000 
     95 CA         -4.9313  -26.6030  -52.3041 C.3       17 UNK         0.1400 
     96 CB         -4.2077  -27.8833  -51.8621 C.3       17 UNK        -0.1800 
     97 C          -3.9199  -25.4979  -52.6528 C.2       17 UNK         0.5000 
     98 O          -3.6361  -25.2858  -53.8313 O.2       17 UNK        -0.5000 
     99 N          -3.4346  -24.7787  -51.6308 N.am      18 UNK        -0.5000 
    100 CA        -2.5420  -23.6330  -51.8004 C.3       18 UNK         0.1400 
    101 CB        -1.9105  -23.2680  -50.4540 C.3       18 UNK        -0.1800 
    102 C         -3.2555  -22.4179  -52.4188 C.2       18 UNK         0.5000 
    103 O         -2.6574  -21.7200  -53.2359 O.2       18 UNK        -0.5000 
    104 N         -4.5322  -22.2137  -52.0587 N.am      19 UNK        -0.5000 
    105 CA        -5.3938  -21.1753  -52.6300 C.3       19 UNK         0.1400 
    106 CB        -6.7151  -21.0959  -51.8462 C.3       19 UNK        -0.1800 
    107 C         -5.6664  -21.4088  -54.1264 C.2       19 UNK         0.5000 
    108 O         -5.6771  -20.4500  -54.8975 O.2       19 UNK        -0.5000 
    109 N         -5.8499  -22.6806  -54.5079 N.am      20 UNK        -0.5000 
    110 CA        -5.9744  -23.1196  -55.8949 C.3       20 UNK         0.1400 
    111 CB        -6.4760  -24.5715  -55.9341 C.3       20 UNK        -0.1800 
    112 C         -4.6539  -22.9613  -56.6709 C.2       20 UNK         0.5000 
    113 O         -4.6611  -22.3864  -57.7601 O.2       20 UNK        -0.5000 
    114 N         -3.5440  -23.4422  -56.0894 N.am      21 UNK        -0.5000 
    115 CA        -2.2006  -23.3970  -56.6766 C.3       21 UNK         0.1400 
    116 CB        -1.2164  -24.1605  -55.7779 C.3       21 UNK        -0.1800 
    117 C         -1.6906  -21.9690  -56.9451 C.2       21 UNK         0.5000 
    118 O         -1.1273  -21.7177  -58.0114 O.2       21 UNK        -0.5000 
    119 N         -1.9249  -21.0598  -55.9923 N.am      22 UNK        -0.5000 
    120 CA        -1.6284  -19.6230  -56.1113 C.3       22 UNK         0.1400 
    121 C         -2.7066  -18.8103  -56.8924 C.2       22 UNK         0.5000 
    122 N         -3.7530  -19.4179  -57.4389 N.am      22 UNK        -0.7600 
    123 O         -2.5808  -17.5963  -57.0285 O.2       22 UNK        -0.5000 
    124 C124       -1.3116  -18.9920  -54.7297 C.3       23 UNK        -0.0398 
    125 S125        0.2366  -19.6552  -54.0159 S.3       23 UNK        -0.2404 
    126 C126        1.3665  -18.2315  -54.1708 C.3       23 UNK        -0.0205 
    127 H127        2.1945   -9.0018  -51.0654 H         1 UNK         0.0600 
    128 H128        2.1416   -8.0593  -49.5727 H         1 UNK         0.0600 
    129 H129        0.6625   -8.3292  -50.5009 H         1 UNK         0.0600 
    130 H130        2.3777  -11.1554  -50.6666 H         1 UNK         0.3000 
    131 H131        2.1916  -13.1893  -49.9831 H         1 UNK         0.0600 
    132 H132       -0.4240  -12.3143  -48.6556 H         1 UNK         0.0800 
    133 H133        0.1163  -13.9564  -48.6175 H         1 UNK         0.0800 
    134 H134       -1.6655  -15.3130  -51.4894 H         1 UNK         0.0800 
    135 H135       -1.1254  -15.4414  -49.8438 H         1 UNK         0.0800 
    136 H136       -0.5400  -16.5966  -53.0917 H         1 UNK         0.1150 
    137 H137        3.4360  -18.0479  -52.3991 H         1 UNK         0.1150 
    138 H138        1.5999  -15.4121  -49.5781 H         1 UNK         0.1150 
    139 H139        4.7989  -16.7878  -50.7192 H         1 UNK         0.0800 
    140 H140        4.0333  -15.7868  -49.5166 H         1 UNK         0.0800 
    141 H141        2.5959  -16.5568  -47.6893 H         1 UNK         0.0800 
    142 H142        3.0429  -17.9174  -46.6983 H         1 UNK         0.0800 
    143 H143        1.1111  -18.1371  -49.0478 H         1 UNK         0.0600 
    144 H144        2.0195  -20.1220  -47.0985 H         1 UNK         0.3000 
    145 H145       -0.1581  -22.6253  -48.3835 H         1 UNK         0.0600 
    146 H146        1.9465  -23.8764  -48.7786 H         1 UNK         0.0600 
    147 H147        1.7127  -22.6819  -50.0451 H         1 UNK         0.0600 
    148 H148        2.8753  -22.3759  -48.7597 H         1 UNK         0.0600 
    149 H149        1.9300  -22.7613  -46.4745 H         1 UNK         0.3000 
    150 H150       -0.1925  -22.5282  -43.7459 H         1 UNK         0.0600 
    151 H151        1.4877  -24.1888  -44.5984 H         1 UNK         0.0600 
    152 H152        1.9912  -23.4406  -43.0941 H         1 UNK         0.0600 
    153 H153        2.7271  -22.9334  -44.6067 H         1 UNK         0.0600 
    154 H154        0.6572  -20.7621  -42.7545 H         1 UNK         0.3000 
    155 H155        3.5527  -18.9566  -43.0214 H         1 UNK         0.0600 
    156 H156        0.9590  -17.4589  -43.6573 H         1 UNK         0.0600 
    157 H157        2.4684  -17.3346  -44.5417 H         1 UNK         0.0600 
    158 H158        2.3794  -16.7704  -42.8858 H         1 UNK         0.0600 
    159 H159        1.1528  -18.5860  -41.4382 H         1 UNK         0.3000 
    160 H160        1.5514  -21.4020  -39.3963 H         1 UNK         0.0600 
    161 H161        2.4113  -18.6060  -38.4688 H         1 UNK         0.0600 
    162 H162        3.3662  -20.0735  -38.2943 H         1 UNK         0.0600 
    163 H163        1.8477  -19.9142  -37.4277 H         1 UNK         0.0600 
    164 H164        0.0318  -19.0655  -38.9326 H         1 UNK         0.3000 
    165 H165       -2.3673  -19.1916  -41.4077 H         1 UNK         0.0600 
    166 H166       -4.0972  -19.6205  -39.6829 H         1 UNK         0.0600 
    167 H167       -3.2965  -21.1207  -40.1194 H         1 UNK         0.0600 
    168 H168       -2.8883  -20.3217  -38.6057 H         1 UNK         0.0600 
    169 H169       -2.4337  -17.8976  -38.8926 H         1 UNK         0.3000 
    170 H170       -2.0558  -15.5076  -39.0206 H         1 UNK         0.0600 
    171 H171       -0.6663  -16.8874  -37.4251 H         1 UNK         0.0600 
    172 H172        0.8027  -16.3817  -38.2530 H         1 UNK         0.0600 
    173 H173       -0.1691  -15.2077  -37.3698 H         1 UNK         0.0600 
    174 H174        0.0648  -15.0435  -40.8855 H         1 UNK         0.3000 
    175 H175       -0.3948  -11.5688  -40.8559 H         1 UNK         0.0600 
    176 H176        2.2578  -12.9419  -40.1600 H         1 UNK         0.0600 
    177 H177        2.0783  -11.3483  -40.8940 H         1 UNK         0.0600 
    178 H178        1.5209  -11.6269  -39.2516 H         1 UNK         0.0600 
    179 H179        1.3137  -13.2475  -42.4258 H         1 UNK         0.3000 
    180 H180        0.2460  -14.7897  -44.2027 H         1 UNK         0.0600 
    181 H181       -1.1186  -14.4342  -46.2588 H         1 UNK         0.0600 
    182 H182       -1.9419  -13.0766  -45.4996 H         1 UNK         0.0600 
    183 H183       -2.1476  -14.7035  -44.8614 H         1 UNK         0.0600 
    184 H184        0.3714  -12.3424  -45.7613 H         1 UNK         0.3000 
    185 H185        2.6558  -10.8591  -45.2121 H         1 UNK         0.0600 
    186 H186        4.6591  -13.0704  -45.9076 H         1 UNK         0.0600 
    187 H187        4.9112  -11.3498  -46.1999 H         1 UNK         0.0600 
    188 H188        4.7521  -11.9507  -44.5577 H         1 UNK         0.0600 
    189 H189        1.8820  -10.9473  -47.2948 H         1 UNK         0.3000 
    190 H190       -0.1555  -19.3944  -46.1590 H         1 UNK         0.3000 
    191 H191       -1.8798  -17.0206  -45.6777 H         1 UNK         0.0600 
    192 H192       -2.8134  -18.3835  -43.8350 H         1 UNK         0.0600 
    193 H193       -1.0821  -18.2472  -43.6543 H         1 UNK         0.0600 
    194 H194       -1.7869  -19.7402  -44.2598 H         1 UNK         0.0600 
    195 H195       -1.6362  -19.5117  -47.8738 H         1 UNK         0.3000 
    196 H196       -2.8950  -20.5445  -49.3362 H         1 UNK         0.0600 
    197 H197       -5.1590  -18.5912  -48.6891 H         1 UNK         0.0600 
    198 H198       -3.8157  -18.2441  -49.7786 H         1 UNK         0.0600 
    199 H199       -4.9477  -19.5244  -50.1605 H         1 UNK         0.0600 
    200 H200       -2.7403  -21.5957  -46.6918 H         1 UNK         0.3000 
    201 H201       -5.2252  -22.5250  -45.7000 H         1 UNK         0.0600 
    202 H202       -2.4015  -23.6522  -45.2936 H         1 UNK         0.0600 
    203 H203       -3.7896  -23.9533  -44.2581 H         1 UNK         0.0600 
    204 H204       -3.1133  -22.3355  -44.3603 H         1 UNK         0.0600 
    205 H205       -6.0461  -24.6302  -45.5681 H         1 UNK         0.3000 
    206 H206       -6.8069  -26.5902  -46.1853 H         1 UNK         0.0600 
    207 H207       -4.4472  -27.2930  -45.6967 H         1 UNK         0.0600 
    208 H208       -5.2189  -28.3299  -46.8827 H         1 UNK         0.0600 
    209 H209       -4.0501  -27.1269  -47.4065 H         1 UNK         0.0600 
    210 H210       -6.8130  -24.3231  -48.2534 H         1 UNK         0.3000 
    211 H211       -7.7947  -23.7946  -50.1321 H         1 UNK         0.0600 
    212 H212       -9.4900  -25.2645  -51.1651 H         1 UNK         0.0600 
    213 H213       -9.6451  -25.2893  -49.4156 H         1 UNK         0.0600 
    214 H214       -8.9002  -26.6479  -50.2578 H         1 UNK         0.0600 
    215 H215       -5.9159  -26.7672  -50.4229 H         1 UNK         0.3000 
    216 H216       -5.5043  -26.8250  -53.2066 H         1 UNK         0.0600 
    217 H217       -3.6464  -27.7309  -50.9393 H         1 UNK         0.0600 
    218 H218       -3.5037  -28.2177  -52.6253 H         1 UNK         0.0600 
    219 H219       -4.9143  -28.6962  -51.6932 H         1 UNK         0.0600 
    220 H220       -3.7196  -25.0067  -50.6881 H         1 UNK         0.3000 
    221 H221       -1.7365  -23.9259  -52.4765 H         1 UNK         0.0600 
    222 H222       -1.3510  -24.1067  -50.0396 H         1 UNK         0.0600 
    223 H223       -2.6606  -22.9706  -49.7224 H         1 UNK         0.0600 
    224 H224       -1.2156  -22.4372  -50.5749 H         1 UNK         0.0600 
    225 H225       -4.9641  -22.8598  -51.4158 H         1 UNK         0.3000 
    226 H226       -4.8741  -20.2205  -52.5270 H         1 UNK         0.0600 
    227 H227       -7.3620  -21.9494  -52.0457 H         1 UNK         0.0600 
    228 H228       -6.5493  -21.0547  -50.7707 H         1 UNK         0.0600 
    229 H229       -7.2718  -20.2006  -52.1248 H         1 UNK         0.0600 
    230 H230       -5.8975  -23.3979  -53.7919 H         1 UNK         0.3000 
    231 H231       -6.7249  -22.4926  -56.3809 H         1 UNK         0.0600 
    232 H232       -5.7809  -25.2561  -55.4483 H         1 UNK         0.0600 
    233 H233       -6.6063  -24.9109  -56.9623 H         1 UNK         0.0600 
    234 H234       -7.4401  -24.6675  -55.4341 H         1 UNK         0.0600 
    235 H235       -3.6302  -23.9338  -55.2039 H         1 UNK         0.3000 
    236 H236       -2.2493  -23.9139  -57.6371 H         1 UNK         0.0600 
    237 H237       -1.5220  -25.1989  -55.6489 H         1 UNK         0.0600 
    238 H238       -0.2159  -24.1679  -56.2121 H         1 UNK         0.0600 
    239 H239       -1.1415  -23.7060  -54.7901 H         1 UNK         0.0600 
    240 H240       -2.3508  -21.3545  -55.1177 H         1 UNK         0.3000 
    241 H241       -0.7250  -19.5197  -56.7154 H         1 UNK         0.0600 
    242 H242       -4.4340  -18.8693  -57.9389 H         1 UNK         0.3800 
    243 H243       -3.8822  -20.4179  -57.3581 H         1 UNK         0.3800 
    244 H244       -2.1284  -19.1757  -54.0303 H         1 UNK         0.0800 
    245 H245       -1.2281  -17.9084  -54.8107 H         1 UNK         0.0800 
    246 H246        1.0706  -17.5920  -55.0034 H         1 UNK         0.0800 
    247 H247        2.3564  -18.6119  -54.4267 H         1 UNK         0.0800 
@<TRIPOS>BOND
     1    1    2 1    
     2    1  127 1    
     3    1  128 1    
     4    1  129 1    
     5    2    3 2    
     6    2    4 am   BACKBONE|DICT|INTERRES
     7    4    5 1    
     8    4  130 1    
     9    5    6 1    
    10    5   65 1    
    11    5  131 1    
    12    6    7 1    
    13    6  132 1    
    14    6  133 1    
    15    7    8 1    
    16    8    9 1    
    17    8  134 1    
    18    8  135 1    
    19    9   10 ar   
    20    9   14 ar   
    21   10   11 ar   
    22   10  136 1    
    23   11   12 ar   
    24   11  126 1    
    25   12   13 ar   
    26   12  137 1    
    27   13   14 ar   
    28   13   15 1    
    29   14  138 1    
    30   15   16 1    
    31   15  139 1    
    32   15  140 1    
    33   16   17 1    
    34   17   18 1    
    35   17  141 1    
    36   17  142 1    
    37   18   19 1    
    38   18   67 1    
    39   18  143 1    
    40   19   20 am   BACKBONE|DICT|INTERRES
    41   19  144 1    
    42   20   21 2    
    43   20   22 1    
    44   22   23 1    
    45   22   24 1    
    46   22  145 1    
    47   23  146 1    
    48   23  147 1    
    49   23  148 1    
    50   24   25 am   BACKBONE|DICT|INTERRES
    51   24  149 1    
    52   25   26 2    
    53   25   27 1    
    54   27   28 1    
    55   27   29 1    
    56   27  150 1    
    57   28  151 1    
    58   28  152 1    
    59   28  153 1    
    60   29   30 am   BACKBONE|DICT|INTERRES
    61   29  154 1    
    62   30   31 2    
    63   30   32 1    
    64   32   33 1    
    65   32   34 1    
    66   32  155 1    
    67   33  156 1    
    68   33  157 1    
    69   33  158 1    
    70   34   35 am   BACKBONE|DICT|INTERRES
    71   34  159 1    
    72   35   36 2    
    73   35   37 1    
    74   37   38 1    
    75   37   39 1    
    76   37  160 1    
    77   38  161 1    
    78   38  162 1    
    79   38  163 1    
    80   39   40 am   BACKBONE|DICT|INTERRES
    81   39  164 1    
    82   40   41 2    
    83   40   42 1    
    84   42   43 1    
    85   42   44 1    
    86   42  165 1    
    87   43  166 1    
    88   43  167 1    
    89   43  168 1    
    90   44   45 am   BACKBONE|DICT|INTERRES
    91   44  169 1    
    92   45   46 2    
    93   45   47 1    
    94   47   48 1    
    95   47   49 1    
    96   47  170 1    
    97   48  171 1    
    98   48  172 1    
    99   48  173 1    
   100   49   50 am   BACKBONE|DICT|INTERRES
   101   49  174 1    
   102   50   51 2    
   103   50   52 1    
   104   52   53 1    
   105   52   54 1    
   106   52  175 1    
   107   53  176 1    
   108   53  177 1    
   109   53  178 1    
   110   54   55 am   BACKBONE|DICT|INTERRES
   111   54  179 1    
   112   55   56 2    
   113   55   57 1    
   114   57   58 1    
   115   57   59 1    
   116   57  180 1    
   117   58  181 1    
   118   58  182 1    
   119   58  183 1    
   120   59   60 am   BACKBONE|DICT|INTERRES
   121   59  184 1    
   122   60   61 2    
   123   60   62 1    
   124   62   63 1    
   125   62   64 1    
   126   62  185 1    
   127   63  186 1    
   128   63  187 1    
   129   63  188 1    
   130   64   65 am   BACKBONE|DICT|INTERRES
   131   64  189 1    
   132   65   66 2    
   133   67   68 2    
   134   67   69 am   BACKBONE|DICT|INTERRES
   135   69   70 1    
   136   69  190 1    
   137   70   71 1    
   138   70   72 1    
   139   70  191 1    
   140   71  192 1    
   141   71  193 1    
   142   71  194 1    
   143   72   73 2    
   144   72   74 am   BACKBONE|DICT|INTERRES
   145   74   75 1    
   146   74  195 1    
   147   75   76 1    
   148   75   77 1    
   149   75  196 1    
   150   76  197 1    
   151   76  198 1    
   152   76  199 1    
   153   77   78 2    
   154   77   79 am   BACKBONE|DICT|INTERRES
   155   79   80 1    
   156   79  200 1    
   157   80   81 1    
   158   80   82 1    
   159   80  201 1    
   160   81  202 1    
   161   81  203 1    
   162   81  204 1    
   163   82   83 2    
   164   82   84 am   BACKBONE|DICT|INTERRES
   165   84   85 1    
   166   84  205 1    
   167   85   86 1    
   168   85   87 1    
   169   85  206 1    
   170   86  207 1    
   171   86  208 1    
   172   86  209 1    
   173   87   88 2    
   174   87   89 am   BACKBONE|DICT|INTERRES
   175   89   90 1    
   176   89  210 1    
   177   90   91 1    
   178   90   92 1    
   179   90  211 1    
   180   91  212 1    
   181   91  213 1    
   182   91  214 1    
   183   92   93 2    
   184   92   94 am   BACKBONE|DICT|INTERRES
   185   94   95 1    
   186   94  215 1    
   187   95   96 1    
   188   95   97 1    
   189   95  216 1    
   190   96  217 1    
   191   96  218 1    
   192   96  219 1    
   193   97   98 2    
   194   97   99 am   BACKBONE|DICT|INTERRES
   195   99  100 1    
   196   99  220 1    
   197  100  101 1    
   198  100  102 1    
   199  100  221 1    
   200  101  222 1    
   201  101  223 1    
   202  101  224 1    
   203  102  103 2    
   204  102  104 am   BACKBONE|DICT|INTERRES
   205  104  105 1    
   206  104  225 1    
   207  105  106 1    
   208  105  107 1    
   209  105  226 1    
   210  106  227 1    
   211  106  228 1    
   212  106  229 1    
   213  107  108 2    
   214  107  109 am   BACKBONE|DICT|INTERRES
   215  109  110 1    
   216  109  230 1    
   217  110  111 1    
   218  110  112 1    
   219  110  231 1    
   220  111  232 1    
   221  111  233 1    
   222  111  234 1    
   223  112  113 2    
   224  112  114 am   BACKBONE|DICT|INTERRES
   225  114  115 1    
   226  114  235 1    
   227  115  116 1    
   228  115  117 1    
   229  115  236 1    
   230  116  237 1    
   231  116  238 1    
   232  116  239 1    
   233  117  118 2    
   234  117  119 am   BACKBONE|DICT|INTERRES
   235  119  120 1    
   236  119  240 1    
   237  120  121 1    
   238  120  124 1    
   239  120  241 1    
   240  121  122 am   BACKBONE|DICT|INTERRES
   241  121  123 2    
   242  122  242 1    
   243  122  243 1    
   244  124  125 1    
   245  124  244 1    
   246  124  245 1    
   247  125  126 1    
   248  126  246 1    
   249  126  247 1    
@<TRIPOS>SUBSTRUCTURE
     1 UNK         1 GROUP             0       ****    0 ROOT    
