@<TRIPOS>MOLECULE
3R540
247   249    1
SMALL
USER_CHARGES


@<TRIPOS>ATOM
      1 CA          4.0823  -11.9268  -49.0988 C.3       0 UNK        -0.1800 
      2 C           2.7184  -12.4138  -49.5672 C.2       0 UNK         0.5000 
      3 O           2.0009  -11.6697  -50.2353 O.2       0 UNK        -0.5000 
      4 N           2.3609  -13.6553  -49.2105 N.am      1 UNK        -0.5000 
      5 CA          1.1037  -14.3373  -49.5571 C.3       1 UNK         0.1400 
      6 C6          0.9456  -14.6239  -51.0773 C.3       23 UNK        -0.0398 
      7 S7          2.1360  -15.8870  -51.6411 S.3       23 UNK        -0.2404 
      8 C8          1.0739  -17.3595  -51.5316 C.3       23 UNK        -0.0205 
      9 C9          1.8606  -18.6498  -51.6871 C.ar      23 UNK        -0.0193 
     10 C10         2.1847  -19.1211  -52.9600 C.ar      23 UNK        -0.1150 
     11 C11         2.8966  -20.3126  -53.1154 C.ar      23 UNK        -0.0193 
     12 C12         3.2794  -21.0358  -51.9818 C.ar      23 UNK        -0.1150 
     13 C13         2.9669  -20.5791  -50.6964 C.ar      23 UNK        -0.0193 
     14 C14         2.2542  -19.3788  -50.5604 C.ar      23 UNK        -0.1150 
     15 C15         3.4654  -21.3981  -49.5018 C.3       23 UNK        -0.0205 
     16 S16         2.8434  -20.9032  -47.8564 S.3       23 UNK        -0.2404 
     17 C17         1.1926  -21.6790  -47.8340 C.3       23 UNK        -0.0398 
     18 CA          1.1788  -23.0487  -47.1108 C.3       11 UNK         0.1400 
     19 N           1.6751  -22.9471  -45.7359 N.am      11 UNK        -0.5000 
     20 C           2.0984  -23.9748  -44.9903 C.2       10 UNK         0.5000 
     21 O           2.2384  -25.1200  -45.4260 O.2       10 UNK        -0.5000 
     22 CA          2.3963  -23.6615  -43.5090 C.3       10 UNK         0.1400 
     23 CB          3.1491  -24.7941  -42.7794 C.3       10 UNK        -0.1800 
     24 N           3.0698  -22.3739  -43.3232 N.am      10 UNK        -0.5000 
     25 C           4.2872  -22.0124  -43.7548 C.2       9 UNK         0.5000 
     26 O           5.0530  -22.7649  -44.3586 O.2       9 UNK        -0.5000 
     27 CA          4.7364  -20.5632  -43.4687 C.3       9 UNK         0.1400 
     28 CB          4.8216  -19.7593  -44.7753 C.3       9 UNK        -0.1800 
     29 N           3.8641  -19.8468  -42.5349 N.am      9 UNK        -0.5000 
     30 C           3.8147  -20.0443  -41.2110 C.2       8 UNK         0.5000 
     31 O           4.5551  -20.8215  -40.6076 O.2       8 UNK        -0.5000 
     32 CA          2.7272  -19.2719  -40.4379 C.3       8 UNK         0.1400 
     33 CB          3.2199  -17.8679  -40.0561 C.3       8 UNK        -0.1800 
     34 N           1.4646  -19.1654  -41.1757 N.am      8 UNK        -0.5000 
     35 C           0.6823  -20.2070  -41.4968 C.2       7 UNK         0.5000 
     36 O           0.9300  -21.3702  -41.1795 O.2       7 UNK        -0.5000 
     37 CA         -0.5581  -19.9115  -42.3592 C.3       7 UNK         0.1400 
     38 CB         -1.7013  -19.3468  -41.5030 C.3       7 UNK        -0.1800 
     39 N          -0.2636  -18.9994  -43.4645 N.am      7 UNK        -0.5000 
     40 C           0.5610  -19.2900  -44.4807 C.2       6 UNK         0.5000 
     41 O           1.0957  -20.3879  -44.6294 O.2       6 UNK        -0.5000 
     42 CA          0.8801  -18.1581  -45.4729 C.3       6 UNK         0.1400 
     43 CB         -0.2180  -18.0244  -46.5327 C.3       6 UNK        -0.1800 
     44 N           1.0619  -16.8663  -44.8197 N.am      6 UNK        -0.5000 
     45 C           2.0303  -16.5712  -43.9451 C.2       5 UNK         0.5000 
     46 O           2.9173  -17.3547  -43.6128 O.2       5 UNK        -0.5000 
     47 CA          1.9586  -15.1801  -43.2958 C.3       5 UNK         0.1400 
     48 CB          2.5020  -14.1008  -44.2454 C.3       5 UNK        -0.1800 
     49 N           0.5931  -14.8423  -42.8922 N.am      5 UNK        -0.5000 
     50 C          -0.0725  -15.4474  -41.8983 C.2       4 UNK         0.5000 
     51 O           0.4069  -16.3397  -41.1981 O.2       4 UNK        -0.5000 
     52 CA         -1.5289  -15.0012  -41.6718 C.3       4 UNK         0.1400 
     53 CB         -1.5783  -13.7262  -40.8170 C.3       4 UNK        -0.1800 
     54 N          -2.2549  -14.7755  -42.9235 N.am      4 UNK        -0.5000 
     55 C          -2.5856  -15.7469  -43.7857 C.2       3 UNK         0.5000 
     56 O          -2.3143  -16.9339  -43.6130 O.2       3 UNK        -0.5000 
     57 CA         -3.2855  -15.3101  -45.0865 C.3       3 UNK         0.1400 
     58 CB         -4.7897  -15.1065  -44.8542 C.3       3 UNK        -0.1800 
     59 N          -2.7140  -14.1041  -45.6992 N.am      3 UNK        -0.5000 
     60 C          -1.4339  -13.9835  -46.0731 C.2       2 UNK         0.5000 
     61 O          -0.5710  -14.8296  -45.8311 O.2       2 UNK        -0.5000 
     62 CA         -1.0272  -12.7031  -46.8232 C.3       2 UNK         0.1400 
     63 CB         -0.5236  -11.6395  -45.8359 C.3       2 UNK        -0.1800 
     64 N           0.0435  -13.0241  -47.7666 N.am      2 UNK        -0.5000 
     65 C          -0.1465  -13.6894  -48.9146 C.2       1 UNK         0.5000 
     66 O          -1.2583  -13.8510  -49.4209 O.2       1 UNK        -0.5000 
     67 C          -0.2394  -23.6653  -47.1297 C.2       11 UNK         0.5000 
     68 O          -0.8946  -23.7502  -46.0872 O.2       11 UNK        -0.5000 
     69 N          -0.6834  -24.0896  -48.3198 N.am      12 UNK        -0.5000 
     70 CA         -1.9887  -24.7037  -48.5602 C.3       12 UNK         0.1400 
     71 CB         -1.8795  -25.6045  -49.8062 C.3       12 UNK        -0.1800 
     72 C          -3.1093  -23.6431  -48.6495 C.2       12 UNK         0.5000 
     73 O          -3.3842  -22.9590  -47.6629 O.2       12 UNK        -0.5000 
     74 N          -3.7488  -23.5221  -49.8216 N.am      13 UNK        -0.5000 
     75 CA         -4.8981  -22.6521  -50.0948 C.3       13 UNK         0.1400 
     76 CB         -5.3424  -22.8662  -51.5475 C.3       13 UNK        -0.1800 
     77 C          -4.6658  -21.1578  -49.7977 C.2       13 UNK         0.5000 
     78 O          -5.6168  -20.4584  -49.4459 O.2       13 UNK        -0.5000 
     79 N          -3.4050  -20.7105  -49.8788 N.am      14 UNK        -0.5000 
     80 CA         -2.9421  -19.3768  -49.4972 C.3       14 UNK         0.1400 
     81 CB         -1.4205  -19.3032  -49.6761 C.3       14 UNK        -0.1800 
     82 C          -3.2981  -18.9786  -48.0532 C.2       14 UNK         0.5000 
     83 O          -3.6108  -17.8136  -47.8149 O.2       14 UNK        -0.5000 
     84 N          -3.2805  -19.9464  -47.1238 N.am      15 UNK        -0.5000 
     85 CA         -3.6114  -19.7379  -45.7107 C.3       15 UNK         0.1400 
     86 CB         -3.1809  -20.9720  -44.9054 C.3       15 UNK        -0.1800 
     87 C          -5.1017  -19.4185  -45.4762 C.2       15 UNK         0.5000 
     88 O          -5.4369  -18.7931  -44.4708 O.2       15 UNK        -0.5000 
     89 N          -5.9614  -19.8305  -46.4170 N.am      16 UNK        -0.5000 
     90 CA         -7.3889  -19.5131  -46.4551 C.3       16 UNK         0.1400 
     91 CB         -8.1474  -20.7741  -46.9035 C.3       16 UNK        -0.1800 
     92 C          -7.6965  -18.3363  -47.4045 C.2       16 UNK         0.5000 
     93 O          -8.8573  -17.9365  -47.5008 O.2       16 UNK        -0.5000 
     94 N          -6.6714  -17.8304  -48.1108 N.am      17 UNK        -0.5000 
     95 CA         -6.7296  -16.8595  -49.2102 C.3       17 UNK         0.1400 
     96 CB         -7.1570  -15.4699  -48.6948 C.3       17 UNK        -0.1800 
     97 C          -7.5785  -17.3526  -50.4053 C.2       17 UNK         0.5000 
     98 O          -8.2227  -16.5483  -51.0820 O.2       17 UNK        -0.5000 
     99 N          -7.5756  -18.6718  -50.6318 N.am      18 UNK        -0.5000 
    100 CA        -8.3300  -19.3497  -51.6811 C.3       18 UNK         0.1400 
    101 CB        -8.7773  -20.7191  -51.1418 C.3       18 UNK        -0.1800 
    102 C         -7.4993  -19.4965  -52.9693 C.2       18 UNK         0.5000 
    103 O         -6.2778  -19.3183  -52.9524 O.2       18 UNK        -0.5000 
    104 N         -8.1909  -19.8289  -54.0679 N.am      19 UNK        -0.5000 
    105 CA        -7.6116  -20.1048  -55.3848 C.3       19 UNK         0.1400 
    106 CB        -8.7516  -20.2608  -56.4035 C.3       19 UNK        -0.1800 
    107 C         -6.7134  -21.3577  -55.3835 C.2       19 UNK         0.5000 
    108 O         -6.9236  -22.2601  -54.5698 O.2       19 UNK        -0.5000 
    109 N         -5.7393  -21.3823  -56.3072 N.am      20 UNK        -0.5000 
    110 CA        -4.6493  -22.3653  -56.4078 C.3       20 UNK         0.1400 
    111 CB        -5.1855  -23.7712  -56.7516 C.3       20 UNK        -0.1800 
    112 C         -3.7575  -22.3389  -55.1480 C.2       20 UNK         0.5000 
    113 O         -3.4510  -23.3858  -54.5742 O.2       20 UNK        -0.5000 
    114 N         -3.3962  -21.1105  -54.7438 N.am      21 UNK        -0.5000 
    115 CA        -2.7728  -20.7049  -53.4795 C.3       21 UNK         0.1400 
    116 CB        -2.3194  -19.2425  -53.6174 C.3       21 UNK        -0.1800 
    117 C         -1.6116  -21.5877  -52.9844 C.2       21 UNK         0.5000 
    118 O         -1.5365  -21.8793  -51.7892 O.2       21 UNK        -0.5000 
    119 N         -0.7517  -22.0136  -53.9155 N.am      22 UNK        -0.5000 
    120 CA         0.4006  -22.8877  -53.6520 C.3       22 UNK         0.1400 
    121 C          0.0362  -24.3471  -53.2459 C.2       22 UNK         0.5000 
    122 N         -1.1930  -24.8117  -53.4414 N.am      22 UNK        -0.7600 
    123 O          0.8897  -25.0724  -52.7434 O.2       22 UNK        -0.5000 
    124 C124        1.4096  -22.9028  -54.8312 C.3       23 UNK        -0.0398 
    125 S125        1.8243  -21.2541  -55.5000 S.3       23 UNK        -0.2404 
    126 C126        3.2790  -20.7925  -54.5081 C.3       23 UNK        -0.0205 
    127 H127        4.6051  -12.6837  -48.5135 H         1 UNK         0.0600 
    128 H128        3.9707  -11.0362  -48.4804 H         1 UNK         0.0600 
    129 H129        4.7041  -11.6718  -49.9570 H         1 UNK         0.0600 
    130 H130        3.0098  -14.2094  -48.6691 H         1 UNK         0.3000 
    131 H131        1.1641  -15.3058  -49.0575 H         1 UNK         0.0600 
    132 H132       -0.0578  -14.9765  -51.3208 H         1 UNK         0.0800 
    133 H133        1.0862  -13.7161  -51.6644 H         1 UNK         0.0800 
    134 H134        0.2936  -17.3066  -52.2925 H         1 UNK         0.0800 
    135 H135        0.5688  -17.3496  -50.5672 H         1 UNK         0.0800 
    136 H136        1.8871  -18.5569  -53.8329 H         1 UNK         0.1150 
    137 H137        3.8394  -21.9532  -52.0994 H         1 UNK         0.1150 
    138 H138        2.0073  -18.9943  -49.5821 H         1 UNK         0.1150 
    139 H139        3.2367  -22.4530  -49.6611 H         1 UNK         0.0800 
    140 H140        4.5533  -21.3233  -49.4782 H         1 UNK         0.0800 
    141 H141        0.8362  -21.7717  -48.8614 H         1 UNK         0.0800 
    142 H142        0.5100  -20.9933  -47.3344 H         1 UNK         0.0800 
    143 H143        1.8384  -23.7262  -47.6572 H         1 UNK         0.0600 
    144 H144        1.5629  -22.0370  -45.2936 H         1 UNK         0.3000 
    145 H145        1.4229  -23.5579  -43.0274 H         1 UNK         0.0600 
    146 H146        3.3277  -24.5384  -41.7349 H         1 UNK         0.0600 
    147 H147        2.5695  -25.7178  -42.7920 H         1 UNK         0.0600 
    148 H148        4.1123  -25.0081  -43.2429 H         1 UNK         0.0600 
    149 H149        2.5159  -21.6662  -42.8586 H         1 UNK         0.3000 
    150 H150        5.7371  -20.6141  -43.0350 H         1 UNK         0.0600 
    151 H151        5.4723  -20.2493  -45.5007 H         1 UNK         0.0600 
    152 H152        5.2233  -18.7613  -44.5996 H         1 UNK         0.0600 
    153 H153        3.8407  -19.6480  -45.2374 H         1 UNK         0.0600 
    154 H154        3.2744  -19.1235  -42.9379 H         1 UNK         0.3000 
    155 H155        2.5269  -19.8209  -39.5155 H         1 UNK         0.0600 
    156 H156        4.1453  -17.9213  -39.4815 H         1 UNK         0.0600 
    157 H157        2.4852  -17.3463  -39.4424 H         1 UNK         0.0600 
    158 H158        3.4145  -17.2550  -40.9363 H         1 UNK         0.0600 
    159 H159        1.1723  -18.2310  -41.4431 H         1 UNK         0.3000 
    160 H160       -0.8941  -20.8577  -42.7881 H         1 UNK         0.0600 
    161 H161       -1.4422  -18.3807  -41.0696 H         1 UNK         0.0600 
    162 H162       -1.9443  -20.0217  -40.6816 H         1 UNK         0.0600 
    163 H163       -2.6081  -19.2141  -42.0931 H         1 UNK         0.0600 
    164 H164       -0.7270  -18.0961  -43.4452 H         1 UNK         0.3000 
    165 H165        1.8124  -18.4164  -45.9788 H         1 UNK         0.0600 
    166 H166        0.0899  -17.3537  -47.3349 H         1 UNK         0.0600 
    167 H167       -0.4505  -18.9887  -46.9778 H         1 UNK         0.0600 
    168 H168       -1.1403  -17.6300  -46.1074 H         1 UNK         0.0600 
    169 H169        0.3914  -16.1394  -45.0645 H         1 UNK         0.3000 
    170 H170        2.5853  -15.1940  -42.4016 H         1 UNK         0.0600 
    171 H171        3.5357  -14.3125  -44.5213 H         1 UNK         0.0600 
    172 H172        1.9242  -14.0413  -45.1678 H         1 UNK         0.0600 
    173 H173        2.4864  -13.1174  -43.7752 H         1 UNK         0.0600 
    174 H174        0.1046  -14.1668  -43.4602 H         1 UNK         0.3000 
    175 H175       -2.0374  -15.7975  -41.1239 H         1 UNK         0.0600 
    176 H176       -1.0577  -13.8718  -39.8694 H         1 UNK         0.0600 
    177 H177       -1.1093  -12.8813  -41.3229 H         1 UNK         0.0600 
    178 H178       -2.6061  -13.4488  -40.5822 H         1 UNK         0.0600 
    179 H179       -2.5033  -13.8234  -43.1476 H         1 UNK         0.3000 
    180 H180       -3.1650  -16.1241  -45.8032 H         1 UNK         0.0600 
    181 H181       -5.2401  -15.9965  -44.4127 H         1 UNK         0.0600 
    182 H182       -4.9857  -14.2705  -44.1819 H         1 UNK         0.0600 
    183 H183       -5.3101  -14.9144  -45.7918 H         1 UNK         0.0600 
    184 H184       -3.3615  -13.3606  -45.9172 H         1 UNK         0.3000 
    185 H185       -1.8882  -12.3090  -47.3670 H         1 UNK         0.0600 
    186 H186        0.3313  -11.9937  -45.2587 H         1 UNK         0.0600 
    187 H187       -0.2212  -10.7312  -46.3576 H         1 UNK         0.0600 
    188 H188       -1.3055  -11.3618  -45.1280 H         1 UNK         0.0600 
    189 H189        0.9854  -12.9639  -47.4106 H         1 UNK         0.3000 
    190 H190       -0.0976  -23.9746  -49.1339 H         1 UNK         0.3000 
    191 H191       -2.2360  -25.3472  -47.7132 H         1 UNK         0.0600 
    192 H192       -1.6014  -25.0351  -50.6929 H         1 UNK         0.0600 
    193 H193       -2.8205  -26.1165  -50.0124 H         1 UNK         0.0600 
    194 H194       -1.1237  -26.3770  -49.6628 H         1 UNK         0.0600 
    195 H195       -3.4375  -24.0968  -50.5911 H         1 UNK         0.3000 
    196 H196       -5.7128  -22.9722  -49.4423 H         1 UNK         0.0600 
    197 H197       -6.0710  -22.1212  -51.8658 H         1 UNK         0.0600 
    198 H198       -5.8014  -23.8461  -51.6787 H         1 UNK         0.0600 
    199 H199       -4.4996  -22.8050  -52.2322 H         1 UNK         0.0600 
    200 H200       -2.6976  -21.3455  -50.2352 H         1 UNK         0.3000 
    201 H201       -3.4114  -18.6562  -50.1700 H         1 UNK         0.0600 
    202 H202       -1.0457  -18.3302  -49.3614 H         1 UNK         0.0600 
    203 H203       -0.9136  -20.0616  -49.0818 H         1 UNK         0.0600 
    204 H204       -1.1194  -19.4500  -50.7100 H         1 UNK         0.0600 
    205 H205       -3.0865  -20.9026  -47.4042 H         1 UNK         0.3000 
    206 H206       -3.0360  -18.8840  -45.3502 H         1 UNK         0.0600 
    207 H207       -2.1177  -21.1769  -45.0345 H         1 UNK         0.0600 
    208 H208       -3.3584  -20.8242  -43.8400 H         1 UNK         0.0600 
    209 H209       -3.7320  -21.8627  -45.2083 H         1 UNK         0.0600 
    210 H210       -5.5976  -20.3225  -47.2237 H         1 UNK         0.3000 
    211 H211       -7.7431  -19.2354  -45.4604 H         1 UNK         0.0600 
    212 H212       -9.2248  -20.6048  -46.9057 H         1 UNK         0.0600 
    213 H213       -7.9529  -21.6106  -46.2321 H         1 UNK         0.0600 
    214 H214       -7.8619  -21.0793  -47.9111 H         1 UNK         0.0600 
    215 H215       -5.7497  -18.2053  -47.9280 H         1 UNK         0.3000 
    216 H216       -5.7093  -16.7698  -49.5857 H         1 UNK         0.0600 
    217 H217       -7.0698  -14.7177  -49.4795 H         1 UNK         0.0600 
    218 H218       -6.5259  -15.1466  -47.8679 H         1 UNK         0.0600 
    219 H219       -8.1915  -15.4645  -48.3508 H         1 UNK         0.0600 
    220 H220       -6.9482  -19.2581  -50.0877 H         1 UNK         0.3000 
    221 H221       -9.2241  -18.7706  -51.9217 H         1 UNK         0.0600 
    222 H222       -7.9326  -21.3198  -50.8074 H         1 UNK         0.0600 
    223 H223       -9.4504  -20.6005  -50.2924 H         1 UNK         0.0600 
    224 H224       -9.3112  -21.2936  -51.8996 H         1 UNK         0.0600 
    225 H225       -9.1845  -19.9845  -53.9837 H         1 UNK         0.3000 
    226 H226       -7.0033  -19.2433  -55.6682 H         1 UNK         0.0600 
    227 H227       -9.3676  -19.3624  -56.4483 H         1 UNK         0.0600 
    228 H228       -8.3609  -20.4347  -57.4070 H         1 UNK         0.0600 
    229 H229       -9.4003  -21.1017  -56.1546 H         1 UNK         0.0600 
    230 H230       -5.6786  -20.6065  -56.9523 H         1 UNK         0.3000 
    231 H231       -4.0175  -22.0459  -57.2379 H         1 UNK         0.0600 
    232 H232       -5.8144  -23.7466  -57.6413 H         1 UNK         0.0600 
    233 H233       -5.7721  -24.1972  -55.9373 H         1 UNK         0.0600 
    234 H234       -4.3643  -24.4600  -56.9529 H         1 UNK         0.0600 
    235 H235       -3.7122  -20.3423  -55.3166 H         1 UNK         0.3000 
    236 H236       -3.5557  -20.7361  -52.7216 H         1 UNK         0.0600 
    237 H237       -3.1605  -18.5915  -53.8575 H         1 UNK         0.0600 
    238 H238       -1.8840  -18.8673  -52.6937 H         1 UNK         0.0600 
    239 H239       -1.5695  -19.1266  -54.4010 H         1 UNK         0.0600 
    240 H240       -0.8930  -21.7352  -54.8747 H         1 UNK         0.3000 
    241 H241        0.9162  -22.4639  -52.7890 H         1 UNK         0.0600 
    242 H242       -1.9195  -24.2279  -53.8494 H         1 UNK         0.3800 
    243 H243       -1.4064  -25.7618  -53.1866 H         1 UNK         0.3800 
    244 H244        2.3307  -23.4082  -54.5361 H         1 UNK         0.0800 
    245 H245        1.0027  -23.4862  -55.6591 H         1 UNK         0.0800 
    246 H246        3.8071  -19.9871  -55.0205 H         1 UNK         0.0800 
    247 H247        3.9770  -21.6297  -54.4615 H         1 UNK         0.0800 
@<TRIPOS>BOND
     1    1    2 1    
     2    1  127 1    
     3    1  128 1    
     4    1  129 1    
     5    2    3 2    
     6    2    4 am   BACKBONE|DICT|INTERRES
     7    4    5 1    
     8    4  130 1    
     9    5    6 1    
    10    5   65 1    
    11    5  131 1    
    12    6    7 1    
    13    6  132 1    
    14    6  133 1    
    15    7    8 1    
    16    8    9 1    
    17    8  134 1    
    18    8  135 1    
    19    9   10 ar   
    20    9   14 ar   
    21   10   11 ar   
    22   10  136 1    
    23   11   12 ar   
    24   11  126 1    
    25   12   13 ar   
    26   12  137 1    
    27   13   14 ar   
    28   13   15 1    
    29   14  138 1    
    30   15   16 1    
    31   15  139 1    
    32   15  140 1    
    33   16   17 1    
    34   17   18 1    
    35   17  141 1    
    36   17  142 1    
    37   18   19 1    
    38   18   67 1    
    39   18  143 1    
    40   19   20 am   BACKBONE|DICT|INTERRES
    41   19  144 1    
    42   20   21 2    
    43   20   22 1    
    44   22   23 1    
    45   22   24 1    
    46   22  145 1    
    47   23  146 1    
    48   23  147 1    
    49   23  148 1    
    50   24   25 am   BACKBONE|DICT|INTERRES
    51   24  149 1    
    52   25   26 2    
    53   25   27 1    
    54   27   28 1    
    55   27   29 1    
    56   27  150 1    
    57   28  151 1    
    58   28  152 1    
    59   28  153 1    
    60   29   30 am   BACKBONE|DICT|INTERRES
    61   29  154 1    
    62   30   31 2    
    63   30   32 1    
    64   32   33 1    
    65   32   34 1    
    66   32  155 1    
    67   33  156 1    
    68   33  157 1    
    69   33  158 1    
    70   34   35 am   BACKBONE|DICT|INTERRES
    71   34  159 1    
    72   35   36 2    
    73   35   37 1    
    74   37   38 1    
    75   37   39 1    
    76   37  160 1    
    77   38  161 1    
    78   38  162 1    
    79   38  163 1    
    80   39   40 am   BACKBONE|DICT|INTERRES
    81   39  164 1    
    82   40   41 2    
    83   40   42 1    
    84   42   43 1    
    85   42   44 1    
    86   42  165 1    
    87   43  166 1    
    88   43  167 1    
    89   43  168 1    
    90   44   45 am   BACKBONE|DICT|INTERRES
    91   44  169 1    
    92   45   46 2    
    93   45   47 1    
    94   47   48 1    
    95   47   49 1    
    96   47  170 1    
    97   48  171 1    
    98   48  172 1    
    99   48  173 1    
   100   49   50 am   BACKBONE|DICT|INTERRES
   101   49  174 1    
   102   50   51 2    
   103   50   52 1    
   104   52   53 1    
   105   52   54 1    
   106   52  175 1    
   107   53  176 1    
   108   53  177 1    
   109   53  178 1    
   110   54   55 am   BACKBONE|DICT|INTERRES
   111   54  179 1    
   112   55   56 2    
   113   55   57 1    
   114   57   58 1    
   115   57   59 1    
   116   57  180 1    
   117   58  181 1    
   118   58  182 1    
   119   58  183 1    
   120   59   60 am   BACKBONE|DICT|INTERRES
   121   59  184 1    
   122   60   61 2    
   123   60   62 1    
   124   62   63 1    
   125   62   64 1    
   126   62  185 1    
   127   63  186 1    
   128   63  187 1    
   129   63  188 1    
   130   64   65 am   BACKBONE|DICT|INTERRES
   131   64  189 1    
   132   65   66 2    
   133   67   68 2    
   134   67   69 am   BACKBONE|DICT|INTERRES
   135   69   70 1    
   136   69  190 1    
   137   70   71 1    
   138   70   72 1    
   139   70  191 1    
   140   71  192 1    
   141   71  193 1    
   142   71  194 1    
   143   72   73 2    
   144   72   74 am   BACKBONE|DICT|INTERRES
   145   74   75 1    
   146   74  195 1    
   147   75   76 1    
   148   75   77 1    
   149   75  196 1    
   150   76  197 1    
   151   76  198 1    
   152   76  199 1    
   153   77   78 2    
   154   77   79 am   BACKBONE|DICT|INTERRES
   155   79   80 1    
   156   79  200 1    
   157   80   81 1    
   158   80   82 1    
   159   80  201 1    
   160   81  202 1    
   161   81  203 1    
   162   81  204 1    
   163   82   83 2    
   164   82   84 am   BACKBONE|DICT|INTERRES
   165   84   85 1    
   166   84  205 1    
   167   85   86 1    
   168   85   87 1    
   169   85  206 1    
   170   86  207 1    
   171   86  208 1    
   172   86  209 1    
   173   87   88 2    
   174   87   89 am   BACKBONE|DICT|INTERRES
   175   89   90 1    
   176   89  210 1    
   177   90   91 1    
   178   90   92 1    
   179   90  211 1    
   180   91  212 1    
   181   91  213 1    
   182   91  214 1    
   183   92   93 2    
   184   92   94 am   BACKBONE|DICT|INTERRES
   185   94   95 1    
   186   94  215 1    
   187   95   96 1    
   188   95   97 1    
   189   95  216 1    
   190   96  217 1    
   191   96  218 1    
   192   96  219 1    
   193   97   98 2    
   194   97   99 am   BACKBONE|DICT|INTERRES
   195   99  100 1    
   196   99  220 1    
   197  100  101 1    
   198  100  102 1    
   199  100  221 1    
   200  101  222 1    
   201  101  223 1    
   202  101  224 1    
   203  102  103 2    
   204  102  104 am   BACKBONE|DICT|INTERRES
   205  104  105 1    
   206  104  225 1    
   207  105  106 1    
   208  105  107 1    
   209  105  226 1    
   210  106  227 1    
   211  106  228 1    
   212  106  229 1    
   213  107  108 2    
   214  107  109 am   BACKBONE|DICT|INTERRES
   215  109  110 1    
   216  109  230 1    
   217  110  111 1    
   218  110  112 1    
   219  110  231 1    
   220  111  232 1    
   221  111  233 1    
   222  111  234 1    
   223  112  113 2    
   224  112  114 am   BACKBONE|DICT|INTERRES
   225  114  115 1    
   226  114  235 1    
   227  115  116 1    
   228  115  117 1    
   229  115  236 1    
   230  116  237 1    
   231  116  238 1    
   232  116  239 1    
   233  117  118 2    
   234  117  119 am   BACKBONE|DICT|INTERRES
   235  119  120 1    
   236  119  240 1    
   237  120  121 1    
   238  120  124 1    
   239  120  241 1    
   240  121  122 am   BACKBONE|DICT|INTERRES
   241  121  123 2    
   242  122  242 1    
   243  122  243 1    
   244  124  125 1    
   245  124  244 1    
   246  124  245 1    
   247  125  126 1    
   248  126  246 1    
   249  126  247 1    
@<TRIPOS>SUBSTRUCTURE
     1 UNK         1 GROUP             0       ****    0 ROOT    
