@<TRIPOS>MOLECULE
3R540
247   249    1
SMALL
USER_CHARGES


@<TRIPOS>ATOM
      1 CA         -2.5805  -15.0805  -40.6714 C.3       0 UNK        -0.1800 
      2 C          -2.0483  -13.8754  -41.4335 C.2       0 UNK         0.5000 
      3 O          -2.7012  -12.8321  -41.4651 O.2       0 UNK        -0.5000 
      4 N          -0.8680  -14.0129  -42.0426 N.am      1 UNK        -0.5000 
      5 CA         -0.1800  -12.9750  -42.8052 C.3       1 UNK         0.1400 
      6 C6         -0.8421  -12.6531  -44.1748 C.3       23 UNK        -0.0398 
      7 S7         -1.1715  -14.1012  -45.2480 S.3       23 UNK        -0.2404 
      8 C8         -2.9909  -14.0685  -45.2433 C.3       23 UNK        -0.0205 
      9 C9         -3.5891  -15.1251  -46.1560 C.ar      23 UNK        -0.0193 
     10 C10        -3.8506  -14.8298  -47.4966 C.ar      23 UNK        -0.1150 
     11 C11        -4.4346  -15.7849  -48.3351 C.ar      23 UNK        -0.0193 
     12 C12        -4.7679  -17.0408  -47.8169 C.ar      23 UNK        -0.1150 
     13 C13        -4.5175  -17.3451  -46.4742 C.ar      23 UNK        -0.0193 
     14 C14        -3.9225  -16.3843  -45.6515 C.ar      23 UNK        -0.1150 
     15 C15        -4.9099  -18.6996  -45.9020 C.3       23 UNK        -0.0205 
     16 S16        -3.8689  -20.0265  -46.5730 S.3       23 UNK        -0.2404 
     17 C17        -3.9620  -21.2701  -45.2436 C.3       23 UNK        -0.0398 
     18 CA         -3.2815  -22.5878  -45.6739 C.3       11 UNK         0.1400 
     19 N          -1.8483  -22.4256  -45.9697 N.am      11 UNK        -0.5000 
     20 C          -1.0497  -23.3613  -46.5055 C.2       10 UNK         0.5000 
     21 O          -1.4457  -24.4845  -46.8174 O.2       10 UNK        -0.5000 
     22 CA          0.4281  -23.0020  -46.7224 C.3       10 UNK         0.1400 
     23 CB          0.6495  -22.4888  -48.1531 C.3       10 UNK        -0.1800 
     24 N           0.8898  -21.9966  -45.7671 N.am      10 UNK        -0.5000 
     25 C           1.3268  -22.2625  -44.5289 C.2       9 UNK         0.5000 
     26 O           1.4341  -23.4016  -44.0744 O.2       9 UNK        -0.5000 
     27 CA          1.6916  -21.0550  -43.6412 C.3       9 UNK         0.1400 
     28 CB          3.1720  -20.6856  -43.8180 C.3       9 UNK        -0.1800 
     29 N           0.8715  -19.8728  -43.9106 N.am      9 UNK        -0.5000 
     30 C          -0.4347  -19.7725  -43.6274 C.2       8 UNK         0.5000 
     31 O          -1.0779  -20.6515  -43.0531 O.2       8 UNK        -0.5000 
     32 CA         -1.1573  -18.4950  -44.1032 C.3       8 UNK         0.1400 
     33 CB         -1.1331  -17.4265  -43.0021 C.3       8 UNK        -0.1800 
     34 N          -0.6342  -17.9086  -45.3412 N.am      8 UNK        -0.5000 
     35 C          -0.4532  -18.5503  -46.5054 C.2       7 UNK         0.5000 
     36 O          -0.6373  -19.7561  -46.6542 O.2       7 UNK        -0.5000 
     37 CA          0.0611  -17.7273  -47.6969 C.3       7 UNK         0.1400 
     38 CB         -1.0972  -17.3394  -48.6227 C.3       7 UNK        -0.1800 
     39 N           0.7798  -16.5170  -47.3029 N.am      7 UNK        -0.5000 
     40 C           1.9814  -16.4935  -46.7109 C.2       6 UNK         0.5000 
     41 O           2.5941  -17.5113  -46.3842 O.2       6 UNK        -0.5000 
     42 CA          2.5849  -15.1032  -46.4149 C.3       6 UNK         0.1400 
     43 CB          4.1217  -15.0908  -46.5518 C.3       6 UNK        -0.1800 
     44 N           1.9795  -14.0056  -47.1852 N.am      6 UNK        -0.5000 
     45 C           2.0183  -13.8331  -48.5175 C.2       5 UNK         0.5000 
     46 O           2.5907  -14.5888  -49.3017 O.2       5 UNK        -0.5000 
     47 CA          1.3124  -12.5826  -49.0507 C.3       5 UNK         0.1400 
     48 CB         -0.2198  -12.7062  -48.9385 C.3       5 UNK        -0.1800 
     49 N           1.8009  -11.4116  -48.3278 N.am      5 UNK        -0.5000 
     50 C           1.7624  -10.1521  -48.7752 C.2       4 UNK         0.5000 
     51 O           1.2475   -9.8190  -49.8434 O.2       4 UNK        -0.5000 
     52 CA          2.4122   -9.0786  -47.8805 C.3       4 UNK         0.1400 
     53 CB          1.3393   -8.3539  -47.0532 C.3       4 UNK        -0.1800 
     54 N           3.4274   -9.6097  -46.9672 N.am      4 UNK        -0.5000 
     55 C           4.6489  -10.0323  -47.3126 C.2       3 UNK         0.5000 
     56 O           5.0563  -10.0508  -48.4742 O.2       3 UNK        -0.5000 
     57 CA          5.5754  -10.5205  -46.1774 C.3       3 UNK         0.1400 
     58 CB          6.2091   -9.3289  -45.4341 C.3       3 UNK        -0.1800 
     59 N           4.9713  -11.4757  -45.2333 N.am      3 UNK        -0.5000 
     60 C           3.9572  -11.2893  -44.3781 C.2       2 UNK         0.5000 
     61 O           3.3279  -10.2331  -44.2656 O.2       2 UNK        -0.5000 
     62 CA          3.5636  -12.4901  -43.5078 C.3       2 UNK         0.1400 
     63 CB          4.3672  -12.5173  -42.1972 C.3       2 UNK        -0.1800 
     64 N           2.1402  -12.3697  -43.2219 N.am      2 UNK        -0.5000 
     65 C           1.2976  -13.3697  -42.9528 C.2       1 UNK         0.5000 
     66 O           1.6376  -14.5508  -42.8402 O.2       1 UNK        -0.5000 
     67 C          -3.5754  -23.7351  -44.6835 C.2       11 UNK         0.5000 
     68 O          -4.6388  -24.3490  -44.7743 O.2       11 UNK        -0.5000 
     69 N          -2.6016  -24.0642  -43.8232 N.am      12 UNK        -0.5000 
     70 CA         -2.6058  -25.2404  -42.9493 C.3       12 UNK         0.1400 
     71 CB         -1.4176  -25.1332  -41.9816 C.3       12 UNK        -0.1800 
     72 C          -2.5622  -26.5878  -43.7072 C.2       12 UNK         0.5000 
     73 O          -2.9685  -27.6051  -43.1453 O.2       12 UNK        -0.5000 
     74 N          -2.0899  -26.5734  -44.9610 N.am      13 UNK        -0.5000 
     75 CA         -2.0005  -27.7165  -45.8696 C.3       13 UNK         0.1400 
     76 CB         -0.5380  -27.8647  -46.3289 C.3       13 UNK        -0.1800 
     77 C          -2.9685  -27.5374  -47.0572 C.2       13 UNK         0.5000 
     78 O          -2.6280  -27.8847  -48.1904 O.2       13 UNK        -0.5000 
     79 N          -4.1519  -26.9644  -46.7843 N.am      14 UNK        -0.5000 
     80 CA         -5.2328  -26.6733  -47.7359 C.3       14 UNK         0.1400 
     81 CB         -5.8614  -27.9800  -48.2640 C.3       14 UNK        -0.1800 
     82 C          -4.7851  -25.7246  -48.8669 C.2       14 UNK         0.5000 
     83 O          -5.0869  -25.9611  -50.0376 O.2       14 UNK        -0.5000 
     84 N          -4.0258  -24.6881  -48.4857 N.am      15 UNK        -0.5000 
     85 CA         -3.3778  -23.6966  -49.3524 C.3       15 UNK         0.1400 
     86 CB         -4.4241  -22.8369  -50.0901 C.3       15 UNK        -0.1800 
     87 C          -2.3343  -24.3449  -50.2807 C.2       15 UNK         0.5000 
     88 O          -2.2491  -23.9861  -51.4534 O.2       15 UNK        -0.5000 
     89 N          -1.5853  -25.3187  -49.7413 N.am      16 UNK        -0.5000 
     90 CA         -0.6559  -26.2093  -50.4463 C.3       16 UNK         0.1400 
     91 CB          0.6225  -25.4508  -50.8590 C.3       16 UNK        -0.1800 
     92 C          -1.3422  -26.9431  -51.6192 C.2       16 UNK         0.5000 
     93 O          -0.8291  -26.9460  -52.7390 O.2       16 UNK        -0.5000 
     94 N          -2.5221  -27.5105  -51.3270 N.am      17 UNK        -0.5000 
     95 CA         -3.4690  -28.1244  -52.2629 C.3       17 UNK         0.1400 
     96 CB         -2.8817  -29.4121  -52.8781 C.3       17 UNK        -0.1800 
     97 C          -3.9855  -27.1196  -53.3176 C.2       17 UNK         0.5000 
     98 O          -3.8703  -27.3622  -54.5206 O.2       17 UNK        -0.5000 
     99 N          -4.5544  -26.0087  -52.8266 N.am      18 UNK        -0.5000 
    100 CA        -5.1959  -24.9214  -53.5778 C.3       18 UNK         0.1400 
    101 CB        -6.4740  -25.4291  -54.2779 C.3       18 UNK        -0.1800 
    102 C         -4.2549  -24.1520  -54.5324 C.2       18 UNK         0.5000 
    103 O         -4.7084  -23.6355  -55.5555 O.2       18 UNK        -0.5000 
    104 N         -2.9679  -24.0688  -54.1785 N.am      19 UNK        -0.5000 
    105 CA        -1.9468  -23.3223  -54.9102 C.3       19 UNK         0.1400 
    106 CB        -0.6069  -24.0655  -54.8026 C.3       19 UNK        -0.1800 
    107 C         -1.8143  -21.8867  -54.3743 C.2       19 UNK         0.5000 
    108 O         -1.7559  -20.9420  -55.1622 O.2       19 UNK        -0.5000 
    109 N         -1.7962  -21.7365  -53.0434 N.am      20 UNK        -0.5000 
    110 CA        -1.6353  -20.4713  -52.3222 C.3       20 UNK         0.1400 
    111 CB        -0.9490  -20.7526  -50.9727 C.3       20 UNK        -0.1800 
    112 C         -2.9784  -19.7279  -52.1657 C.2       20 UNK         0.5000 
    113 O         -3.3504  -19.3340  -51.0605 O.2       20 UNK        -0.5000 
    114 N         -3.6976  -19.5695  -53.2828 N.am      21 UNK        -0.5000 
    115 CA        -5.0158  -18.9354  -53.3534 C.3       21 UNK         0.1400 
    116 CB        -5.7310  -19.4492  -54.6134 C.3       21 UNK        -0.1800 
    117 C         -4.9630  -17.3929  -53.3452 C.2       21 UNK         0.5000 
    118 O         -6.0106  -16.7599  -53.2107 O.2       21 UNK        -0.5000 
    119 N         -3.7612  -16.8216  -53.5086 N.am      22 UNK        -0.5000 
    120 CA        -3.4698  -15.3767  -53.5868 C.3       22 UNK         0.1400 
    121 C         -3.9465  -14.6906  -54.9053 C.2       22 UNK         0.5000 
    122 N         -4.3054  -15.4304  -55.9477 N.am      22 UNK        -0.7600 
    123 O         -3.9628  -13.4663  -55.0030 O.2       22 UNK        -0.5000 
    124 C124       -3.8951  -14.5740  -52.3228 C.3       23 UNK        -0.0398 
    125 S125       -3.2068  -15.2337  -50.7649 S.3       23 UNK        -0.2404 
    126 C126       -4.7294  -15.4428  -49.7884 C.3       23 UNK        -0.0205 
    127 H127       -2.9634  -14.7730  -39.6983 H         1 UNK         0.0600 
    128 H128       -1.8036  -15.8270  -40.5059 H         1 UNK         0.0600 
    129 H129       -3.3933  -15.5469  -41.2282 H         1 UNK         0.0600 
    130 H130       -0.3423  -14.8756  -41.9777 H         1 UNK         0.3000 
    131 H131       -0.1955  -12.0658  -42.2000 H         1 UNK         0.0600 
    132 H132       -0.2340  -11.9452  -44.7402 H         1 UNK         0.0800 
    133 H133       -1.7776  -12.1238  -43.9916 H         1 UNK         0.0800 
    134 H134       -3.3359  -13.0819  -45.5566 H         1 UNK         0.0800 
    135 H135       -3.3513  -14.2093  -44.2233 H         1 UNK         0.0800 
    136 H136       -3.5980  -13.8554  -47.8911 H         1 UNK         0.1150 
    137 H137       -5.2222  -17.7849  -48.4561 H         1 UNK         0.1150 
    138 H138       -3.7328  -16.6094  -44.6121 H         1 UNK         0.1150 
    139 H139       -4.8307  -18.6877  -44.8139 H         1 UNK         0.0800 
    140 H140       -5.9550  -18.9084  -46.1341 H         1 UNK         0.0800 
    141 H141       -5.0158  -21.4375  -45.0120 H         1 UNK         0.0800 
    142 H142       -3.5011  -20.8725  -44.3387 H         1 UNK         0.0800 
    143 H143       -3.7622  -22.8801  -46.6044 H         1 UNK         0.0600 
    144 H144       -1.4663  -21.4955  -45.8382 H         1 UNK         0.3000 
    145 H145        1.0118  -23.9165  -46.5978 H         1 UNK         0.0600 
    146 H146        0.1183  -21.5561  -48.3383 H         1 UNK         0.0600 
    147 H147        1.7074  -22.3161  -48.3506 H         1 UNK         0.0600 
    148 H148        0.2942  -23.2101  -48.8878 H         1 UNK         0.0600 
    149 H149        0.7401  -21.0306  -46.0378 H         1 UNK         0.3000 
    150 H150        1.5344  -21.3493  -42.6014 H         1 UNK         0.0600 
    151 H151        3.8162  -21.5411  -43.6110 H         1 UNK         0.0600 
    152 H152        3.4634  -19.8874  -43.1350 H         1 UNK         0.0600 
    153 H153        3.3845  -20.3513  -44.8345 H         1 UNK         0.0600 
    154 H154        1.3167  -19.1107  -44.4029 H         1 UNK         0.3000 
    155 H155       -2.1973  -18.7635  -44.2922 H         1 UNK         0.0600 
    156 H156       -1.5434  -17.8169  -42.0700 H         1 UNK         0.0600 
    157 H157       -1.7305  -16.5595  -43.2819 H         1 UNK         0.0600 
    158 H158       -0.1178  -17.0832  -42.7990 H         1 UNK         0.0600 
    159 H159       -0.4541  -16.9155  -45.3244 H         1 UNK         0.3000 
    160 H160        0.7463  -18.3656  -48.2586 H         1 UNK         0.0600 
    161 H161       -0.7330  -16.9055  -49.5538 H         1 UNK         0.0600 
    162 H162       -1.7515  -16.6111  -48.1470 H         1 UNK         0.0600 
    163 H163       -1.7092  -18.2046  -48.8824 H         1 UNK         0.0600 
    164 H164        0.3357  -15.6375  -47.5200 H         1 UNK         0.3000 
    165 H165        2.3471  -14.9019  -45.3718 H         1 UNK         0.0600 
    166 H166        4.4423  -15.4280  -47.5379 H         1 UNK         0.0600 
    167 H167        4.5281  -14.0932  -46.3945 H         1 UNK         0.0600 
    168 H168        4.5841  -15.7510  -45.8171 H         1 UNK         0.0600 
    169 H169        1.4179  -13.3638  -46.6446 H         1 UNK         0.3000 
    170 H170        1.5781  -12.4830  -50.1055 H         1 UNK         0.0600 
    171 H171       -0.5533  -12.7139  -47.9009 H         1 UNK         0.0600 
    172 H172       -0.7193  -11.8769  -49.4392 H         1 UNK         0.0600 
    173 H173       -0.5759  -13.6255  -49.4061 H         1 UNK         0.0600 
    174 H174        2.3093  -11.5904  -47.4745 H         1 UNK         0.3000 
    175 H175        2.8907   -8.3488  -48.5369 H         1 UNK         0.0600 
    176 H176        0.8397   -9.0326  -46.3607 H         1 UNK         0.0600 
    177 H177        1.7731   -7.5406  -46.4712 H         1 UNK         0.0600 
    178 H178        0.5742   -7.9192  -47.6979 H         1 UNK         0.0600 
    179 H179        3.1924   -9.6378  -45.9772 H         1 UNK         0.3000 
    180 H180        6.3883  -11.0658  -46.6599 H         1 UNK         0.0600 
    181 H181        5.4626   -8.7210  -44.9223 H         1 UNK         0.0600 
    182 H182        6.7393   -8.6753  -46.1279 H         1 UNK         0.0600 
    183 H183        6.9314   -9.6676  -44.6914 H         1 UNK         0.0600 
    184 H184        5.4077  -12.3869  -45.2402 H         1 UNK         0.3000 
    185 H185        3.7487  -13.4087  -44.0665 H         1 UNK         0.0600 
    186 H186        4.0904  -13.3737  -41.5821 H         1 UNK         0.0600 
    187 H187        5.4371  -12.5923  -42.3953 H         1 UNK         0.0600 
    188 H188        4.2034  -11.6146  -41.6073 H         1 UNK         0.0600 
    189 H189        1.7952  -11.4218  -43.3180 H         1 UNK         0.3000 
    190 H190       -1.7614  -23.5029  -43.8186 H         1 UNK         0.3000 
    191 H191       -3.5283  -25.2230  -42.3655 H         1 UNK         0.0600 
    192 H192       -0.4656  -25.1245  -42.5146 H         1 UNK         0.0600 
    193 H193       -1.4755  -24.2230  -41.3843 H         1 UNK         0.0600 
    194 H194       -1.3989  -25.9752  -41.2884 H         1 UNK         0.0600 
    195 H195       -1.8108  -25.6872  -45.3706 H         1 UNK         0.3000 
    196 H196       -2.2917  -28.6367  -45.3601 H         1 UNK         0.0600 
    197 H197        0.1307  -27.9855  -45.4767 H         1 UNK         0.0600 
    198 H198       -0.2038  -26.9943  -46.8950 H         1 UNK         0.0600 
    199 H199       -0.4116  -28.7411  -46.9656 H         1 UNK         0.0600 
    200 H200       -4.3237  -26.6772  -45.8300 H         1 UNK         0.3000 
    201 H201       -6.0017  -26.1387  -47.1764 H         1 UNK         0.0600 
    202 H202       -6.7396  -27.7710  -48.8760 H         1 UNK         0.0600 
    203 H203       -6.1839  -28.6214  -47.4440 H         1 UNK         0.0600 
    204 H204       -5.1635  -28.5483  -48.8797 H         1 UNK         0.0600 
    205 H205       -3.7686  -24.6466  -47.5104 H         1 UNK         0.3000 
    206 H206       -2.8149  -23.0172  -48.7152 H         1 UNK         0.0600 
    207 H207       -5.0642  -22.3111  -49.3816 H         1 UNK         0.0600 
    208 H208       -5.0643  -23.4323  -50.7373 H         1 UNK         0.0600 
    209 H209       -3.9472  -22.0807  -50.7113 H         1 UNK         0.0600 
    210 H210       -1.7260  -25.5245  -48.7599 H         1 UNK         0.3000 
    211 H211       -0.3635  -26.9831  -49.7349 H         1 UNK         0.0600 
    212 H212        1.1551  -25.0787  -49.9848 H         1 UNK         0.0600 
    213 H213        1.3119  -26.1040  -51.3950 H         1 UNK         0.0600 
    214 H214        0.4035  -24.6021  -51.5063 H         1 UNK         0.0600 
    215 H215       -2.8358  -27.4532  -50.3645 H         1 UNK         0.3000 
    216 H216       -4.3365  -28.4151  -51.6683 H         1 UNK         0.0600 
    217 H217       -3.6269  -29.9262  -53.4860 H         1 UNK         0.0600 
    218 H218       -2.0249  -29.2055  -53.5198 H         1 UNK         0.0600 
    219 H219       -2.5600  -30.1072  -52.1026 H         1 UNK         0.0600 
    220 H220       -4.6182  -25.9260  -51.8130 H         1 UNK         0.3000 
    221 H221       -5.5122  -24.1917  -52.8337 H         1 UNK         0.0600 
    222 H222       -6.2438  -26.1211  -55.0884 H         1 UNK         0.0600 
    223 H223       -7.1309  -25.9414  -53.5750 H         1 UNK         0.0600 
    224 H224       -7.0428  -24.6026  -54.7055 H         1 UNK         0.0600 
    225 H225       -2.6894  -24.4506  -53.2796 H         1 UNK         0.3000 
    226 H226       -2.2136  -23.2661  -55.9676 H         1 UNK         0.0600 
    227 H227       -0.6801  -25.0688  -55.2230 H         1 UNK         0.0600 
    228 H228        0.1785  -23.5391  -55.3462 H         1 UNK         0.0600 
    229 H229       -0.2825  -24.1646  -53.7665 H         1 UNK         0.0600 
    230 H230       -1.9133  -22.5675  -52.4660 H         1 UNK         0.3000 
    231 H231       -0.9732  -19.8199  -52.8961 H         1 UNK         0.0600 
    232 H232       -0.7077  -19.8234  -50.4560 H         1 UNK         0.0600 
    233 H233       -0.0150  -21.2979  -51.1096 H         1 UNK         0.0600 
    234 H234       -1.5843  -21.3388  -50.3095 H         1 UNK         0.0600 
    235 H235       -3.3092  -19.9259  -54.1487 H         1 UNK         0.3000 
    236 H236       -5.5991  -19.2435  -52.4830 H         1 UNK         0.0600 
    237 H237       -5.8289  -20.5352  -54.5956 H         1 UNK         0.0600 
    238 H238       -6.7371  -19.0350  -54.6908 H         1 UNK         0.0600 
    239 H239       -5.1920  -19.1766  -55.5215 H         1 UNK         0.0600 
    240 H240       -2.9654  -17.4324  -53.6144 H         1 UNK         0.3000 
    241 H241       -2.3823  -15.3172  -53.6384 H         1 UNK         0.0600 
    242 H242       -4.2864  -16.4358  -55.8950 H         1 UNK         0.3800 
    243 H243       -4.6009  -14.9778  -56.7986 H         1 UNK         0.3800 
    244 H244       -3.5545  -13.5404  -52.4011 H         1 UNK         0.0800 
    245 H245       -4.9824  -14.5206  -52.2578 H         1 UNK         0.0800 
    246 H246       -5.3115  -14.5207  -49.8201 H         1 UNK         0.0800 
    247 H247       -5.3440  -16.2162  -50.2520 H         1 UNK         0.0800 
@<TRIPOS>BOND
     1    1    2 1    
     2    1  127 1    
     3    1  128 1    
     4    1  129 1    
     5    2    3 2    
     6    2    4 am   BACKBONE|DICT|INTERRES
     7    4    5 1    
     8    4  130 1    
     9    5    6 1    
    10    5   65 1    
    11    5  131 1    
    12    6    7 1    
    13    6  132 1    
    14    6  133 1    
    15    7    8 1    
    16    8    9 1    
    17    8  134 1    
    18    8  135 1    
    19    9   10 ar   
    20    9   14 ar   
    21   10   11 ar   
    22   10  136 1    
    23   11   12 ar   
    24   11  126 1    
    25   12   13 ar   
    26   12  137 1    
    27   13   14 ar   
    28   13   15 1    
    29   14  138 1    
    30   15   16 1    
    31   15  139 1    
    32   15  140 1    
    33   16   17 1    
    34   17   18 1    
    35   17  141 1    
    36   17  142 1    
    37   18   19 1    
    38   18   67 1    
    39   18  143 1    
    40   19   20 am   BACKBONE|DICT|INTERRES
    41   19  144 1    
    42   20   21 2    
    43   20   22 1    
    44   22   23 1    
    45   22   24 1    
    46   22  145 1    
    47   23  146 1    
    48   23  147 1    
    49   23  148 1    
    50   24   25 am   BACKBONE|DICT|INTERRES
    51   24  149 1    
    52   25   26 2    
    53   25   27 1    
    54   27   28 1    
    55   27   29 1    
    56   27  150 1    
    57   28  151 1    
    58   28  152 1    
    59   28  153 1    
    60   29   30 am   BACKBONE|DICT|INTERRES
    61   29  154 1    
    62   30   31 2    
    63   30   32 1    
    64   32   33 1    
    65   32   34 1    
    66   32  155 1    
    67   33  156 1    
    68   33  157 1    
    69   33  158 1    
    70   34   35 am   BACKBONE|DICT|INTERRES
    71   34  159 1    
    72   35   36 2    
    73   35   37 1    
    74   37   38 1    
    75   37   39 1    
    76   37  160 1    
    77   38  161 1    
    78   38  162 1    
    79   38  163 1    
    80   39   40 am   BACKBONE|DICT|INTERRES
    81   39  164 1    
    82   40   41 2    
    83   40   42 1    
    84   42   43 1    
    85   42   44 1    
    86   42  165 1    
    87   43  166 1    
    88   43  167 1    
    89   43  168 1    
    90   44   45 am   BACKBONE|DICT|INTERRES
    91   44  169 1    
    92   45   46 2    
    93   45   47 1    
    94   47   48 1    
    95   47   49 1    
    96   47  170 1    
    97   48  171 1    
    98   48  172 1    
    99   48  173 1    
   100   49   50 am   BACKBONE|DICT|INTERRES
   101   49  174 1    
   102   50   51 2    
   103   50   52 1    
   104   52   53 1    
   105   52   54 1    
   106   52  175 1    
   107   53  176 1    
   108   53  177 1    
   109   53  178 1    
   110   54   55 am   BACKBONE|DICT|INTERRES
   111   54  179 1    
   112   55   56 2    
   113   55   57 1    
   114   57   58 1    
   115   57   59 1    
   116   57  180 1    
   117   58  181 1    
   118   58  182 1    
   119   58  183 1    
   120   59   60 am   BACKBONE|DICT|INTERRES
   121   59  184 1    
   122   60   61 2    
   123   60   62 1    
   124   62   63 1    
   125   62   64 1    
   126   62  185 1    
   127   63  186 1    
   128   63  187 1    
   129   63  188 1    
   130   64   65 am   BACKBONE|DICT|INTERRES
   131   64  189 1    
   132   65   66 2    
   133   67   68 2    
   134   67   69 am   BACKBONE|DICT|INTERRES
   135   69   70 1    
   136   69  190 1    
   137   70   71 1    
   138   70   72 1    
   139   70  191 1    
   140   71  192 1    
   141   71  193 1    
   142   71  194 1    
   143   72   73 2    
   144   72   74 am   BACKBONE|DICT|INTERRES
   145   74   75 1    
   146   74  195 1    
   147   75   76 1    
   148   75   77 1    
   149   75  196 1    
   150   76  197 1    
   151   76  198 1    
   152   76  199 1    
   153   77   78 2    
   154   77   79 am   BACKBONE|DICT|INTERRES
   155   79   80 1    
   156   79  200 1    
   157   80   81 1    
   158   80   82 1    
   159   80  201 1    
   160   81  202 1    
   161   81  203 1    
   162   81  204 1    
   163   82   83 2    
   164   82   84 am   BACKBONE|DICT|INTERRES
   165   84   85 1    
   166   84  205 1    
   167   85   86 1    
   168   85   87 1    
   169   85  206 1    
   170   86  207 1    
   171   86  208 1    
   172   86  209 1    
   173   87   88 2    
   174   87   89 am   BACKBONE|DICT|INTERRES
   175   89   90 1    
   176   89  210 1    
   177   90   91 1    
   178   90   92 1    
   179   90  211 1    
   180   91  212 1    
   181   91  213 1    
   182   91  214 1    
   183   92   93 2    
   184   92   94 am   BACKBONE|DICT|INTERRES
   185   94   95 1    
   186   94  215 1    
   187   95   96 1    
   188   95   97 1    
   189   95  216 1    
   190   96  217 1    
   191   96  218 1    
   192   96  219 1    
   193   97   98 2    
   194   97   99 am   BACKBONE|DICT|INTERRES
   195   99  100 1    
   196   99  220 1    
   197  100  101 1    
   198  100  102 1    
   199  100  221 1    
   200  101  222 1    
   201  101  223 1    
   202  101  224 1    
   203  102  103 2    
   204  102  104 am   BACKBONE|DICT|INTERRES
   205  104  105 1    
   206  104  225 1    
   207  105  106 1    
   208  105  107 1    
   209  105  226 1    
   210  106  227 1    
   211  106  228 1    
   212  106  229 1    
   213  107  108 2    
   214  107  109 am   BACKBONE|DICT|INTERRES
   215  109  110 1    
   216  109  230 1    
   217  110  111 1    
   218  110  112 1    
   219  110  231 1    
   220  111  232 1    
   221  111  233 1    
   222  111  234 1    
   223  112  113 2    
   224  112  114 am   BACKBONE|DICT|INTERRES
   225  114  115 1    
   226  114  235 1    
   227  115  116 1    
   228  115  117 1    
   229  115  236 1    
   230  116  237 1    
   231  116  238 1    
   232  116  239 1    
   233  117  118 2    
   234  117  119 am   BACKBONE|DICT|INTERRES
   235  119  120 1    
   236  119  240 1    
   237  120  121 1    
   238  120  124 1    
   239  120  241 1    
   240  121  122 am   BACKBONE|DICT|INTERRES
   241  121  123 2    
   242  122  242 1    
   243  122  243 1    
   244  124  125 1    
   245  124  244 1    
   246  124  245 1    
   247  125  126 1    
   248  126  246 1    
   249  126  247 1    
@<TRIPOS>SUBSTRUCTURE
     1 UNK         1 GROUP             0       ****    0 ROOT    
