@<TRIPOS>MOLECULE
3R540
247   249    1
SMALL
USER_CHARGES


@<TRIPOS>ATOM
      1 CA          3.9163  -11.6517  -46.1197 C.3       0 UNK        -0.1800 
      2 C           5.3907  -11.6397  -46.5225 C.2       0 UNK         0.5000 
      3 O           6.0830  -10.6618  -46.2462 O.2       0 UNK        -0.5000 
      4 N           5.9241  -12.6960  -47.1522 N.am      1 UNK        -0.5000 
      5 CA          5.2107  -13.8811  -47.6367 C.3       1 UNK         0.1400 
      6 C6          6.1748  -15.0814  -47.8159 C.3       23 UNK        -0.0398 
      7 S7          5.3062  -16.6793  -47.6826 S.3       23 UNK        -0.2404 
      8 C8          5.2851  -17.2250  -49.4177 C.3       23 UNK        -0.0205 
      9 C9          4.1451  -18.2005  -49.6482 C.ar      23 UNK        -0.0193 
     10 C10         2.8668  -17.7115  -49.9226 C.ar      23 UNK        -0.1150 
     11 C11         1.7930  -18.5843  -50.0914 C.ar      23 UNK        -0.0193 
     12 C12         2.0034  -19.9611  -49.9965 C.ar      23 UNK        -0.1150 
     13 C13         3.2768  -20.4648  -49.7149 C.ar      23 UNK        -0.0193 
     14 C14         4.3486  -19.5804  -49.5527 C.ar      23 UNK        -0.1150 
     15 C15         3.4780  -21.9629  -49.5439 C.3       23 UNK        -0.0205 
     16 S16         3.8087  -22.4295  -47.8108 S.3       23 UNK        -0.2404 
     17 C17         2.4014  -21.6964  -46.9022 C.3       23 UNK        -0.0398 
     18 CA          1.2637  -22.6977  -46.6009 C.3       11 UNK         0.1400 
     19 N           0.4247  -22.2438  -45.4896 N.am      11 UNK        -0.5000 
     20 C          -0.5040  -22.9913  -44.8775 C.2       10 UNK         0.5000 
     21 O          -0.7134  -24.1731  -45.1471 O.2       10 UNK        -0.5000 
     22 CA         -1.3791  -22.2878  -43.8236 C.3       10 UNK         0.1400 
     23 CB         -0.6524  -22.1997  -42.4739 C.3       10 UNK        -0.1800 
     24 N          -1.7926  -20.9503  -44.2485 N.am      10 UNK        -0.5000 
     25 C          -2.5824  -20.7005  -45.3025 C.2       9 UNK         0.5000 
     26 O          -3.1086  -21.5798  -45.9843 O.2       9 UNK        -0.5000 
     27 CA         -2.7752  -19.2227  -45.6863 C.3       9 UNK         0.1400 
     28 CB         -3.8800  -18.5766  -44.8372 C.3       9 UNK        -0.1800 
     29 N          -1.5329  -18.4547  -45.5654 N.am      9 UNK        -0.5000 
     30 C          -0.4634  -18.6237  -46.3571 C.2       8 UNK         0.5000 
     31 O          -0.4317  -19.4189  -47.2948 O.2       8 UNK        -0.5000 
     32 CA          0.8060  -17.8283  -45.9974 C.3       8 UNK         0.1400 
     33 CB          0.7868  -16.4203  -46.6085 C.3       8 UNK        -0.1800 
     34 N           0.9968  -17.7276  -44.5503 N.am      8 UNK        -0.5000 
     35 C           1.3580  -18.7608  -43.7763 C.2       7 UNK         0.5000 
     36 O           1.5821  -19.8889  -44.2123 O.2       7 UNK        -0.5000 
     37 CA          1.4389  -18.5122  -42.2586 C.3       7 UNK         0.1400 
     38 CB          2.8325  -17.9962  -41.8716 C.3       7 UNK        -0.1800 
     39 N           0.4239  -17.5806  -41.7645 N.am      7 UNK        -0.5000 
     40 C          -0.8995  -17.7676  -41.8545 C.2       6 UNK         0.5000 
     41 O          -1.4100  -18.7657  -42.3644 O.2       6 UNK        -0.5000 
     42 CA         -1.8161  -16.6451  -41.3265 C.3       6 UNK         0.1400 
     43 CB         -1.0875  -15.5850  -40.4697 C.3       6 UNK        -0.1800 
     44 N          -2.5626  -15.9966  -42.4106 N.am      6 UNK        -0.5000 
     45 C          -2.0545  -15.3942  -43.4964 C.2       5 UNK         0.5000 
     46 O          -0.8471  -15.3488  -43.7441 O.2       5 UNK        -0.5000 
     47 CA         -3.0570  -14.7473  -44.4757 C.3       5 UNK         0.1400 
     48 CB         -4.4072  -14.3830  -43.8267 C.3       5 UNK        -0.1800 
     49 N          -2.4714  -13.5396  -45.0540 N.am      5 UNK        -0.5000 
     50 C          -1.9698  -13.4479  -46.2892 C.2       4 UNK         0.5000 
     51 O          -2.0166  -14.3543  -47.1269 O.2       4 UNK        -0.5000 
     52 CA         -1.2858  -12.1195  -46.6412 C.3       4 UNK         0.1400 
     53 CB          0.0701  -11.9874  -45.9217 C.3       4 UNK        -0.1800 
     54 N          -1.0718  -12.0796  -48.0804 N.am      4 UNK        -0.5000 
     55 C          -0.9408  -10.9889  -48.8417 C.2       3 UNK         0.5000 
     56 O          -1.0458   -9.8372  -48.4153 O.2       3 UNK        -0.5000 
     57 CA         -0.6127  -11.2563  -50.3270 C.3       3 UNK         0.1400 
     58 CB         -0.1173  -10.0062  -51.0843 C.3       3 UNK        -0.1800 
     59 N           0.3189  -12.3819  -50.4785 N.am      3 UNK        -0.5000 
     60 C           1.5704  -12.4618  -50.0050 C.2       2 UNK         0.5000 
     61 O           2.1684  -11.5189  -49.4829 O.2       2 UNK        -0.5000 
     62 CA          2.2289  -13.8516  -50.1122 C.3       2 UNK         0.1400 
     63 CB          2.7841  -14.1069  -51.5283 C.3       2 UNK        -0.1800 
     64 N           3.2351  -14.0886  -49.0665 N.am      2 UNK        -0.5000 
     65 C           4.4574  -13.5499  -48.9435 C.2       1 UNK         0.5000 
     66 O           5.0018  -12.8363  -49.7895 O.2       1 UNK        -0.5000 
     67 C           0.4241  -23.0241  -47.8549 C.2       11 UNK         0.5000 
     68 O           0.6567  -24.0595  -48.4775 O.2       11 UNK        -0.5000 
     69 N          -0.5693  -22.1792  -48.1755 N.am      12 UNK        -0.5000 
     70 CA         -1.5428  -22.4205  -49.2441 C.3       12 UNK         0.1400 
     71 CB         -2.4609  -21.2012  -49.4178 C.3       12 UNK        -0.1800 
     72 C          -2.3687  -23.6969  -49.0080 C.2       12 UNK         0.5000 
     73 O          -2.4906  -24.5112  -49.9220 O.2       12 UNK        -0.5000 
     74 N          -2.8653  -23.8781  -47.7759 N.am      13 UNK        -0.5000 
     75 CA         -3.5897  -25.0744  -47.3448 C.3       13 UNK         0.1400 
     76 CB         -4.1343  -24.8673  -45.9239 C.3       13 UNK        -0.1800 
     77 C          -2.7347  -26.3537  -47.4277 C.2       13 UNK         0.5000 
     78 O          -3.2191  -27.3728  -47.9200 O.2       13 UNK        -0.5000 
     79 N          -1.4670  -26.2697  -46.9974 N.am      14 UNK        -0.5000 
     80 CA         -0.4768  -27.3469  -47.0950 C.3       14 UNK         0.1400 
     81 CB          0.7862  -26.9559  -46.3133 C.3       14 UNK        -0.1800 
     82 C          -0.1256  -27.7178  -48.5500 C.2       14 UNK         0.5000 
     83 O           0.0915  -28.8940  -48.8423 O.2       14 UNK        -0.5000 
     84 N          -0.1205  -26.7179  -49.4413 N.am      15 UNK        -0.5000 
     85 CA          0.0487  -26.8663  -50.8888 C.3       15 UNK         0.1400 
     86 CB          0.5337  -25.5266  -51.4687 C.3       15 UNK        -0.1800 
     87 C          -1.2251  -27.3547  -51.6161 C.2       15 UNK         0.5000 
     88 O          -1.1798  -27.5450  -52.8322 O.2       15 UNK        -0.5000 
     89 N          -2.3277  -27.5456  -50.8751 N.am      16 UNK        -0.5000 
     90 CA         -3.6544  -27.9803  -51.3240 C.3       16 UNK         0.1400 
     91 CB         -3.6017  -29.3838  -51.9643 C.3       16 UNK        -0.1800 
     92 C          -4.3895  -26.9405  -52.1963 C.2       16 UNK         0.5000 
     93 O          -5.2682  -27.3082  -52.9789 O.2       16 UNK        -0.5000 
     94 N          -4.0486  -25.6585  -52.0227 N.am      17 UNK        -0.5000 
     95 CA         -4.7871  -24.5164  -52.5529 C.3       17 UNK         0.1400 
     96 CB         -3.7844  -23.4054  -52.9105 C.3       17 UNK        -0.1800 
     97 C          -5.8049  -24.0268  -51.5053 C.2       17 UNK         0.5000 
     98 O          -5.7825  -24.4718  -50.3539 O.2       17 UNK        -0.5000 
     99 N          -6.6847  -23.1060  -51.9161 N.am      18 UNK        -0.5000 
    100 CA        -7.6236  -22.4273  -51.0242 C.3       18 UNK         0.1400 
    101 CB        -8.6553  -21.6557  -51.8627 C.3       18 UNK        -0.1800 
    102 C         -6.8749  -21.4727  -50.0781 C.2       18 UNK         0.5000 
    103 O         -6.1060  -20.6368  -50.5528 O.2       18 UNK        -0.5000 
    104 N         -7.1343  -21.5861  -48.7696 N.am      19 UNK        -0.5000 
    105 CA        -6.5107  -20.7655  -47.7241 C.3       19 UNK         0.1400 
    106 CB        -6.8462  -21.3738  -46.3542 C.3       19 UNK        -0.1800 
    107 C         -6.9240  -19.2795  -47.7735 C.2       19 UNK         0.5000 
    108 O         -6.2075  -18.4310  -47.2444 O.2       19 UNK        -0.5000 
    109 N         -8.0691  -18.9932  -48.4089 N.am      20 UNK        -0.5000 
    110 CA        -8.5711  -17.6435  -48.6683 C.3       20 UNK         0.1400 
    111 CB       -10.0755  -17.7293  -48.9702 C.3       20 UNK        -0.1800 
    112 C         -7.8312  -16.9305  -49.8195 C.2       20 UNK         0.5000 
    113 O         -7.9109  -15.7048  -49.9132 O.2       20 UNK        -0.5000 
    114 N         -7.1398  -17.6956  -50.6739 N.am      21 UNK        -0.5000 
    115 CA        -6.2878  -17.1951  -51.7490 C.3       21 UNK         0.1400 
    116 CB        -6.4639  -18.1075  -52.9749 C.3       21 UNK        -0.1800 
    117 C         -4.8209  -17.1831  -51.2865 C.2       21 UNK         0.5000 
    118 O         -4.4922  -17.7787  -50.2570 O.2       21 UNK        -0.5000 
    119 N         -3.9580  -16.5153  -52.0650 N.am      22 UNK        -0.5000 
    120 CA        -2.4949  -16.4235  -51.8878 C.3       22 UNK         0.1400 
    121 C         -2.0451  -15.6031  -50.6402 C.2       22 UNK         0.5000 
    122 N         -2.6243  -15.8241  -49.4698 N.am      22 UNK        -0.7600 
    123 O         -1.1700  -14.7482  -50.7452 O.2       22 UNK        -0.5000 
    124 C124       -1.8312  -17.8282  -51.9586 C.3       23 UNK        -0.0398 
    125 S125       -0.0089  -17.8452  -52.0707 S.3       23 UNK        -0.2404 
    126 C126        0.3957  -18.0393  -50.3096 C.3       23 UNK        -0.0205 
    127 H127        3.6550  -10.7292  -45.6007 H         1 UNK         0.0600 
    128 H128        3.7022  -12.4805  -45.4452 H         1 UNK         0.0600 
    129 H129        3.2695  -11.7305  -46.9925 H         1 UNK         0.0600 
    130 H130        6.8937  -12.6418  -47.4291 H         1 UNK         0.3000 
    131 H131        4.4803  -14.1556  -46.8733 H         1 UNK         0.0600 
    132 H132        6.7384  -15.0181  -48.7489 H         1 UNK         0.0800 
    133 H133        6.9223  -15.0765  -47.0213 H         1 UNK         0.0800 
    134 H134        6.2428  -17.6838  -49.6683 H         1 UNK         0.0800 
    135 H135        5.1674  -16.3675  -50.0821 H         1 UNK         0.0800 
    136 H136        2.7013  -16.6481  -49.9792 H         1 UNK         0.1150 
    137 H137        1.1668  -20.6368  -50.1075 H         1 UNK         0.1150 
    138 H138        5.3315  -19.9657  -49.3201 H         1 UNK         0.1150 
    139 H139        2.6087  -22.5150  -49.9043 H         1 UNK         0.0800 
    140 H140        4.3176  -22.2842  -50.1617 H         1 UNK         0.0800 
    141 H141        2.0213  -20.8013  -47.3928 H         1 UNK         0.0800 
    142 H142        2.8252  -21.3444  -45.9617 H         1 UNK         0.0800 
    143 H143        1.7247  -23.6314  -46.2717 H         1 UNK         0.0600 
    144 H144        0.5815  -21.2956  -45.1625 H         1 UNK         0.3000 
    145 H145       -2.2811  -22.8873  -43.6853 H         1 UNK         0.0600 
    146 H146       -1.2841  -21.7368  -41.7154 H         1 UNK         0.0600 
    147 H147       -0.3818  -23.1924  -42.1123 H         1 UNK         0.0600 
    148 H148        0.2650  -21.6160  -42.5460 H         1 UNK         0.0600 
    149 H149       -1.4576  -20.1671  -43.6947 H         1 UNK         0.3000 
    150 H150       -3.0948  -19.1925  -46.7305 H         1 UNK         0.0600 
    151 H151       -4.7883  -19.1785  -44.8574 H         1 UNK         0.0600 
    152 H152       -4.1468  -17.5942  -45.2229 H         1 UNK         0.0600 
    153 H153       -3.5879  -18.4675  -43.7936 H         1 UNK         0.0600 
    154 H154       -1.4486  -17.8375  -44.7718 H         1 UNK         0.3000 
    155 H155        1.6599  -18.3617  -46.4218 H         1 UNK         0.0600 
    156 H156       -0.0260  -15.8202  -46.2039 H         1 UNK         0.0600 
    157 H157        1.7209  -15.8939  -46.4132 H         1 UNK         0.0600 
    158 H158        0.6549  -16.4602  -47.6879 H         1 UNK         0.0600 
    159 H159        0.7633  -16.8417  -44.1171 H         1 UNK         0.3000 
    160 H160        1.2793  -19.4698  -41.7591 H         1 UNK         0.0600 
    161 H161        3.0392  -17.0219  -42.3164 H         1 UNK         0.0600 
    162 H162        3.6103  -18.6828  -42.2089 H         1 UNK         0.0600 
    163 H163        2.9320  -17.9006  -40.7902 H         1 UNK         0.0600 
    164 H164        0.7588  -16.7187  -41.3594 H         1 UNK         0.3000 
    165 H165       -2.5535  -17.1338  -40.6882 H         1 UNK         0.0600 
    166 H166       -1.7983  -14.8721  -40.0515 H         1 UNK         0.0600 
    167 H167       -0.5679  -16.0462  -39.6288 H         1 UNK         0.0600 
    168 H168       -0.3561  -15.0162  -41.0449 H         1 UNK         0.0600 
    169 H169       -3.5670  -16.0076  -42.3050 H         1 UNK         0.3000 
    170 H170       -3.2495  -15.4798  -45.2606 H         1 UNK         0.0600 
    171 H171       -4.9459  -15.2720  -43.4970 H         1 UNK         0.0600 
    172 H172       -4.2793  -13.7261  -42.9653 H         1 UNK         0.0600 
    173 H173       -5.0547  -13.8710  -44.5390 H         1 UNK         0.0600 
    174 H174       -2.3420  -12.7654  -44.4187 H         1 UNK         0.3000 
    175 H175       -1.9467  -11.3017  -46.3469 H         1 UNK         0.0600 
    176 H176        0.7449  -12.8019  -46.1891 H         1 UNK         0.0600 
    177 H177        0.5645  -11.0496  -46.1758 H         1 UNK         0.0600 
    178 H178       -0.0520  -12.0053  -44.8383 H         1 UNK         0.0600 
    179 H179       -1.0444  -12.9933  -48.5163 H         1 UNK         0.3000 
    180 H180       -1.5476  -11.5724  -50.7919 H         1 UNK         0.0600 
    181 H181        0.7776   -9.5806  -50.6298 H         1 UNK         0.0600 
    182 H182       -0.8806   -9.2274  -51.0888 H         1 UNK         0.0600 
    183 H183        0.1128  -10.2408  -52.1235 H         1 UNK         0.0600 
    184 H184       -0.1138  -13.2406  -50.8169 H         1 UNK         0.3000 
    185 H185        1.4481  -14.5909  -49.9268 H         1 UNK         0.0600 
    186 H186        3.3147  -15.0565  -51.5890 H         1 UNK         0.0600 
    187 H187        1.9740  -14.1422  -52.2576 H         1 UNK         0.0600 
    188 H188        3.4681  -13.3200  -51.8468 H         1 UNK         0.0600 
    189 H189        2.9063  -14.6565  -48.2994 H         1 UNK         0.3000 
    190 H190       -0.6690  -21.3120  -47.6555 H         1 UNK         0.3000 
    191 H191       -0.9840  -22.5545  -50.1725 H         1 UNK         0.0600 
    192 H192       -3.0378  -20.9923  -48.5187 H         1 UNK         0.0600 
    193 H193       -3.1732  -21.3551  -50.2293 H         1 UNK         0.0600 
    194 H194       -1.8874  -20.3088  -49.6555 H         1 UNK         0.0600 
    195 H195       -2.7542  -23.1372  -47.0892 H         1 UNK         0.3000 
    196 H196       -4.4403  -25.2009  -48.0176 H         1 UNK         0.0600 
    197 H197       -4.7285  -25.7246  -45.6058 H         1 UNK         0.0600 
    198 H198       -4.7758  -23.9884  -45.8721 H         1 UNK         0.0600 
    199 H199       -3.3327  -24.7360  -45.1976 H         1 UNK         0.0600 
    200 H200       -1.1593  -25.4083  -46.5537 H         1 UNK         0.3000 
    201 H201       -0.9056  -28.2336  -46.6237 H         1 UNK         0.0600 
    202 H202        0.5562  -26.7546  -45.2669 H         1 UNK         0.0600 
    203 H203        1.2578  -26.0657  -46.7294 H         1 UNK         0.0600 
    204 H204        1.5238  -27.7590  -46.3362 H         1 UNK         0.0600 
    205 H205       -0.2434  -25.7690  -49.1018 H         1 UNK         0.3000 
    206 H206        0.8259  -27.6113  -51.0701 H         1 UNK         0.0600 
    207 H207        1.4550  -25.1986  -50.9869 H         1 UNK         0.0600 
    208 H208        0.7391  -25.6106  -52.5364 H         1 UNK         0.0600 
    209 H209       -0.2090  -24.7395  -51.3391 H         1 UNK         0.0600 
    210 H210       -2.2672  -27.3316  -49.8871 H         1 UNK         0.3000 
    211 H211       -4.2521  -28.0670  -50.4158 H         1 UNK         0.0600 
    212 H212       -3.0995  -29.3717  -52.9318 H         1 UNK         0.0600 
    213 H213       -4.6060  -29.7771  -52.1254 H         1 UNK         0.0600 
    214 H214       -3.0779  -30.0911  -51.3214 H         1 UNK         0.0600 
    215 H215       -3.3765  -25.4313  -51.2927 H         1 UNK         0.3000 
    216 H216       -5.3290  -24.8021  -53.4567 H         1 UNK         0.0600 
    217 H217       -4.2856  -22.5515  -53.3674 H         1 UNK         0.0600 
    218 H218       -3.0404  -23.7627  -53.6226 H         1 UNK         0.0600 
    219 H219       -3.2541  -23.0397  -52.0317 H         1 UNK         0.0600 
    220 H220       -6.6327  -22.7597  -52.8627 H         1 UNK         0.3000 
    221 H221       -8.1521  -23.1805  -50.4358 H         1 UNK         0.0600 
    222 H222       -8.1828  -20.8956  -52.4864 H         1 UNK         0.0600 
    223 H223       -9.2131  -22.3265  -52.5164 H         1 UNK         0.0600 
    224 H224       -9.3795  -21.1501  -51.2227 H         1 UNK         0.0600 
    225 H225       -7.7740  -22.3018  -48.4556 H         1 UNK         0.3000 
    226 H226       -5.4280  -20.8082  -47.8611 H         1 UNK         0.0600 
    227 H227       -6.5127  -22.4090  -46.2909 H         1 UNK         0.0600 
    228 H228       -6.3525  -20.8274  -45.5506 H         1 UNK         0.0600 
    229 H229       -7.9184  -21.3529  -46.1558 H         1 UNK         0.0600 
    230 H230       -8.6037  -19.7573  -48.7936 H         1 UNK         0.3000 
    231 H231       -8.4364  -17.0415  -47.7671 H         1 UNK         0.0600 
    232 H232      -10.4977  -16.7377  -49.1386 H         1 UNK         0.0600 
    233 H233      -10.6206  -18.1754  -48.1381 H         1 UNK         0.0600 
    234 H234      -10.2738  -18.3260  -49.8616 H         1 UNK         0.0600 
    235 H235       -7.0207  -18.6785  -50.4595 H         1 UNK         0.3000 
    236 H236       -6.5760  -16.1784  -52.0237 H         1 UNK         0.0600 
    237 H237       -7.5093  -18.1610  -53.2791 H         1 UNK         0.0600 
    238 H238       -5.8976  -17.7343  -53.8287 H         1 UNK         0.0600 
    239 H239       -6.1218  -19.1236  -52.7755 H         1 UNK         0.0600 
    240 H240       -4.3208  -16.0264  -52.8709 H         1 UNK         0.3000 
    241 H241       -2.1420  -15.8634  -52.7549 H         1 UNK         0.0600 
    242 H242       -3.3455  -16.5369  -49.4127 H         1 UNK         0.3800 
    243 H243       -2.3591  -15.2948  -48.6425 H         1 UNK         0.3800 
    244 H244       -2.1474  -18.4444  -51.1178 H         1 UNK         0.0800 
    245 H245       -2.1989  -18.3481  -52.8441 H         1 UNK         0.0800 
    246 H246        0.2923  -17.0724  -49.8201 H         1 UNK         0.0800 
    247 H247       -0.3198  -18.7004  -49.8247 H         1 UNK         0.0800 
@<TRIPOS>BOND
     1    1    2 1    
     2    1  127 1    
     3    1  128 1    
     4    1  129 1    
     5    2    3 2    
     6    2    4 am   BACKBONE|DICT|INTERRES
     7    4    5 1    
     8    4  130 1    
     9    5    6 1    
    10    5   65 1    
    11    5  131 1    
    12    6    7 1    
    13    6  132 1    
    14    6  133 1    
    15    7    8 1    
    16    8    9 1    
    17    8  134 1    
    18    8  135 1    
    19    9   10 ar   
    20    9   14 ar   
    21   10   11 ar   
    22   10  136 1    
    23   11   12 ar   
    24   11  126 1    
    25   12   13 ar   
    26   12  137 1    
    27   13   14 ar   
    28   13   15 1    
    29   14  138 1    
    30   15   16 1    
    31   15  139 1    
    32   15  140 1    
    33   16   17 1    
    34   17   18 1    
    35   17  141 1    
    36   17  142 1    
    37   18   19 1    
    38   18   67 1    
    39   18  143 1    
    40   19   20 am   BACKBONE|DICT|INTERRES
    41   19  144 1    
    42   20   21 2    
    43   20   22 1    
    44   22   23 1    
    45   22   24 1    
    46   22  145 1    
    47   23  146 1    
    48   23  147 1    
    49   23  148 1    
    50   24   25 am   BACKBONE|DICT|INTERRES
    51   24  149 1    
    52   25   26 2    
    53   25   27 1    
    54   27   28 1    
    55   27   29 1    
    56   27  150 1    
    57   28  151 1    
    58   28  152 1    
    59   28  153 1    
    60   29   30 am   BACKBONE|DICT|INTERRES
    61   29  154 1    
    62   30   31 2    
    63   30   32 1    
    64   32   33 1    
    65   32   34 1    
    66   32  155 1    
    67   33  156 1    
    68   33  157 1    
    69   33  158 1    
    70   34   35 am   BACKBONE|DICT|INTERRES
    71   34  159 1    
    72   35   36 2    
    73   35   37 1    
    74   37   38 1    
    75   37   39 1    
    76   37  160 1    
    77   38  161 1    
    78   38  162 1    
    79   38  163 1    
    80   39   40 am   BACKBONE|DICT|INTERRES
    81   39  164 1    
    82   40   41 2    
    83   40   42 1    
    84   42   43 1    
    85   42   44 1    
    86   42  165 1    
    87   43  166 1    
    88   43  167 1    
    89   43  168 1    
    90   44   45 am   BACKBONE|DICT|INTERRES
    91   44  169 1    
    92   45   46 2    
    93   45   47 1    
    94   47   48 1    
    95   47   49 1    
    96   47  170 1    
    97   48  171 1    
    98   48  172 1    
    99   48  173 1    
   100   49   50 am   BACKBONE|DICT|INTERRES
   101   49  174 1    
   102   50   51 2    
   103   50   52 1    
   104   52   53 1    
   105   52   54 1    
   106   52  175 1    
   107   53  176 1    
   108   53  177 1    
   109   53  178 1    
   110   54   55 am   BACKBONE|DICT|INTERRES
   111   54  179 1    
   112   55   56 2    
   113   55   57 1    
   114   57   58 1    
   115   57   59 1    
   116   57  180 1    
   117   58  181 1    
   118   58  182 1    
   119   58  183 1    
   120   59   60 am   BACKBONE|DICT|INTERRES
   121   59  184 1    
   122   60   61 2    
   123   60   62 1    
   124   62   63 1    
   125   62   64 1    
   126   62  185 1    
   127   63  186 1    
   128   63  187 1    
   129   63  188 1    
   130   64   65 am   BACKBONE|DICT|INTERRES
   131   64  189 1    
   132   65   66 2    
   133   67   68 2    
   134   67   69 am   BACKBONE|DICT|INTERRES
   135   69   70 1    
   136   69  190 1    
   137   70   71 1    
   138   70   72 1    
   139   70  191 1    
   140   71  192 1    
   141   71  193 1    
   142   71  194 1    
   143   72   73 2    
   144   72   74 am   BACKBONE|DICT|INTERRES
   145   74   75 1    
   146   74  195 1    
   147   75   76 1    
   148   75   77 1    
   149   75  196 1    
   150   76  197 1    
   151   76  198 1    
   152   76  199 1    
   153   77   78 2    
   154   77   79 am   BACKBONE|DICT|INTERRES
   155   79   80 1    
   156   79  200 1    
   157   80   81 1    
   158   80   82 1    
   159   80  201 1    
   160   81  202 1    
   161   81  203 1    
   162   81  204 1    
   163   82   83 2    
   164   82   84 am   BACKBONE|DICT|INTERRES
   165   84   85 1    
   166   84  205 1    
   167   85   86 1    
   168   85   87 1    
   169   85  206 1    
   170   86  207 1    
   171   86  208 1    
   172   86  209 1    
   173   87   88 2    
   174   87   89 am   BACKBONE|DICT|INTERRES
   175   89   90 1    
   176   89  210 1    
   177   90   91 1    
   178   90   92 1    
   179   90  211 1    
   180   91  212 1    
   181   91  213 1    
   182   91  214 1    
   183   92   93 2    
   184   92   94 am   BACKBONE|DICT|INTERRES
   185   94   95 1    
   186   94  215 1    
   187   95   96 1    
   188   95   97 1    
   189   95  216 1    
   190   96  217 1    
   191   96  218 1    
   192   96  219 1    
   193   97   98 2    
   194   97   99 am   BACKBONE|DICT|INTERRES
   195   99  100 1    
   196   99  220 1    
   197  100  101 1    
   198  100  102 1    
   199  100  221 1    
   200  101  222 1    
   201  101  223 1    
   202  101  224 1    
   203  102  103 2    
   204  102  104 am   BACKBONE|DICT|INTERRES
   205  104  105 1    
   206  104  225 1    
   207  105  106 1    
   208  105  107 1    
   209  105  226 1    
   210  106  227 1    
   211  106  228 1    
   212  106  229 1    
   213  107  108 2    
   214  107  109 am   BACKBONE|DICT|INTERRES
   215  109  110 1    
   216  109  230 1    
   217  110  111 1    
   218  110  112 1    
   219  110  231 1    
   220  111  232 1    
   221  111  233 1    
   222  111  234 1    
   223  112  113 2    
   224  112  114 am   BACKBONE|DICT|INTERRES
   225  114  115 1    
   226  114  235 1    
   227  115  116 1    
   228  115  117 1    
   229  115  236 1    
   230  116  237 1    
   231  116  238 1    
   232  116  239 1    
   233  117  118 2    
   234  117  119 am   BACKBONE|DICT|INTERRES
   235  119  120 1    
   236  119  240 1    
   237  120  121 1    
   238  120  124 1    
   239  120  241 1    
   240  121  122 am   BACKBONE|DICT|INTERRES
   241  121  123 2    
   242  122  242 1    
   243  122  243 1    
   244  124  125 1    
   245  124  244 1    
   246  124  245 1    
   247  125  126 1    
   248  126  246 1    
   249  126  247 1    
@<TRIPOS>SUBSTRUCTURE
     1 UNK         1 GROUP             0       ****    0 ROOT    
