@<TRIPOS>MOLECULE
3R540
247   249    1
SMALL
USER_CHARGES


@<TRIPOS>ATOM
      1 CA         -1.2619  -10.9248  -47.1589 C.3       0 UNK        -0.1800 
      2 C           0.1627  -11.2699  -47.5707 C.2       0 UNK         0.5000 
      3 O           0.9992  -10.3747  -47.6956 O.2       0 UNK        -0.5000 
      4 N           0.4350  -12.5615  -47.7895 N.am      1 UNK        -0.5000 
      5 CA          1.7575  -13.1043  -48.1189 C.3       1 UNK         0.1400 
      6 C6          1.6662  -14.5747  -48.5983 C.3       23 UNK        -0.0398 
      7 S7          0.7833  -14.7114  -50.1908 S.3       23 UNK        -0.2404 
      8 C8          2.1123  -15.2466  -51.3171 C.3       23 UNK        -0.0205 
      9 C9          2.1733  -16.7630  -51.4286 C.ar      23 UNK        -0.0193 
     10 C10         1.5645  -17.4087  -52.5093 C.ar      23 UNK        -0.1150 
     11 C11         1.6022  -18.8017  -52.6199 C.ar      23 UNK        -0.0193 
     12 C12         2.2542  -19.5497  -51.6367 C.ar      23 UNK        -0.1150 
     13 C13         2.8443  -18.9192  -50.5382 C.ar      23 UNK        -0.0193 
     14 C14         2.8228  -17.5240  -50.4518 C.ar      23 UNK        -0.1150 
     15 C15         3.4550  -19.7555  -49.4219 C.3       23 UNK        -0.0205 
     16 S16         2.5858  -19.5401  -47.8306 S.3       23 UNK        -0.2404 
     17 C17         0.8369  -19.8533  -48.2610 C.3       23 UNK        -0.0398 
     18 CA          0.2728  -21.1549  -47.6474 C.3       11 UNK         0.1400 
     19 N           0.2242  -21.1290  -46.1813 N.am      11 UNK        -0.5000 
     20 C          -0.1113  -22.1729  -45.4092 C.2       10 UNK         0.5000 
     21 O          -0.3426  -23.2991  -45.8489 O.2       10 UNK        -0.5000 
     22 CA         -0.2814  -21.9050  -43.9016 C.3       10 UNK         0.1400 
     23 CB          1.0689  -21.9330  -43.1701 C.3       10 UNK        -0.1800 
     24 N          -0.9746  -20.6425  -43.6367 N.am      10 UNK        -0.5000 
     25 C          -2.2584  -20.4139  -43.9504 C.2       9 UNK         0.5000 
     26 O          -3.0000  -21.2663  -44.4379 O.2       9 UNK        -0.5000 
     27 CA         -2.7970  -18.9885  -43.7274 C.3       9 UNK         0.1400 
     28 CB         -3.2426  -18.7959  -42.2706 C.3       9 UNK        -0.1800 
     29 N          -1.8296  -17.9525  -44.0891 N.am      9 UNK        -0.5000 
     30 C          -1.3568  -17.7499  -45.3271 C.2       8 UNK         0.5000 
     31 O          -1.7408  -18.3773  -46.3130 O.2       8 UNK        -0.5000 
     32 CA         -0.2195  -16.7209  -45.4799 C.3       8 UNK         0.1400 
     33 CB         -0.7781  -15.2934  -45.5708 C.3       8 UNK        -0.1800 
     34 N           0.7644  -16.8024  -44.3978 N.am      8 UNK        -0.5000 
     35 C           1.4991  -17.8917  -44.1276 C.2       7 UNK         0.5000 
     36 O           1.4470  -18.9273  -44.7863 O.2       7 UNK        -0.5000 
     37 CA          2.3817  -17.8475  -42.8710 C.3       7 UNK         0.1400 
     38 CB          3.7134  -17.1353  -43.1510 C.3       7 UNK        -0.1800 
     39 N           1.6833  -17.1974  -41.7632 N.am      7 UNK        -0.5000 
     40 C           0.6919  -17.7696  -41.0651 C.2       6 UNK         0.5000 
     41 O           0.3167  -18.9291  -41.2409 O.2       6 UNK        -0.5000 
     42 CA         -0.0238  -16.8883  -40.0225 C.3       6 UNK         0.1400 
     43 CB          0.7209  -16.9281  -38.6798 C.3       6 UNK        -0.1800 
     44 N          -0.1645  -15.4962  -40.4551 N.am      6 UNK        -0.5000 
     45 C          -0.9304  -15.0952  -41.4798 C.2       5 UNK         0.5000 
     46 O          -1.6487  -15.8547  -42.1273 O.2       5 UNK        -0.5000 
     47 CA         -0.8432  -13.6093  -41.8845 C.3       5 UNK         0.1400 
     48 CB         -1.9157  -12.7901  -41.1518 C.3       5 UNK        -0.1800 
     49 N           0.4713  -12.9992  -41.6566 N.am      5 UNK        -0.5000 
     50 C           1.6259  -13.4379  -42.1754 C.2       4 UNK         0.5000 
     51 O           1.7163  -14.4394  -42.8900 O.2       4 UNK        -0.5000 
     52 CA          2.8907  -12.6685  -41.7717 C.3       4 UNK         0.1400 
     53 CB          3.1808  -12.8499  -40.2674 C.3       4 UNK        -0.1800 
     54 N           4.0187  -13.1606  -42.5561 N.am      4 UNK        -0.5000 
     55 C           5.1961  -12.5443  -42.7027 C.2       3 UNK         0.5000 
     56 O           5.4487  -11.4383  -42.2243 O.2       3 UNK        -0.5000 
     57 CA          6.2877  -13.2764  -43.5081 C.3       3 UNK         0.1400 
     58 CB          7.3516  -13.8413  -42.5540 C.3       3 UNK        -0.1800 
     59 N           5.7734  -14.3810  -44.3249 N.am      3 UNK        -0.5000 
     60 C           5.2302  -14.3164  -45.5489 C.2       2 UNK         0.5000 
     61 O           4.8422  -15.3345  -46.1231 O.2       2 UNK        -0.5000 
     62 CA          5.1336  -12.9573  -46.2836 C.3       2 UNK         0.1400 
     63 CB          6.4384  -12.6619  -47.0431 C.3       2 UNK        -0.1800 
     64 N           4.0350  -12.9397  -47.2486 N.am      2 UNK        -0.5000 
     65 C           2.7356  -12.9832  -46.9300 C.2       1 UNK         0.5000 
     66 O           2.3140  -12.9536  -45.7715 O.2       1 UNK        -0.5000 
     67 C          -1.1089  -21.4697  -48.2572 C.2       11 UNK         0.5000 
     68 O          -1.1919  -22.3060  -49.1547 O.2       11 UNK        -0.5000 
     69 N          -2.1696  -20.8289  -47.7437 N.am      12 UNK        -0.5000 
     70 CA         -3.5553  -21.0732  -48.1464 C.3       12 UNK         0.1400 
     71 CB         -4.4840  -20.0384  -47.4969 C.3       12 UNK        -0.1800 
     72 C          -4.0216  -22.5058  -47.8311 C.2       12 UNK         0.5000 
     73 O          -4.6750  -23.1239  -48.6715 O.2       12 UNK        -0.5000 
     74 N          -3.6492  -23.0258  -46.6531 N.am      13 UNK        -0.5000 
     75 CA         -3.9032  -24.4063  -46.2385 C.3       13 UNK         0.1400 
     76 CB         -3.5190  -24.5897  -44.7631 C.3       13 UNK        -0.1800 
     77 C          -3.1811  -25.4314  -47.1319 C.2       13 UNK         0.5000 
     78 O          -3.8085  -26.3966  -47.5696 O.2       13 UNK        -0.5000 
     79 N          -1.9000  -25.1757  -47.4383 N.am      14 UNK        -0.5000 
     80 CA         -1.0863  -25.9668  -48.3687 C.3       14 UNK         0.1400 
     81 CB          0.3663  -25.4693  -48.3288 C.3       14 UNK        -0.1800 
     82 C          -1.6306  -25.9500  -49.8117 C.2       14 UNK         0.5000 
     83 O          -1.5319  -26.9554  -50.5149 O.2       14 UNK        -0.5000 
     84 N          -2.2487  -24.8281  -50.1997 N.am      15 UNK        -0.5000 
     85 CA         -2.9802  -24.6230  -51.4496 C.3       15 UNK         0.1400 
     86 CB         -3.0124  -23.1159  -51.7475 C.3       15 UNK        -0.1800 
     87 C          -4.4023  -25.2255  -51.4518 C.2       15 UNK         0.5000 
     88 O          -5.1741  -24.9090  -52.3579 O.2       15 UNK        -0.5000 
     89 N          -4.7311  -26.0623  -50.4552 N.am      16 UNK        -0.5000 
     90 CA         -5.9943  -26.7814  -50.2642 C.3       16 UNK         0.1400 
     91 CB         -6.2340  -27.7925  -51.4048 C.3       16 UNK        -0.1800 
     92 C          -7.1790  -25.8259  -50.0295 C.2       16 UNK         0.5000 
     93 O          -8.2002  -25.9182  -50.7120 O.2       16 UNK        -0.5000 
     94 N          -6.9931  -24.9118  -49.0664 N.am      17 UNK        -0.5000 
     95 CA         -7.8910  -23.8116  -48.6973 C.3       17 UNK         0.1400 
     96 CB         -9.2457  -24.3340  -48.1739 C.3       17 UNK        -0.1800 
     97 C          -8.0208  -22.7838  -49.8390 C.2       17 UNK         0.5000 
     98 O          -9.1255  -22.3462  -50.1660 O.2       17 UNK        -0.5000 
     99 N          -6.8637  -22.4352  -50.4203 N.am      18 UNK        -0.5000 
    100 CA        -6.6682  -21.5235  -51.5495 C.3       18 UNK         0.1400 
    101 CB        -6.9509  -20.0676  -51.1273 C.3       18 UNK        -0.1800 
    102 C         -7.4334  -21.9565  -52.8188 C.2       18 UNK         0.5000 
    103 O         -8.0674  -21.1286  -53.4769 O.2       18 UNK        -0.5000 
    104 N         -7.3472  -23.2531  -53.1489 N.am      19 UNK        -0.5000 
    105 CA        -7.7741  -23.7994  -54.4371 C.3       19 UNK         0.1400 
    106 CB        -7.9506  -25.3211  -54.3278 C.3       19 UNK        -0.1800 
    107 C         -6.7562  -23.4373  -55.5338 C.2       19 UNK         0.5000 
    108 O         -7.1559  -23.0583  -56.6357 O.2       19 UNK        -0.5000 
    109 N         -5.4615  -23.5052  -55.1893 N.am      20 UNK        -0.5000 
    110 CA        -4.3820  -22.8632  -55.9392 C.3       20 UNK         0.1400 
    111 CB        -3.0552  -23.5845  -55.6538 C.3       20 UNK        -0.1800 
    112 C         -4.3035  -21.3707  -55.5620 C.2       20 UNK         0.5000 
    113 O         -4.7523  -20.9842  -54.4788 O.2       20 UNK        -0.5000 
    114 N         -3.7367  -20.5560  -56.4600 N.am      21 UNK        -0.5000 
    115 CA        -3.6907  -19.0900  -56.3947 C.3       21 UNK         0.1400 
    116 CB        -3.3941  -18.5515  -57.8066 C.3       21 UNK        -0.1800 
    117 C         -2.7254  -18.5205  -55.3272 C.2       21 UNK         0.5000 
    118 O         -1.8686  -17.6935  -55.6457 O.2       21 UNK        -0.5000 
    119 N         -2.8925  -18.9643  -54.0791 N.am      22 UNK        -0.5000 
    120 CA        -2.1469  -18.5196  -52.8901 C.3       22 UNK         0.1400 
    121 C         -3.0264  -17.7230  -51.8822 C.2       22 UNK         0.5000 
    122 N         -4.2873  -17.4318  -52.1806 N.am      22 UNK        -0.7600 
    123 O         -2.5563  -17.3491  -50.8124 O.2       22 UNK        -0.5000 
    124 C124       -1.4257  -19.6973  -52.1841 C.3       23 UNK        -0.0398 
    125 S125       -0.3516  -20.6951  -53.2777 S.3       23 UNK        -0.2404 
    126 C126        0.9256  -19.4975  -53.7936 C.3       23 UNK        -0.0205 
    127 H127       -1.2617  -10.4327  -46.1862 H         1 UNK         0.0600 
    128 H128       -1.8906  -11.8129  -47.0895 H         1 UNK         0.0600 
    129 H129       -1.7094  -10.2468  -47.8856 H         1 UNK         0.0600 
    130 H130       -0.2983  -13.2448  -47.6768 H         1 UNK         0.3000 
    131 H131        2.1641  -12.5029  -48.9353 H         1 UNK         0.0600 
    132 H132        2.6610  -15.0099  -48.7004 H         1 UNK         0.0800 
    133 H133        1.1506  -15.1903  -47.8612 H         1 UNK         0.0800 
    134 H134        3.0761  -14.8497  -50.9954 H         1 UNK         0.0800 
    135 H135        1.9255  -14.8105  -52.2996 H         1 UNK         0.0800 
    136 H136        1.0546  -16.8244  -53.2625 H         1 UNK         0.1150 
    137 H137        2.2667  -20.6282  -51.7115 H         1 UNK         0.1150 
    138 H138        3.2826  -17.0387  -49.6033 H         1 UNK         0.1150 
    139 H139        3.4500  -20.8150  -49.6825 H         1 UNK         0.0800 
    140 H140        4.5013  -19.4744  -49.2956 H         1 UNK         0.0800 
    141 H141        0.7284  -19.8823  -49.3445 H         1 UNK         0.0800 
    142 H142        0.2548  -18.9915  -47.9344 H         1 UNK         0.0800 
    143 H143        0.9385  -21.9724  -47.9321 H         1 UNK         0.0600 
    144 H144        0.4751  -20.2512  -45.7326 H         1 UNK         0.3000 
    145 H145       -0.8951  -22.7098  -43.4916 H         1 UNK         0.0600 
    146 H146        0.9420  -21.7617  -42.1010 H         1 UNK         0.0600 
    147 H147        1.5528  -22.9030  -43.2898 H         1 UNK         0.0600 
    148 H148        1.7568  -21.1788  -43.5499 H         1 UNK         0.0600 
    149 H149       -0.4279  -19.8957  -43.2277 H         1 UNK         0.3000 
    150 H150       -3.6723  -18.8617  -44.3674 H         1 UNK         0.0600 
    151 H151       -3.9788  -19.5481  -41.9846 H         1 UNK         0.0600 
    152 H152       -3.7032  -17.8186  -42.1258 H         1 UNK         0.0600 
    153 H153       -2.4044  -18.8761  -41.5782 H         1 UNK         0.0600 
    154 H154       -1.5202  -17.3378  -43.3415 H         1 UNK         0.3000 
    155 H155        0.3061  -16.9427  -46.4105 H         1 UNK         0.0600 
    156 H156       -1.4219  -15.0584  -44.7241 H         1 UNK         0.0600 
    157 H157       -1.3742  -15.1696  -46.4755 H         1 UNK         0.0600 
    158 H158        0.0219  -14.5536  -45.5976 H         1 UNK         0.0600 
    159 H159        0.9006  -15.9735  -43.8274 H         1 UNK         0.3000 
    160 H160        2.6080  -18.8758  -42.5807 H         1 UNK         0.0600 
    161 H161        3.5606  -16.1225  -43.5200 H         1 UNK         0.0600 
    162 H162        4.2837  -17.6711  -43.9108 H         1 UNK         0.0600 
    163 H163        4.3315  -17.0810  -42.2548 H         1 UNK         0.0600 
    164 H164        1.8730  -16.2139  -41.6273 H         1 UNK         0.3000 
    165 H165       -1.0241  -17.2998  -39.8711 H         1 UNK         0.0600 
    166 H166        0.1818  -16.3711  -37.9133 H         1 UNK         0.0600 
    167 H167        0.8253  -17.9533  -38.3221 H         1 UNK         0.0600 
    168 H168        1.7229  -16.5048  -38.7612 H         1 UNK         0.0600 
    169 H169        0.3915  -14.8071  -39.9713 H         1 UNK         0.3000 
    170 H170       -1.0451  -13.5496  -42.9550 H         1 UNK         0.0600 
    171 H171       -2.9096  -13.2062  -41.3230 H         1 UNK         0.0600 
    172 H172       -1.7462  -12.7769  -40.0745 H         1 UNK         0.0600 
    173 H173       -1.9331  -11.7582  -41.5028 H         1 UNK         0.0600 
    174 H174        0.4838  -12.1788  -41.0678 H         1 UNK         0.3000 
    175 H175        2.7311  -11.6120  -41.9965 H         1 UNK         0.0600 
    176 H176        3.3442  -13.8986  -40.0155 H         1 UNK         0.0600 
    177 H177        4.0666  -12.2935  -39.9612 H         1 UNK         0.0600 
    178 H178        2.3545  -12.4888  -39.6544 H         1 UNK         0.0600 
    179 H179        3.8359  -14.0289  -43.0432 H         1 UNK         0.3000 
    180 H180        6.7794  -12.5382  -44.1418 H         1 UNK         0.0600 
    181 H181        6.9312  -14.5859  -41.8766 H         1 UNK         0.0600 
    182 H182        7.7894  -13.0515  -41.9418 H         1 UNK         0.0600 
    183 H183        8.1668  -14.3107  -43.1053 H         1 UNK         0.0600 
    184 H184        5.8478  -15.2922  -43.8986 H         1 UNK         0.3000 
    185 H185        4.9469  -12.1576  -45.5661 H         1 UNK         0.0600 
    186 H186        7.3014  -12.6589  -46.3773 H         1 UNK         0.0600 
    187 H187        6.6303  -13.4091  -47.8143 H         1 UNK         0.0600 
    188 H188        6.4009  -11.6850  -47.5256 H         1 UNK         0.0600 
    189 H189        4.3029  -12.9893  -48.2204 H         1 UNK         0.3000 
    190 H190       -2.0173  -20.1031  -47.0477 H         1 UNK         0.3000 
    191 H191       -3.6125  -20.9350  -49.2274 H         1 UNK         0.0600 
    192 H192       -4.4628  -20.1020  -46.4093 H         1 UNK         0.0600 
    193 H193       -5.5167  -20.1877  -47.8146 H         1 UNK         0.0600 
    194 H194       -4.1998  -19.0242  -47.7786 H         1 UNK         0.0600 
    195 H195       -3.1680  -22.4300  -45.9853 H         1 UNK         0.3000 
    196 H196       -4.9764  -24.5859  -46.3296 H         1 UNK         0.0600 
    197 H197       -3.7320  -25.6054  -44.4279 H         1 UNK         0.0600 
    198 H198       -4.0823  -23.9107  -44.1227 H         1 UNK         0.0600 
    199 H199       -2.4585  -24.4042  -44.5942 H         1 UNK         0.0600 
    200 H200       -1.4434  -24.3781  -47.0029 H         1 UNK         0.3000 
    201 H201       -1.1011  -27.0024  -48.0233 H         1 UNK         0.0600 
    202 H202        0.7807  -25.5430  -47.3232 H         1 UNK         0.0600 
    203 H203        0.4445  -24.4294  -48.6465 H         1 UNK         0.0600 
    204 H204        1.0012  -26.0629  -48.9875 H         1 UNK         0.0600 
    205 H205       -2.2107  -24.0286  -49.5762 H         1 UNK         0.3000 
    206 H206       -2.4341  -25.1129  -52.2579 H         1 UNK         0.0600 
    207 H207       -2.0020  -22.7401  -51.9003 H         1 UNK         0.0600 
    208 H208       -3.5869  -22.8810  -52.6420 H         1 UNK         0.0600 
    209 H209       -3.4562  -22.5534  -50.9293 H         1 UNK         0.0600 
    210 H210       -4.0465  -26.2098  -49.7239 H         1 UNK         0.3000 
    211 H211       -5.8810  -27.3551  -49.3432 H         1 UNK         0.0600 
    212 H212       -6.3885  -27.2988  -52.3635 H         1 UNK         0.0600 
    213 H213       -7.1171  -28.4008  -51.2063 H         1 UNK         0.0600 
    214 H214       -5.3888  -28.4724  -51.5112 H         1 UNK         0.0600 
    215 H215       -6.0778  -24.8731  -48.6361 H         1 UNK         0.3000 
    216 H216       -7.4061  -23.2879  -47.8722 H         1 UNK         0.0600 
    217 H217       -9.8459  -23.5175  -47.7711 H         1 UNK         0.0600 
    218 H218       -9.1054  -25.0592  -47.3725 H         1 UNK         0.0600 
    219 H219       -9.8329  -24.8102  -48.9594 H         1 UNK         0.0600 
    220 H220       -6.0186  -22.8422  -50.0298 H         1 UNK         0.3000 
    221 H221       -5.6106  -21.5822  -51.8079 H         1 UNK         0.0600 
    222 H222       -7.9997  -19.9160  -50.8708 H         1 UNK         0.0600 
    223 H223       -6.3480  -19.7837  -50.2648 H         1 UNK         0.0600 
    224 H224       -6.7062  -19.3746  -51.9331 H         1 UNK         0.0600 
    225 H225       -6.7762  -23.8675  -52.5759 H         1 UNK         0.3000 
    226 H226       -8.7391  -23.3634  -54.7036 H         1 UNK         0.0600 
    227 H227       -8.6466  -25.5822  -53.5304 H         1 UNK         0.0600 
    228 H228       -8.3471  -25.7329  -55.2564 H         1 UNK         0.0600 
    229 H229       -7.0051  -25.8240  -54.1256 H         1 UNK         0.0600 
    230 H230       -5.2398  -23.8139  -54.2506 H         1 UNK         0.3000 
    231 H231       -4.5909  -22.9423  -57.0082 H         1 UNK         0.0600 
    232 H232       -3.1257  -24.6459  -55.8920 H         1 UNK         0.0600 
    233 H233       -2.7509  -23.4965  -54.6128 H         1 UNK         0.0600 
    234 H234       -2.2494  -23.1697  -56.2603 H         1 UNK         0.0600 
    235 H235       -3.3507  -20.9641  -57.2990 H         1 UNK         0.3000 
    236 H236       -4.6883  -18.7409  -56.1202 H         1 UNK         0.0600 
    237 H237       -3.4181  -17.4611  -57.8254 H         1 UNK         0.0600 
    238 H238       -2.4103  -18.8656  -58.1577 H         1 UNK         0.0600 
    239 H239       -4.1350  -18.9000  -58.5264 H         1 UNK         0.0600 
    240 H240       -3.6048  -19.6756  -53.9298 H         1 UNK         0.3000 
    241 H241       -1.3797  -17.8079  -53.1959 H         1 UNK         0.0600 
    242 H242       -4.8404  -16.9071  -51.5219 H         1 UNK         0.3800 
    243 H243       -4.6854  -17.7089  -53.0628 H         1 UNK         0.3800 
    244 H244       -0.8208  -19.3335  -51.3521 H         1 UNK         0.0800 
    245 H245       -2.1623  -20.3669  -51.7397 H         1 UNK         0.0800 
    246 H246        0.4752  -18.7705  -54.4706 H         1 UNK         0.0800 
    247 H247        1.6836  -20.0235  -54.3751 H         1 UNK         0.0800 
@<TRIPOS>BOND
     1    1    2 1    
     2    1  127 1    
     3    1  128 1    
     4    1  129 1    
     5    2    3 2    
     6    2    4 am   BACKBONE|DICT|INTERRES
     7    4    5 1    
     8    4  130 1    
     9    5    6 1    
    10    5   65 1    
    11    5  131 1    
    12    6    7 1    
    13    6  132 1    
    14    6  133 1    
    15    7    8 1    
    16    8    9 1    
    17    8  134 1    
    18    8  135 1    
    19    9   10 ar   
    20    9   14 ar   
    21   10   11 ar   
    22   10  136 1    
    23   11   12 ar   
    24   11  126 1    
    25   12   13 ar   
    26   12  137 1    
    27   13   14 ar   
    28   13   15 1    
    29   14  138 1    
    30   15   16 1    
    31   15  139 1    
    32   15  140 1    
    33   16   17 1    
    34   17   18 1    
    35   17  141 1    
    36   17  142 1    
    37   18   19 1    
    38   18   67 1    
    39   18  143 1    
    40   19   20 am   BACKBONE|DICT|INTERRES
    41   19  144 1    
    42   20   21 2    
    43   20   22 1    
    44   22   23 1    
    45   22   24 1    
    46   22  145 1    
    47   23  146 1    
    48   23  147 1    
    49   23  148 1    
    50   24   25 am   BACKBONE|DICT|INTERRES
    51   24  149 1    
    52   25   26 2    
    53   25   27 1    
    54   27   28 1    
    55   27   29 1    
    56   27  150 1    
    57   28  151 1    
    58   28  152 1    
    59   28  153 1    
    60   29   30 am   BACKBONE|DICT|INTERRES
    61   29  154 1    
    62   30   31 2    
    63   30   32 1    
    64   32   33 1    
    65   32   34 1    
    66   32  155 1    
    67   33  156 1    
    68   33  157 1    
    69   33  158 1    
    70   34   35 am   BACKBONE|DICT|INTERRES
    71   34  159 1    
    72   35   36 2    
    73   35   37 1    
    74   37   38 1    
    75   37   39 1    
    76   37  160 1    
    77   38  161 1    
    78   38  162 1    
    79   38  163 1    
    80   39   40 am   BACKBONE|DICT|INTERRES
    81   39  164 1    
    82   40   41 2    
    83   40   42 1    
    84   42   43 1    
    85   42   44 1    
    86   42  165 1    
    87   43  166 1    
    88   43  167 1    
    89   43  168 1    
    90   44   45 am   BACKBONE|DICT|INTERRES
    91   44  169 1    
    92   45   46 2    
    93   45   47 1    
    94   47   48 1    
    95   47   49 1    
    96   47  170 1    
    97   48  171 1    
    98   48  172 1    
    99   48  173 1    
   100   49   50 am   BACKBONE|DICT|INTERRES
   101   49  174 1    
   102   50   51 2    
   103   50   52 1    
   104   52   53 1    
   105   52   54 1    
   106   52  175 1    
   107   53  176 1    
   108   53  177 1    
   109   53  178 1    
   110   54   55 am   BACKBONE|DICT|INTERRES
   111   54  179 1    
   112   55   56 2    
   113   55   57 1    
   114   57   58 1    
   115   57   59 1    
   116   57  180 1    
   117   58  181 1    
   118   58  182 1    
   119   58  183 1    
   120   59   60 am   BACKBONE|DICT|INTERRES
   121   59  184 1    
   122   60   61 2    
   123   60   62 1    
   124   62   63 1    
   125   62   64 1    
   126   62  185 1    
   127   63  186 1    
   128   63  187 1    
   129   63  188 1    
   130   64   65 am   BACKBONE|DICT|INTERRES
   131   64  189 1    
   132   65   66 2    
   133   67   68 2    
   134   67   69 am   BACKBONE|DICT|INTERRES
   135   69   70 1    
   136   69  190 1    
   137   70   71 1    
   138   70   72 1    
   139   70  191 1    
   140   71  192 1    
   141   71  193 1    
   142   71  194 1    
   143   72   73 2    
   144   72   74 am   BACKBONE|DICT|INTERRES
   145   74   75 1    
   146   74  195 1    
   147   75   76 1    
   148   75   77 1    
   149   75  196 1    
   150   76  197 1    
   151   76  198 1    
   152   76  199 1    
   153   77   78 2    
   154   77   79 am   BACKBONE|DICT|INTERRES
   155   79   80 1    
   156   79  200 1    
   157   80   81 1    
   158   80   82 1    
   159   80  201 1    
   160   81  202 1    
   161   81  203 1    
   162   81  204 1    
   163   82   83 2    
   164   82   84 am   BACKBONE|DICT|INTERRES
   165   84   85 1    
   166   84  205 1    
   167   85   86 1    
   168   85   87 1    
   169   85  206 1    
   170   86  207 1    
   171   86  208 1    
   172   86  209 1    
   173   87   88 2    
   174   87   89 am   BACKBONE|DICT|INTERRES
   175   89   90 1    
   176   89  210 1    
   177   90   91 1    
   178   90   92 1    
   179   90  211 1    
   180   91  212 1    
   181   91  213 1    
   182   91  214 1    
   183   92   93 2    
   184   92   94 am   BACKBONE|DICT|INTERRES
   185   94   95 1    
   186   94  215 1    
   187   95   96 1    
   188   95   97 1    
   189   95  216 1    
   190   96  217 1    
   191   96  218 1    
   192   96  219 1    
   193   97   98 2    
   194   97   99 am   BACKBONE|DICT|INTERRES
   195   99  100 1    
   196   99  220 1    
   197  100  101 1    
   198  100  102 1    
   199  100  221 1    
   200  101  222 1    
   201  101  223 1    
   202  101  224 1    
   203  102  103 2    
   204  102  104 am   BACKBONE|DICT|INTERRES
   205  104  105 1    
   206  104  225 1    
   207  105  106 1    
   208  105  107 1    
   209  105  226 1    
   210  106  227 1    
   211  106  228 1    
   212  106  229 1    
   213  107  108 2    
   214  107  109 am   BACKBONE|DICT|INTERRES
   215  109  110 1    
   216  109  230 1    
   217  110  111 1    
   218  110  112 1    
   219  110  231 1    
   220  111  232 1    
   221  111  233 1    
   222  111  234 1    
   223  112  113 2    
   224  112  114 am   BACKBONE|DICT|INTERRES
   225  114  115 1    
   226  114  235 1    
   227  115  116 1    
   228  115  117 1    
   229  115  236 1    
   230  116  237 1    
   231  116  238 1    
   232  116  239 1    
   233  117  118 2    
   234  117  119 am   BACKBONE|DICT|INTERRES
   235  119  120 1    
   236  119  240 1    
   237  120  121 1    
   238  120  124 1    
   239  120  241 1    
   240  121  122 am   BACKBONE|DICT|INTERRES
   241  121  123 2    
   242  122  242 1    
   243  122  243 1    
   244  124  125 1    
   245  124  244 1    
   246  124  245 1    
   247  125  126 1    
   248  126  246 1    
   249  126  247 1    
@<TRIPOS>SUBSTRUCTURE
     1 UNK         1 GROUP             0       ****    0 ROOT    
