@<TRIPOS>MOLECULE
3R540
247   249    1
SMALL
USER_CHARGES


@<TRIPOS>ATOM
      1 CA          4.3003  -14.5813  -46.6471 C.3       0 UNK        -0.1800 
      2 C           3.9967  -14.0171  -48.0351 C.2       0 UNK         0.5000 
      3 O           4.6437  -13.0592  -48.4514 O.2       0 UNK        -0.5000 
      4 N           3.0386  -14.5723  -48.7902 N.am      1 UNK        -0.5000 
      5 CA          2.1305  -15.6540  -48.3959 C.3       1 UNK         0.1400 
      6 C6          1.5394  -16.4019  -49.6166 C.3       23 UNK        -0.0398 
      7 S7          0.6221  -15.3451  -50.8013 S.3       23 UNK        -0.2404 
      8 C8          0.1321  -16.5443  -52.0835 C.3       23 UNK        -0.0205 
      9 C9         -0.6019  -17.7363  -51.4911 C.ar      23 UNK        -0.0193 
     10 C10        -1.9274  -17.6171  -51.0647 C.ar      23 UNK        -0.1150 
     11 C11        -2.5722  -18.6968  -50.4537 C.ar      23 UNK        -0.0193 
     12 C12        -1.8812  -19.8960  -50.2631 C.ar      23 UNK        -0.1150 
     13 C13        -0.5665  -20.0340  -50.7171 C.ar      23 UNK        -0.0193 
     14 C14         0.0639  -18.9540  -51.3370 C.ar      23 UNK        -0.1150 
     15 C15         0.1823  -21.3437  -50.5375 C.3       23 UNK        -0.0205 
     16 S16         1.5631  -21.1895  -49.3586 S.3       23 UNK        -0.2404 
     17 C17         0.6994  -20.7667  -47.8076 C.3       23 UNK        -0.0398 
     18 CA          0.4709  -21.9982  -46.9024 C.3       11 UNK         0.1400 
     19 N           0.2989  -21.6134  -45.5020 N.am      11 UNK        -0.5000 
     20 C           0.3764  -22.4607  -44.4676 C.2       10 UNK         0.5000 
     21 O           0.6376  -23.6575  -44.5796 O.2       10 UNK        -0.5000 
     22 CA          0.0535  -21.8779  -43.0821 C.3       10 UNK         0.1400 
     23 CB          1.2972  -21.2170  -42.4730 C.3       10 UNK        -0.1800 
     24 N          -1.0563  -20.9214  -43.1361 N.am      10 UNK        -0.5000 
     25 C          -2.3195  -21.2908  -43.3984 C.2       9 UNK         0.5000 
     26 O          -2.6543  -22.4578  -43.6062 O.2       9 UNK        -0.5000 
     27 CA         -3.3872  -20.1860  -43.4685 C.3       9 UNK         0.1400 
     28 CB         -3.8712  -19.8186  -42.0581 C.3       9 UNK        -0.1800 
     29 N          -2.9630  -18.9684  -44.1564 N.am      9 UNK        -0.5000 
     30 C          -2.5028  -18.8612  -45.4083 C.2       8 UNK         0.5000 
     31 O          -2.2882  -19.8268  -46.1397 O.2       8 UNK        -0.5000 
     32 CA         -2.2132  -17.4399  -45.9346 C.3       8 UNK         0.1400 
     33 CB         -3.4884  -16.7697  -46.4766 C.3       8 UNK        -0.1800 
     34 N          -1.5117  -16.5753  -44.9782 N.am      8 UNK        -0.5000 
     35 C          -1.9083  -16.1210  -43.7800 C.2       7 UNK         0.5000 
     36 O          -3.0473  -16.2740  -43.3349 O.2       7 UNK        -0.5000 
     37 CA         -0.8275  -15.4433  -42.9106 C.3       7 UNK         0.1400 
     38 CB         -1.1667  -15.4818  -41.4066 C.3       7 UNK        -0.1800 
     39 N           0.5253  -15.9699  -43.1302 N.am      7 UNK        -0.5000 
     40 C           0.9389  -17.2425  -43.0186 C.2       6 UNK         0.5000 
     41 O           0.1876  -18.1852  -42.7601 O.2       6 UNK        -0.5000 
     42 CA          2.4387  -17.5222  -43.2219 C.3       6 UNK         0.1400 
     43 CB          2.7375  -17.9809  -44.6590 C.3       6 UNK        -0.1800 
     44 N           3.2859  -16.3763  -42.8797 N.am      6 UNK        -0.5000 
     45 C           4.4586  -16.4664  -42.2354 C.2       5 UNK         0.5000 
     46 O           4.9799  -17.5351  -41.9132 O.2       5 UNK        -0.5000 
     47 CA          5.1795  -15.1486  -41.8745 C.3       5 UNK         0.1400 
     48 CB          6.2539  -14.8225  -42.9230 C.3       5 UNK        -0.1800 
     49 N           4.2813  -14.0001  -41.7477 N.am      5 UNK        -0.5000 
     50 C           3.3132  -13.8715  -40.8308 C.2       4 UNK         0.5000 
     51 O           3.1548  -14.6593  -39.8977 O.2       4 UNK        -0.5000 
     52 CA          2.3362  -12.6848  -40.9849 C.3       4 UNK         0.1400 
     53 CB          2.5948  -11.6369  -39.8909 C.3       4 UNK        -0.1800 
     54 N           2.3201  -12.0033  -42.2884 N.am      4 UNK        -0.5000 
     55 C           2.1165  -12.5617  -43.4888 C.2       3 UNK         0.5000 
     56 O           2.0873  -13.7794  -43.6850 O.2       3 UNK        -0.5000 
     57 CA          1.9563  -11.5916  -44.6733 C.3       3 UNK         0.1400 
     58 CB          3.3295  -11.1196  -45.1747 C.3       3 UNK        -0.1800 
     59 N           1.2331  -12.2136  -45.7822 N.am      3 UNK        -0.5000 
     60 C          -0.0628  -12.5563  -45.7592 C.2       2 UNK         0.5000 
     61 O          -0.8255  -12.2845  -44.8315 O.2       2 UNK        -0.5000 
     62 CA         -0.6024  -13.3341  -46.9736 C.3       2 UNK         0.1400 
     63 CB         -1.4021  -12.4053  -47.8992 C.3       2 UNK        -0.1800 
     64 N           0.4559  -13.9786  -47.7526 N.am      2 UNK        -0.5000 
     65 C           1.0298  -15.1483  -47.4411 C.2       1 UNK         0.5000 
     66 O           0.7511  -15.8011  -46.4370 O.2       1 UNK        -0.5000 
     67 C          -0.7103  -22.8616  -47.3883 C.2       11 UNK         0.5000 
     68 O          -0.4928  -23.8600  -48.0744 O.2       11 UNK        -0.5000 
     69 N          -1.9366  -22.4935  -46.9910 N.am      12 UNK        -0.5000 
     70 CA         -3.1593  -23.2472  -47.2643 C.3       12 UNK         0.1400 
     71 CB         -4.3824  -22.4601  -46.7743 C.3       12 UNK        -0.1800 
     72 C          -3.1345  -24.6717  -46.6823 C.2       12 UNK         0.5000 
     73 O          -3.6002  -25.6005  -47.3412 O.2       12 UNK        -0.5000 
     74 N          -2.5517  -24.8236  -45.4867 N.am      13 UNK        -0.5000 
     75 CA         -2.3018  -26.1155  -44.8553 C.3       13 UNK         0.1400 
     76 CB         -1.9971  -25.9044  -43.3637 C.3       13 UNK        -0.1800 
     77 C          -1.1691  -26.8991  -45.5468 C.2       13 UNK         0.5000 
     78 O          -1.3589  -28.0699  -45.8779 O.2       13 UNK        -0.5000 
     79 N          -0.0093  -26.2531  -45.7330 N.am      14 UNK        -0.5000 
     80 CA          1.2220  -26.8943  -46.1986 C.3       14 UNK         0.1400 
     81 CB          2.4219  -25.9924  -45.8701 C.3       14 UNK        -0.1800 
     82 C           1.2254  -27.2554  -47.6941 C.2       14 UNK         0.5000 
     83 O           1.6669  -28.3496  -48.0476 O.2       14 UNK        -0.5000 
     84 N           0.7676  -26.3284  -48.5438 N.am      15 UNK        -0.5000 
     85 CA          0.8530  -26.4220  -50.0043 C.3       15 UNK         0.1400 
     86 CB          1.4387  -25.1053  -50.5440 C.3       15 UNK        -0.1800 
     87 C          -0.5047  -26.7276  -50.6630 C.2       15 UNK         0.5000 
     88 O          -0.5782  -26.7543  -51.8917 O.2       15 UNK        -0.5000 
     89 N          -1.5518  -26.9346  -49.8498 N.am      16 UNK        -0.5000 
     90 CA         -2.9453  -27.1939  -50.2413 C.3       16 UNK         0.1400 
     91 CB         -3.0671  -28.4975  -51.0593 C.3       16 UNK        -0.1800 
     92 C          -3.6385  -25.9893  -50.9203 C.2       16 UNK         0.5000 
     93 O          -4.6482  -26.1757  -51.6016 O.2       16 UNK        -0.5000 
     94 N          -3.1022  -24.7841  -50.6734 N.am      17 UNK        -0.5000 
     95 CA         -3.5494  -23.4587  -51.1143 C.3       17 UNK         0.1400 
     96 CB         -5.0204  -23.2023  -50.7253 C.3       17 UNK        -0.1800 
     97 C          -3.3109  -23.1643  -52.6070 C.2       17 UNK         0.5000 
     98 O          -3.3182  -24.0654  -53.4469 O.2       17 UNK        -0.5000 
     99 N          -3.1250  -21.8720  -52.9068 N.am      18 UNK        -0.5000 
    100 CA        -3.0044  -21.3412  -54.2665 C.3       18 UNK         0.1400 
    101 CB        -2.2668  -19.9954  -54.2021 C.3       18 UNK        -0.1800 
    102 C         -4.3721  -21.1661  -54.9562 C.2       18 UNK         0.5000 
    103 O         -4.4284  -21.1267  -56.1858 O.2       18 UNK        -0.5000 
    104 N         -5.4383  -21.0444  -54.1502 N.am      19 UNK        -0.5000 
    105 CA        -6.8502  -20.8371  -54.4896 C.3       19 UNK         0.1400 
    106 CB        -7.4088  -21.9935  -55.3405 C.3       19 UNK        -0.1800 
    107 C         -7.1358  -19.4656  -55.1275 C.2       19 UNK         0.5000 
    108 O         -7.8927  -18.6780  -54.5579 O.2       19 UNK        -0.5000 
    109 N         -6.5061  -19.1891  -56.2756 N.am      20 UNK        -0.5000 
    110 CA        -6.6678  -17.9623  -57.0589 C.3       20 UNK         0.1400 
    111 CB        -5.9394  -18.1216  -58.4019 C.3       20 UNK        -0.1800 
    112 C         -6.1797  -16.7024  -56.3214 C.2       20 UNK         0.5000 
    113 O         -6.8141  -15.6521  -56.4262 O.2       20 UNK        -0.5000 
    114 N         -5.0782  -16.8390  -55.5711 N.am      21 UNK        -0.5000 
    115 CA        -4.5342  -15.7839  -54.7142 C.3       21 UNK         0.1400 
    116 CB        -3.0370  -16.0435  -54.4875 C.3       21 UNK        -0.1800 
    117 C         -5.2688  -15.6836  -53.3635 C.2       21 UNK         0.5000 
    118 O         -5.2392  -14.6227  -52.7388 O.2       21 UNK        -0.5000 
    119 N         -5.8895  -16.7872  -52.9290 N.am      22 UNK        -0.5000 
    120 CA        -6.5947  -16.9017  -51.6439 C.3       22 UNK         0.1400 
    121 C         -8.0243  -16.2991  -51.6862 C.2       22 UNK         0.5000 
    122 N         -8.7576  -16.4568  -52.7818 N.am      22 UNK        -0.7600 
    123 O         -8.4695  -15.6843  -50.7213 O.2       22 UNK        -0.5000 
    124 C124       -6.6412  -18.3604  -51.1095 C.3       23 UNK        -0.0398 
    125 S125       -5.0846  -19.2875  -51.3244 S.3       23 UNK        -0.2404 
    126 C126       -4.0250  -18.5806  -50.0313 C.3       23 UNK        -0.0205 
    127 H127        3.4423  -14.4866  -45.9827 H         1 UNK         0.0600 
    128 H128        5.1318  -14.0420  -46.1937 H         1 UNK         0.0600 
    129 H129        4.5854  -15.6314  -46.7054 H         1 UNK         0.0600 
    130 H130        2.8761  -14.1984  -49.7147 H         1 UNK         0.3000 
    131 H131        2.7075  -16.3956  -47.8409 H         1 UNK         0.0600 
    132 H132        2.3440  -16.8984  -50.1609 H         1 UNK         0.0800 
    133 H133        0.8832  -17.2006  -49.2666 H         1 UNK         0.0800 
    134 H134       -0.5066  -16.0458  -52.8128 H         1 UNK         0.0800 
    135 H135        1.0204  -16.8696  -52.6270 H         1 UNK         0.0800 
    136 H136       -2.4514  -16.6813  -51.2005 H         1 UNK         0.1150 
    137 H137       -2.3738  -20.7181  -49.7656 H         1 UNK         0.1150 
    138 H138        1.0875  -19.0552  -51.6696 H         1 UNK         0.1150 
    139 H139       -0.4922  -22.1362  -50.2147 H         1 UNK         0.0800 
    140 H140        0.5791  -21.6605  -51.5030 H         1 UNK         0.0800 
    141 H141        1.3415  -20.0504  -47.2932 H         1 UNK         0.0800 
    142 H142       -0.2302  -20.2310  -48.0023 H         1 UNK         0.0800 
    143 H143        1.3668  -22.6219  -46.9486 H         1 UNK         0.0600 
    144 H144        0.0043  -20.6649  -45.3222 H         1 UNK         0.3000 
    145 H145       -0.2417  -22.7034  -42.4307 H         1 UNK         0.0600 
    146 H146        1.0735  -20.7578  -41.5099 H         1 UNK         0.0600 
    147 H147        2.0858  -21.9524  -42.3099 H         1 UNK         0.0600 
    148 H148        1.7021  -20.4478  -43.1290 H         1 UNK         0.0600 
    149 H149       -0.8349  -19.9417  -42.9824 H         1 UNK         0.3000 
    150 H150       -4.2370  -20.5870  -44.0232 H         1 UNK         0.0600 
    151 H151       -4.2134  -20.7022  -41.5177 H         1 UNK         0.0600 
    152 H152       -4.7061  -19.1186  -42.0977 H         1 UNK         0.0600 
    153 H153       -3.0767  -19.3581  -41.4691 H         1 UNK         0.0600 
    154 H154       -3.0901  -18.0964  -43.6493 H         1 UNK         0.3000 
    155 H155       -1.5281  -17.5586  -46.7759 H         1 UNK         0.0600 
    156 H156       -3.2619  -15.8069  -46.9346 H         1 UNK         0.0600 
    157 H157       -4.2293  -16.6043  -45.6943 H         1 UNK         0.0600 
    158 H158       -3.9578  -17.3902  -47.2399 H         1 UNK         0.0600 
    159 H159       -0.5538  -16.3644  -45.2521 H         1 UNK         0.3000 
    160 H160       -0.8016  -14.3977  -43.2156 H         1 UNK         0.0600 
    161 H161       -1.2681  -16.5051  -41.0433 H         1 UNK         0.0600 
    162 H162       -2.1053  -14.9657  -41.2017 H         1 UNK         0.0600 
    163 H163       -0.3931  -14.9921  -40.8153 H         1 UNK         0.0600 
    164 H164        1.1961  -15.2594  -43.4148 H         1 UNK         0.3000 
    165 H165        2.6698  -18.3498  -42.5485 H         1 UNK         0.0600 
    166 H166        2.6804  -17.1516  -45.3621 H         1 UNK         0.0600 
    167 H167        3.7385  -18.4060  -44.7317 H         1 UNK         0.0600 
    168 H168        2.0338  -18.7459  -44.9894 H         1 UNK         0.0600 
    169 H169        2.9309  -15.4538  -43.1087 H         1 UNK         0.3000 
    170 H170        5.6726  -15.2969  -40.9117 H         1 UNK         0.0600 
    171 H171        6.9630  -15.6451  -43.0254 H         1 UNK         0.0600 
    172 H172        5.8144  -14.6442  -43.9047 H         1 UNK         0.0600 
    173 H173        6.8240  -13.9365  -42.6431 H         1 UNK         0.0600 
    174 H174        4.3265  -13.3087  -42.4811 H         1 UNK         0.3000 
    175 H175        1.3346  -13.0911  -40.8319 H         1 UNK         0.0600 
    176 H176        3.5678  -11.1601  -40.0156 H         1 UNK         0.0600 
    177 H177        1.8334  -10.8567  -39.9017 H         1 UNK         0.0600 
    178 H178        2.5760  -12.0895  -38.8984 H         1 UNK         0.0600 
    179 H179        2.3722  -10.9957  -42.2426 H         1 UNK         0.3000 
    180 H180        1.3857  -10.7232  -44.3375 H         1 UNK         0.0600 
    181 H181        3.9517  -11.9531  -45.4991 H         1 UNK         0.0600 
    182 H182        3.8741  -10.5923  -44.3906 H         1 UNK         0.0600 
    183 H183        3.2280  -10.4318  -46.0144 H         1 UNK         0.0600 
    184 H184        1.7819  -12.4963  -46.5787 H         1 UNK         0.3000 
    185 H185       -1.2810  -14.1020  -46.5964 H         1 UNK         0.0600 
    186 H186       -1.8374  -12.9593  -48.7313 H         1 UNK         0.0600 
    187 H187       -2.2235  -11.9299  -47.3615 H         1 UNK         0.0600 
    188 H188       -0.7773  -11.6128  -48.3129 H         1 UNK         0.0600 
    189 H189        0.7390  -13.5150  -48.6040 H         1 UNK         0.3000 
    190 H190       -2.0454  -21.6192  -46.4817 H         1 UNK         0.3000 
    191 H191       -3.2378  -23.3428  -48.3435 H         1 UNK         0.0600 
    192 H192       -4.4235  -21.4702  -47.2294 H         1 UNK         0.0600 
    193 H193       -5.3069  -22.9770  -47.0342 H         1 UNK         0.0600 
    194 H194       -4.3721  -22.3334  -45.6926 H         1 UNK         0.0600 
    195 H195       -2.2502  -23.9973  -44.9822 H         1 UNK         0.3000 
    196 H196       -3.2130  -26.7134  -44.9272 H         1 UNK         0.0600 
    197 H197       -1.8184  -26.8565  -42.8626 H         1 UNK         0.0600 
    198 H198       -2.8331  -25.4214  -42.8573 H         1 UNK         0.0600 
    199 H199       -1.1145  -25.2822  -43.2129 H         1 UNK         0.0600 
    200 H200        0.0788  -25.2924  -45.4125 H         1 UNK         0.3000 
    201 H201        1.3467  -27.8238  -45.6387 H         1 UNK         0.0600 
    202 H202        2.4945  -25.8082  -44.7981 H         1 UNK         0.0600 
    203 H203        2.3479  -25.0263  -46.3712 H         1 UNK         0.0600 
    204 H204        3.3585  -26.4549  -46.1841 H         1 UNK         0.0600 
    205 H205        0.3838  -25.4575  -48.1804 H         1 UNK         0.3000 
    206 H206        1.5314  -27.2272  -50.2931 H         1 UNK         0.0600 
    207 H207        2.3917  -24.8717  -50.0691 H         1 UNK         0.0600 
    208 H208        1.6186  -25.1655  -51.6179 H         1 UNK         0.0600 
    209 H209        0.7662  -24.2657  -50.3732 H         1 UNK         0.0600 
    210 H210       -1.3817  -26.8832  -48.8546 H         1 UNK         0.3000 
    211 H211       -3.4868  -27.3573  -49.3092 H         1 UNK         0.0600 
    212 H212       -2.6413  -28.3940  -52.0575 H         1 UNK         0.0600 
    213 H213       -4.1121  -28.7843  -51.1820 H         1 UNK         0.0600 
    214 H214       -2.5623  -29.3252  -50.5612 H         1 UNK         0.0600 
    215 H215       -2.2587  -24.7871  -50.1175 H         1 UNK         0.3000 
    216 H216       -2.9307  -22.7598  -50.5542 H         1 UNK         0.0600 
    217 H217       -5.2150  -23.4681  -49.6868 H         1 UNK         0.0600 
    218 H218       -5.7101  -23.7726  -51.3483 H         1 UNK         0.0600 
    219 H219       -5.2801  -22.1515  -50.8418 H         1 UNK         0.0600 
    220 H220       -3.1167  -21.1854  -52.1657 H         1 UNK         0.3000 
    221 H221       -2.4112  -22.0299  -54.8718 H         1 UNK         0.0600 
    222 H222       -2.7897  -19.2839  -53.5629 H         1 UNK         0.0600 
    223 H223       -1.2586  -20.1186  -53.8067 H         1 UNK         0.0600 
    224 H224       -2.1739  -19.5463  -55.1918 H         1 UNK         0.0600 
    225 H225       -5.2477  -21.0441  -53.1582 H         1 UNK         0.3000 
    226 H226       -7.3842  -20.8533  -53.5381 H         1 UNK         0.0600 
    227 H227       -7.2686  -22.9513  -54.8392 H         1 UNK         0.0600 
    228 H228       -8.4790  -21.8686  -55.5092 H         1 UNK         0.0600 
    229 H229       -6.9316  -22.0563  -56.3186 H         1 UNK         0.0600 
    230 H230       -5.8472  -19.8801  -56.6233 H         1 UNK         0.3000 
    231 H231       -7.7332  -17.8342  -57.2610 H         1 UNK         0.0600 
    232 H232       -6.0527  -17.2279  -59.0170 H         1 UNK         0.0600 
    233 H233       -6.3417  -18.9600  -58.9708 H         1 UNK         0.0600 
    234 H234       -4.8712  -18.2929  -58.2629 H         1 UNK         0.0600 
    235 H235       -4.6103  -17.7327  -55.5569 H         1 UNK         0.3000 
    236 H236       -4.6371  -14.8227  -55.2224 H         1 UNK         0.0600 
    237 H237       -2.4964  -16.1026  -55.4322 H         1 UNK         0.0600 
    238 H238       -2.5890  -15.2363  -53.9069 H         1 UNK         0.0600 
    239 H239       -2.8658  -16.9710  -53.9419 H         1 UNK         0.0600 
    240 H240       -5.8997  -17.6055  -53.5167 H         1 UNK         0.3000 
    241 H241       -6.0339  -16.3161  -50.9131 H         1 UNK         0.0600 
    242 H242       -8.4214  -17.0361  -53.5445 H         1 UNK         0.3800 
    243 H243       -9.6853  -16.0660  -52.8220 H         1 UNK         0.3800 
    244 H244       -7.4157  -18.9286  -51.6280 H         1 UNK         0.0800 
    245 H245       -6.9171  -18.3702  -50.0537 H         1 UNK         0.0800 
    246 H246       -4.2801  -17.5348  -49.8576 H         1 UNK         0.0800 
    247 H247       -4.1932  -19.1069  -49.0904 H         1 UNK         0.0800 
@<TRIPOS>BOND
     1    1    2 1    
     2    1  127 1    
     3    1  128 1    
     4    1  129 1    
     5    2    3 2    
     6    2    4 am   BACKBONE|DICT|INTERRES
     7    4    5 1    
     8    4  130 1    
     9    5    6 1    
    10    5   65 1    
    11    5  131 1    
    12    6    7 1    
    13    6  132 1    
    14    6  133 1    
    15    7    8 1    
    16    8    9 1    
    17    8  134 1    
    18    8  135 1    
    19    9   10 ar   
    20    9   14 ar   
    21   10   11 ar   
    22   10  136 1    
    23   11   12 ar   
    24   11  126 1    
    25   12   13 ar   
    26   12  137 1    
    27   13   14 ar   
    28   13   15 1    
    29   14  138 1    
    30   15   16 1    
    31   15  139 1    
    32   15  140 1    
    33   16   17 1    
    34   17   18 1    
    35   17  141 1    
    36   17  142 1    
    37   18   19 1    
    38   18   67 1    
    39   18  143 1    
    40   19   20 am   BACKBONE|DICT|INTERRES
    41   19  144 1    
    42   20   21 2    
    43   20   22 1    
    44   22   23 1    
    45   22   24 1    
    46   22  145 1    
    47   23  146 1    
    48   23  147 1    
    49   23  148 1    
    50   24   25 am   BACKBONE|DICT|INTERRES
    51   24  149 1    
    52   25   26 2    
    53   25   27 1    
    54   27   28 1    
    55   27   29 1    
    56   27  150 1    
    57   28  151 1    
    58   28  152 1    
    59   28  153 1    
    60   29   30 am   BACKBONE|DICT|INTERRES
    61   29  154 1    
    62   30   31 2    
    63   30   32 1    
    64   32   33 1    
    65   32   34 1    
    66   32  155 1    
    67   33  156 1    
    68   33  157 1    
    69   33  158 1    
    70   34   35 am   BACKBONE|DICT|INTERRES
    71   34  159 1    
    72   35   36 2    
    73   35   37 1    
    74   37   38 1    
    75   37   39 1    
    76   37  160 1    
    77   38  161 1    
    78   38  162 1    
    79   38  163 1    
    80   39   40 am   BACKBONE|DICT|INTERRES
    81   39  164 1    
    82   40   41 2    
    83   40   42 1    
    84   42   43 1    
    85   42   44 1    
    86   42  165 1    
    87   43  166 1    
    88   43  167 1    
    89   43  168 1    
    90   44   45 am   BACKBONE|DICT|INTERRES
    91   44  169 1    
    92   45   46 2    
    93   45   47 1    
    94   47   48 1    
    95   47   49 1    
    96   47  170 1    
    97   48  171 1    
    98   48  172 1    
    99   48  173 1    
   100   49   50 am   BACKBONE|DICT|INTERRES
   101   49  174 1    
   102   50   51 2    
   103   50   52 1    
   104   52   53 1    
   105   52   54 1    
   106   52  175 1    
   107   53  176 1    
   108   53  177 1    
   109   53  178 1    
   110   54   55 am   BACKBONE|DICT|INTERRES
   111   54  179 1    
   112   55   56 2    
   113   55   57 1    
   114   57   58 1    
   115   57   59 1    
   116   57  180 1    
   117   58  181 1    
   118   58  182 1    
   119   58  183 1    
   120   59   60 am   BACKBONE|DICT|INTERRES
   121   59  184 1    
   122   60   61 2    
   123   60   62 1    
   124   62   63 1    
   125   62   64 1    
   126   62  185 1    
   127   63  186 1    
   128   63  187 1    
   129   63  188 1    
   130   64   65 am   BACKBONE|DICT|INTERRES
   131   64  189 1    
   132   65   66 2    
   133   67   68 2    
   134   67   69 am   BACKBONE|DICT|INTERRES
   135   69   70 1    
   136   69  190 1    
   137   70   71 1    
   138   70   72 1    
   139   70  191 1    
   140   71  192 1    
   141   71  193 1    
   142   71  194 1    
   143   72   73 2    
   144   72   74 am   BACKBONE|DICT|INTERRES
   145   74   75 1    
   146   74  195 1    
   147   75   76 1    
   148   75   77 1    
   149   75  196 1    
   150   76  197 1    
   151   76  198 1    
   152   76  199 1    
   153   77   78 2    
   154   77   79 am   BACKBONE|DICT|INTERRES
   155   79   80 1    
   156   79  200 1    
   157   80   81 1    
   158   80   82 1    
   159   80  201 1    
   160   81  202 1    
   161   81  203 1    
   162   81  204 1    
   163   82   83 2    
   164   82   84 am   BACKBONE|DICT|INTERRES
   165   84   85 1    
   166   84  205 1    
   167   85   86 1    
   168   85   87 1    
   169   85  206 1    
   170   86  207 1    
   171   86  208 1    
   172   86  209 1    
   173   87   88 2    
   174   87   89 am   BACKBONE|DICT|INTERRES
   175   89   90 1    
   176   89  210 1    
   177   90   91 1    
   178   90   92 1    
   179   90  211 1    
   180   91  212 1    
   181   91  213 1    
   182   91  214 1    
   183   92   93 2    
   184   92   94 am   BACKBONE|DICT|INTERRES
   185   94   95 1    
   186   94  215 1    
   187   95   96 1    
   188   95   97 1    
   189   95  216 1    
   190   96  217 1    
   191   96  218 1    
   192   96  219 1    
   193   97   98 2    
   194   97   99 am   BACKBONE|DICT|INTERRES
   195   99  100 1    
   196   99  220 1    
   197  100  101 1    
   198  100  102 1    
   199  100  221 1    
   200  101  222 1    
   201  101  223 1    
   202  101  224 1    
   203  102  103 2    
   204  102  104 am   BACKBONE|DICT|INTERRES
   205  104  105 1    
   206  104  225 1    
   207  105  106 1    
   208  105  107 1    
   209  105  226 1    
   210  106  227 1    
   211  106  228 1    
   212  106  229 1    
   213  107  108 2    
   214  107  109 am   BACKBONE|DICT|INTERRES
   215  109  110 1    
   216  109  230 1    
   217  110  111 1    
   218  110  112 1    
   219  110  231 1    
   220  111  232 1    
   221  111  233 1    
   222  111  234 1    
   223  112  113 2    
   224  112  114 am   BACKBONE|DICT|INTERRES
   225  114  115 1    
   226  114  235 1    
   227  115  116 1    
   228  115  117 1    
   229  115  236 1    
   230  116  237 1    
   231  116  238 1    
   232  116  239 1    
   233  117  118 2    
   234  117  119 am   BACKBONE|DICT|INTERRES
   235  119  120 1    
   236  119  240 1    
   237  120  121 1    
   238  120  124 1    
   239  120  241 1    
   240  121  122 am   BACKBONE|DICT|INTERRES
   241  121  123 2    
   242  122  242 1    
   243  122  243 1    
   244  124  125 1    
   245  124  244 1    
   246  124  245 1    
   247  125  126 1    
   248  126  246 1    
   249  126  247 1    
@<TRIPOS>SUBSTRUCTURE
     1 UNK         1 GROUP             0       ****    0 ROOT    
