@<TRIPOS>MOLECULE
3R540
247   249    1
SMALL
USER_CHARGES


@<TRIPOS>ATOM
      1 CA         -3.9322   -8.2877  -46.5111 C.3       0 UNK        -0.1800 
      2 C          -2.7732   -8.6921  -47.4116 C.2       0 UNK         0.5000 
      3 O          -2.1271   -7.8271  -48.0039 O.2       0 UNK        -0.5000 
      4 N          -2.5142  -10.0008  -47.5230 N.am      1 UNK        -0.5000 
      5 CA         -1.3995  -10.5735  -48.2821 C.3       1 UNK         0.1400 
      6 C6         -1.6093  -12.0907  -48.5087 C.3       23 UNK        -0.0398 
      7 S7         -0.4913  -12.7840  -49.7750 S.3       23 UNK        -0.2404 
      8 C8          0.5394  -13.9065  -48.7785 C.3       23 UNK        -0.0205 
      9 C9         -0.1080  -15.2731  -48.6255 C.ar      23 UNK        -0.0193 
     10 C10         0.1279  -16.2666  -49.5802 C.ar      23 UNK        -0.1150 
     11 C11        -0.4497  -17.5326  -49.4472 C.ar      23 UNK        -0.0193 
     12 C12        -1.2685  -17.8015  -48.3476 C.ar      23 UNK        -0.1150 
     13 C13        -1.5206  -16.8119  -47.3935 C.ar      23 UNK        -0.0193 
     14 C14        -0.9331  -15.5520  -47.5326 C.ar      23 UNK        -0.1150 
     15 C15        -2.4166  -17.1139  -46.2070 C.3       23 UNK        -0.0205 
     16 S16        -1.4339  -17.8324  -44.8636 S.3       23 UNK        -0.2404 
     17 C17        -2.5909  -19.0368  -44.1359 C.3       23 UNK        -0.0398 
     18 CA         -2.8149  -20.3092  -44.9955 C.3       11 UNK         0.1400 
     19 N          -1.5814  -20.8981  -45.5324 N.am      11 UNK        -0.5000 
     20 C          -1.5431  -21.8949  -46.4296 C.2       10 UNK         0.5000 
     21 O          -2.5463  -22.3967  -46.9340 O.2       10 UNK        -0.5000 
     22 CA         -0.1645  -22.4618  -46.7977 C.3       10 UNK         0.1400 
     23 CB          0.4481  -21.6797  -47.9690 C.3       10 UNK        -0.1800 
     24 N           0.7387  -22.4484  -45.6488 N.am      10 UNK        -0.5000 
     25 C           0.6869  -23.3325  -44.6421 C.2       9 UNK         0.5000 
     26 O          -0.0823  -24.2931  -44.6200 O.2       9 UNK        -0.5000 
     27 CA          1.6217  -23.0852  -43.4411 C.3       9 UNK         0.1400 
     28 CB          2.9958  -23.7258  -43.6859 C.3       9 UNK        -0.1800 
     29 N           1.8004  -21.6656  -43.1311 N.am      9 UNK        -0.5000 
     30 C           0.8215  -20.8498  -42.7172 C.2       8 UNK         0.5000 
     31 O          -0.3308  -21.2252  -42.5001 O.2       8 UNK        -0.5000 
     32 CA          1.1687  -19.3567  -42.5620 C.3       8 UNK         0.1400 
     33 CB          1.6428  -19.0645  -41.1316 C.3       8 UNK        -0.1800 
     34 N           2.1548  -18.8265  -43.5111 N.am      8 UNK        -0.5000 
     35 C           2.1532  -18.9616  -44.8463 C.2       7 UNK         0.5000 
     36 O           1.3679  -19.6898  -45.4509 O.2       7 UNK        -0.5000 
     37 CA          3.1914  -18.1581  -45.6583 C.3       7 UNK         0.1400 
     38 CB          2.4952  -17.3101  -46.7355 C.3       7 UNK        -0.1800 
     39 N           4.0363  -17.2832  -44.8423 N.am      7 UNK        -0.5000 
     40 C           5.0755  -17.6810  -44.0956 C.2       6 UNK         0.5000 
     41 O           5.4563  -18.8491  -44.0202 O.2       6 UNK        -0.5000 
     42 CA          5.7736  -16.5945  -43.2607 C.3       6 UNK         0.1400 
     43 CB          6.8309  -15.8584  -44.0979 C.3       6 UNK        -0.1800 
     44 N           4.8044  -15.6306  -42.7358 N.am      6 UNK        -0.5000 
     45 C           4.1024  -15.8053  -41.6067 C.2       5 UNK         0.5000 
     46 O           4.2522  -16.7694  -40.8565 O.2       5 UNK        -0.5000 
     47 CA          3.0481  -14.7353  -41.2568 C.3       5 UNK         0.1400 
     48 CB          3.6646  -13.6448  -40.3679 C.3       5 UNK        -0.1800 
     49 N           2.4521  -14.1088  -42.4378 N.am      5 UNK        -0.5000 
     50 C           1.6114  -14.7228  -43.2828 C.2       4 UNK         0.5000 
     51 O           1.1854  -15.8618  -43.1054 O.2       4 UNK        -0.5000 
     52 CA          1.2068  -13.9502  -44.5563 C.3       4 UNK         0.1400 
     53 CB         -0.1561  -13.2709  -44.3620 C.3       4 UNK        -0.1800 
     54 N           2.1932  -12.9532  -44.9929 N.am      4 UNK        -0.5000 
     55 C           3.4620  -13.2276  -45.3350 C.2       3 UNK         0.5000 
     56 O           3.9295  -14.3677  -45.3124 O.2       3 UNK        -0.5000 
     57 CA          4.3689  -12.0303  -45.6964 C.3       3 UNK         0.1400 
     58 CB          5.5917  -12.4398  -46.5446 C.3       3 UNK        -0.1800 
     59 N           3.6490  -10.9062  -46.3079 N.am      3 UNK        -0.5000 
     60 C           3.0115  -10.9098  -47.4862 C.2       2 UNK         0.5000 
     61 O           2.9695  -11.8755  -48.2498 O.2       2 UNK        -0.5000 
     62 CA          2.3075   -9.6005  -47.8837 C.3       2 UNK         0.1400 
     63 CB          3.0962   -8.8700  -48.9813 C.3       2 UNK        -0.1800 
     64 N           0.9491   -9.8575  -48.3576 N.am      2 UNK        -0.5000 
     65 C          -0.0577  -10.2712  -47.5783 C.2       1 UNK         0.5000 
     66 O           0.0421  -10.4237  -46.3578 O.2       1 UNK        -0.5000 
     67 C          -3.6308  -21.3511  -44.2049 C.2       11 UNK         0.5000 
     68 O          -4.8319  -21.4908  -44.4368 O.2       11 UNK        -0.5000 
     69 N          -2.9461  -22.1077  -43.3341 N.am      12 UNK        -0.5000 
     70 CA         -3.5024  -23.2184  -42.5571 C.3       12 UNK         0.1400 
     71 CB         -2.4398  -23.7160  -41.5658 C.3       12 UNK        -0.1800 
     72 C          -4.0105  -24.3819  -43.4315 C.2       12 UNK         0.5000 
     73 O          -4.9748  -25.0489  -43.0563 O.2       12 UNK        -0.5000 
     74 N          -3.3744  -24.5801  -44.5930 N.am      13 UNK        -0.5000 
     75 CA         -3.7579  -25.5576  -45.6112 C.3       13 UNK         0.1400 
     76 CB         -2.4952  -25.9944  -46.3719 C.3       13 UNK        -0.1800 
     77 C          -4.8322  -25.0315  -46.5871 C.2       13 UNK         0.5000 
     78 O          -5.1686  -25.7436  -47.5335 O.2       13 UNK        -0.5000 
     79 N          -5.3319  -23.8030  -46.3762 N.am      14 UNK        -0.5000 
     80 CA         -6.3289  -23.0990  -47.1905 C.3       14 UNK         0.1400 
     81 CB         -7.7045  -23.7900  -47.0831 C.3       14 UNK        -0.1800 
     82 C          -5.8637  -22.9039  -48.6479 C.2       14 UNK         0.5000 
     83 O          -6.5838  -23.2566  -49.5838 O.2       14 UNK        -0.5000 
     84 N          -4.6345  -22.3905  -48.8041 N.am      15 UNK        -0.5000 
     85 CA         -3.9075  -22.2070  -50.0650 C.3       15 UNK         0.1400 
     86 CB         -4.6020  -21.1593  -50.9603 C.3       15 UNK        -0.1800 
     87 C          -3.6528  -23.5523  -50.7736 C.2       15 UNK         0.5000 
     88 O          -3.8227  -23.6581  -51.9887 O.2       15 UNK        -0.5000 
     89 N          -3.2882  -24.5685  -49.9757 N.am      16 UNK        -0.5000 
     90 CA         -3.1037  -25.9721  -50.3616 C.3       16 UNK         0.1400 
     91 CB         -1.8631  -26.1233  -51.2672 C.3       16 UNK        -0.1800 
     92 C          -4.3855  -26.5685  -50.9809 C.2       16 UNK         0.5000 
     93 O          -4.3391  -27.1386  -52.0700 O.2       16 UNK        -0.5000 
     94 N          -5.5190  -26.3677  -50.2927 N.am      17 UNK        -0.5000 
     95 CA         -6.8868  -26.6641  -50.7360 C.3       17 UNK         0.1400 
     96 CB         -7.1236  -28.1873  -50.7935 C.3       17 UNK        -0.1800 
     97 C          -7.2440  -25.9402  -52.0542 C.2       17 UNK         0.5000 
     98 O          -7.8020  -26.5465  -52.9707 O.2       17 UNK        -0.5000 
     99 N          -6.8796  -24.6518  -52.1184 N.am      18 UNK        -0.5000 
    100 CA        -7.0158  -23.7247  -53.2463 C.3       18 UNK         0.1400 
    101 CB        -8.5039  -23.4418  -53.5389 C.3       18 UNK        -0.1800 
    102 C         -6.2224  -24.1189  -54.5139 C.2       18 UNK         0.5000 
    103 O         -6.5462  -23.6362  -55.6010 O.2       18 UNK        -0.5000 
    104 N         -5.1959  -24.9695  -54.3722 N.am      19 UNK        -0.5000 
    105 CA        -4.3051  -25.3653  -55.4642 C.3       19 UNK         0.1400 
    106 CB        -3.6947  -26.7415  -55.1627 C.3       19 UNK        -0.1800 
    107 C         -3.1906  -24.3351  -55.7208 C.2       19 UNK         0.5000 
    108 O         -2.7143  -24.2400  -56.8535 O.2       19 UNK        -0.5000 
    109 N         -2.7801  -23.5937  -54.6820 N.am      20 UNK        -0.5000 
    110 CA        -1.7740  -22.5373  -54.7765 C.3       20 UNK         0.1400 
    111 CB        -1.2162  -22.2394  -53.3760 C.3       20 UNK        -0.1800 
    112 C         -2.3589  -21.2624  -55.4094 C.2       20 UNK         0.5000 
    113 O         -3.5633  -21.0127  -55.3077 O.2       20 UNK        -0.5000 
    114 N         -1.4801  -20.4514  -56.0142 N.am      21 UNK        -0.5000 
    115 CA        -1.8131  -19.2020  -56.7108 C.3       21 UNK         0.1400 
    116 CB        -0.5421  -18.6488  -57.3737 C.3       21 UNK        -0.1800 
    117 C         -2.4686  -18.1256  -55.8209 C.2       21 UNK         0.5000 
    118 O         -3.1751  -17.2598  -56.3390 O.2       21 UNK        -0.5000 
    119 N         -2.2402  -18.2108  -54.5053 N.am      22 UNK        -0.5000 
    120 CA        -2.9184  -17.4141  -53.4744 C.3       22 UNK         0.1400 
    121 C         -4.4020  -17.8134  -53.2044 C.2       22 UNK         0.5000 
    122 N         -4.9163  -18.9132  -53.7445 N.am      22 UNK        -0.7600 
    123 O         -5.1099  -17.0941  -52.5049 O.2       22 UNK        -0.5000 
    124 C124       -2.0835  -17.3507  -52.1706 C.3       23 UNK        -0.0398 
    125 S125       -1.6939  -18.9882  -51.4551 S.3       23 UNK        -0.2404 
    126 C126       -0.1956  -18.6065  -50.4949 C.3       23 UNK        -0.0205 
    127 H127       -3.5755   -7.6430  -45.7078 H         1 UNK         0.0600 
    128 H128       -4.4181   -9.1539  -46.0612 H         1 UNK         0.0600 
    129 H129       -4.6792   -7.7386  -47.0843 H         1 UNK         0.0600 
    130 H130       -3.0625  -10.6565  -46.9855 H         1 UNK         0.3000 
    131 H131       -1.3946  -10.0861  -49.2598 H         1 UNK         0.0600 
    132 H132       -2.6264  -12.2718  -48.8589 H         1 UNK         0.0800 
    133 H133       -1.5188  -12.6380  -47.5705 H         1 UNK         0.0800 
    134 H134        0.7469  -13.4662  -47.8018 H         1 UNK         0.0800 
    135 H135        1.5088  -14.0154  -49.2671 H         1 UNK         0.0800 
    136 H136        0.7612  -16.0506  -50.4291 H         1 UNK         0.1150 
    137 H137       -1.7141  -18.7805  -48.2384 H         1 UNK         0.1150 
    138 H138       -1.1168  -14.7942  -46.7856 H         1 UNK         0.1150 
    139 H139       -2.9068  -16.2065  -45.8515 H         1 UNK         0.0800 
    140 H140       -3.2114  -17.7936  -46.5145 H         1 UNK         0.0800 
    141 H141       -3.5415  -18.5352  -43.9466 H         1 UNK         0.0800 
    142 H142       -2.1925  -19.3013  -43.1552 H         1 UNK         0.0800 
    143 H143       -3.4213  -20.0234  -45.8570 H         1 UNK         0.0600 
    144 H144       -0.7076  -20.5026  -45.2067 H         1 UNK         0.3000 
    145 H145       -0.2996  -23.4953  -47.1226 H         1 UNK         0.0600 
    146 H146        0.5518  -20.6185  -47.7419 H         1 UNK         0.0600 
    147 H147        1.4336  -22.0655  -48.2299 H         1 UNK         0.0600 
    148 H148       -0.1797  -21.7621  -48.8572 H         1 UNK         0.0600 
    149 H149        1.3165  -21.6194  -45.5492 H         1 UNK         0.3000 
    150 H150        1.1714  -23.5645  -42.5692 H         1 UNK         0.0600 
    151 H151        2.8971  -24.7909  -43.9001 H         1 UNK         0.0600 
    152 H152        3.6377  -23.6296  -42.8101 H         1 UNK         0.0600 
    153 H153        3.5093  -23.2667  -44.5316 H         1 UNK         0.0600 
    154 H154        2.7135  -21.2698  -43.3006 H         1 UNK         0.3000 
    155 H155        0.2472  -18.7974  -42.7210 H         1 UNK         0.0600 
    156 H156        0.9410  -19.4587  -40.3953 H         1 UNK         0.0600 
    157 H157        1.7214  -17.9912  -40.9578 H         1 UNK         0.0600 
    158 H158        2.6179  -19.5103  -40.9314 H         1 UNK         0.0600 
    159 H159        2.8286  -18.1839  -43.1234 H         1 UNK         0.3000 
    160 H160        3.8334  -18.8821  -46.1638 H         1 UNK         0.0600 
    161 H161        3.2100  -16.7118  -47.3006 H         1 UNK         0.0600 
    162 H162        1.7614  -16.6349  -46.2980 H         1 UNK         0.0600 
    163 H163        1.9638  -17.9416  -47.4489 H         1 UNK         0.0600 
    164 H164        3.8275  -16.2904  -44.8848 H         1 UNK         0.3000 
    165 H165        6.2857  -17.0827  -42.4286 H         1 UNK         0.0600 
    166 H166        6.3953  -15.3849  -44.9777 H         1 UNK         0.0600 
    167 H167        7.3303  -15.0859  -43.5130 H         1 UNK         0.0600 
    168 H168        7.5988  -16.5498  -44.4470 H         1 UNK         0.0600 
    169 H169        4.5813  -14.8480  -43.3369 H         1 UNK         0.3000 
    170 H170        2.2529  -15.2269  -40.6921 H         1 UNK         0.0600 
    171 H171        4.4580  -13.1035  -40.8848 H         1 UNK         0.0600 
    172 H172        2.9129  -12.9206  -40.0531 H         1 UNK         0.0600 
    173 H173        4.0967  -14.0763  -39.4640 H         1 UNK         0.0600 
    174 H174        2.7371  -13.1637  -42.6468 H         1 UNK         0.3000 
    175 H175        1.1034  -14.6808  -45.3588 H         1 UNK         0.0600 
    176 H176       -0.1110  -12.4850  -43.6073 H         1 UNK         0.0600 
    177 H177       -0.5100  -12.8252  -45.2906 H         1 UNK         0.0600 
    178 H178       -0.9104  -13.9922  -44.0441 H         1 UNK         0.0600 
    179 H179        1.8733  -11.9962  -45.0489 H         1 UNK         0.3000 
    180 H180        4.7505  -11.6559  -44.7456 H         1 UNK         0.0600 
    181 H181        5.2971  -12.9253  -47.4754 H         1 UNK         0.0600 
    182 H182        6.2275  -13.1392  -46.0013 H         1 UNK         0.0600 
    183 H183        6.2060  -11.5753  -46.7958 H         1 UNK         0.0600 
    184 H184        3.6243  -10.0598  -45.7558 H         1 UNK         0.3000 
    185 H185        2.2466   -8.9455  -47.0119 H         1 UNK         0.0600 
    186 H186        2.6246   -7.9225  -49.2427 H         1 UNK         0.0600 
    187 H187        4.1110   -8.6470  -48.6492 H         1 UNK         0.0600 
    188 H188        3.1727   -9.4696  -49.8895 H         1 UNK         0.0600 
    189 H189        0.8053   -9.7979  -49.3550 H         1 UNK         0.3000 
    190 H190       -1.9637  -21.8958  -43.1736 H         1 UNK         0.3000 
    191 H191       -4.3524  -22.8360  -41.9884 H         1 UNK         0.0600 
    192 H192       -1.5510  -24.0822  -42.0814 H         1 UNK         0.0600 
    193 H193       -2.1285  -22.9199  -40.8892 H         1 UNK         0.0600 
    194 H194       -2.8259  -24.5318  -40.9533 H         1 UNK         0.0600 
    195 H195       -2.5786  -23.9959  -44.8108 H         1 UNK         0.3000 
    196 H196       -4.1743  -26.4391  -45.1198 H         1 UNK         0.0600 
    197 H197       -1.7262  -26.3520  -45.6868 H         1 UNK         0.0600 
    198 H198       -2.0706  -25.1763  -46.9533 H         1 UNK         0.0600 
    199 H199       -2.7151  -26.8115  -47.0592 H         1 UNK         0.0600 
    200 H200       -4.9706  -23.2719  -45.5928 H         1 UNK         0.3000 
    201 H201       -6.4273  -22.1000  -46.7634 H         1 UNK         0.0600 
    202 H202       -8.4719  -23.2116  -47.5987 H         1 UNK         0.0600 
    203 H203       -8.0155  -23.8872  -46.0430 H         1 UNK         0.0600 
    204 H204       -7.6962  -24.7869  -47.5250 H         1 UNK         0.0600 
    205 H205       -4.0761  -22.2283  -47.9685 H         1 UNK         0.3000 
    206 H206       -2.9242  -21.8129  -49.8041 H         1 UNK         0.0600 
    207 H207       -4.6689  -20.1960  -50.4549 H         1 UNK         0.0600 
    208 H208       -5.6107  -21.4583  -51.2401 H         1 UNK         0.0600 
    209 H209       -4.0458  -20.9978  -51.8835 H         1 UNK         0.0600 
    210 H210       -3.2206  -24.3750  -48.9871 H         1 UNK         0.3000 
    211 H211       -2.9158  -26.5312  -49.4449 H         1 UNK         0.0600 
    212 H212       -0.9734  -25.7173  -50.7861 H         1 UNK         0.0600 
    213 H213       -1.6646  -27.1734  -51.4843 H         1 UNK         0.0600 
    214 H214       -1.9892  -25.6114  -52.2217 H         1 UNK         0.0600 
    215 H215       -5.4444  -25.9311  -49.3762 H         1 UNK         0.3000 
    216 H216       -7.5497  -26.2543  -49.9724 H         1 UNK         0.0600 
    217 H217       -8.1692  -28.4114  -51.0074 H         1 UNK         0.0600 
    218 H218       -6.5222  -28.6632  -51.5686 H         1 UNK         0.0600 
    219 H219       -6.8790  -28.6593  -49.8419 H         1 UNK         0.0600 
    220 H220       -6.4729  -24.2433  -51.2812 H         1 UNK         0.3000 
    221 H221       -6.5697  -22.7891  -52.9099 H         1 UNK         0.0600 
    222 H222       -9.0090  -24.3167  -53.9490 H         1 UNK         0.0600 
    223 H223       -9.0326  -23.1412  -52.6343 H         1 UNK         0.0600 
    224 H224       -8.6157  -22.6320  -54.2606 H         1 UNK         0.0600 
    225 H225       -4.9707  -25.3142  -53.4471 H         1 UNK         0.3000 
    226 H226       -4.8909  -25.4586  -56.3812 H         1 UNK         0.0600 
    227 H227       -4.4672  -27.4801  -54.9476 H         1 UNK         0.0600 
    228 H228       -3.1215  -27.1071  -56.0154 H         1 UNK         0.0600 
    229 H229       -3.0174  -26.7026  -54.3092 H         1 UNK         0.0600 
    230 H230       -3.2499  -23.6904  -53.7848 H         1 UNK         0.3000 
    231 H231       -0.9538  -22.8952  -55.4025 H         1 UNK         0.0600 
    232 H232       -0.3896  -21.5298  -53.4247 H         1 UNK         0.0600 
    233 H233       -0.8411  -23.1442  -52.8974 H         1 UNK         0.0600 
    234 H234       -1.9754  -21.8074  -52.7255 H         1 UNK         0.0600 
    235 H235       -0.5071  -20.7214  -56.0349 H         1 UNK         0.3000 
    236 H236       -2.5296  -19.4471  -57.4975 H         1 UNK         0.0600 
    237 H237       -0.1218  -19.3635  -58.0816 H         1 UNK         0.0600 
    238 H238       -0.7560  -17.7338  -57.9279 H         1 UNK         0.0600 
    239 H239        0.2258  -18.4133  -56.6358 H         1 UNK         0.0600 
    240 H240       -1.6571  -18.9605  -54.1647 H         1 UNK         0.3000 
    241 H241       -2.9712  -16.3915  -53.8527 H         1 UNK         0.0600 
    242 H242       -4.3569  -19.5366  -54.3188 H         1 UNK         0.3800 
    243 H243       -5.8803  -19.1396  -53.5646 H         1 UNK         0.3800 
    244 H244       -1.1461  -16.8332  -52.3783 H         1 UNK         0.0800 
    245 H245       -2.5889  -16.7483  -51.4134 H         1 UNK         0.0800 
    246 H246        0.6003  -18.3049  -51.1774 H         1 UNK         0.0800 
    247 H247        0.1521  -19.5148  -50.0030 H         1 UNK         0.0800 
@<TRIPOS>BOND
     1    1    2 1    
     2    1  127 1    
     3    1  128 1    
     4    1  129 1    
     5    2    3 2    
     6    2    4 am   BACKBONE|DICT|INTERRES
     7    4    5 1    
     8    4  130 1    
     9    5    6 1    
    10    5   65 1    
    11    5  131 1    
    12    6    7 1    
    13    6  132 1    
    14    6  133 1    
    15    7    8 1    
    16    8    9 1    
    17    8  134 1    
    18    8  135 1    
    19    9   10 ar   
    20    9   14 ar   
    21   10   11 ar   
    22   10  136 1    
    23   11   12 ar   
    24   11  126 1    
    25   12   13 ar   
    26   12  137 1    
    27   13   14 ar   
    28   13   15 1    
    29   14  138 1    
    30   15   16 1    
    31   15  139 1    
    32   15  140 1    
    33   16   17 1    
    34   17   18 1    
    35   17  141 1    
    36   17  142 1    
    37   18   19 1    
    38   18   67 1    
    39   18  143 1    
    40   19   20 am   BACKBONE|DICT|INTERRES
    41   19  144 1    
    42   20   21 2    
    43   20   22 1    
    44   22   23 1    
    45   22   24 1    
    46   22  145 1    
    47   23  146 1    
    48   23  147 1    
    49   23  148 1    
    50   24   25 am   BACKBONE|DICT|INTERRES
    51   24  149 1    
    52   25   26 2    
    53   25   27 1    
    54   27   28 1    
    55   27   29 1    
    56   27  150 1    
    57   28  151 1    
    58   28  152 1    
    59   28  153 1    
    60   29   30 am   BACKBONE|DICT|INTERRES
    61   29  154 1    
    62   30   31 2    
    63   30   32 1    
    64   32   33 1    
    65   32   34 1    
    66   32  155 1    
    67   33  156 1    
    68   33  157 1    
    69   33  158 1    
    70   34   35 am   BACKBONE|DICT|INTERRES
    71   34  159 1    
    72   35   36 2    
    73   35   37 1    
    74   37   38 1    
    75   37   39 1    
    76   37  160 1    
    77   38  161 1    
    78   38  162 1    
    79   38  163 1    
    80   39   40 am   BACKBONE|DICT|INTERRES
    81   39  164 1    
    82   40   41 2    
    83   40   42 1    
    84   42   43 1    
    85   42   44 1    
    86   42  165 1    
    87   43  166 1    
    88   43  167 1    
    89   43  168 1    
    90   44   45 am   BACKBONE|DICT|INTERRES
    91   44  169 1    
    92   45   46 2    
    93   45   47 1    
    94   47   48 1    
    95   47   49 1    
    96   47  170 1    
    97   48  171 1    
    98   48  172 1    
    99   48  173 1    
   100   49   50 am   BACKBONE|DICT|INTERRES
   101   49  174 1    
   102   50   51 2    
   103   50   52 1    
   104   52   53 1    
   105   52   54 1    
   106   52  175 1    
   107   53  176 1    
   108   53  177 1    
   109   53  178 1    
   110   54   55 am   BACKBONE|DICT|INTERRES
   111   54  179 1    
   112   55   56 2    
   113   55   57 1    
   114   57   58 1    
   115   57   59 1    
   116   57  180 1    
   117   58  181 1    
   118   58  182 1    
   119   58  183 1    
   120   59   60 am   BACKBONE|DICT|INTERRES
   121   59  184 1    
   122   60   61 2    
   123   60   62 1    
   124   62   63 1    
   125   62   64 1    
   126   62  185 1    
   127   63  186 1    
   128   63  187 1    
   129   63  188 1    
   130   64   65 am   BACKBONE|DICT|INTERRES
   131   64  189 1    
   132   65   66 2    
   133   67   68 2    
   134   67   69 am   BACKBONE|DICT|INTERRES
   135   69   70 1    
   136   69  190 1    
   137   70   71 1    
   138   70   72 1    
   139   70  191 1    
   140   71  192 1    
   141   71  193 1    
   142   71  194 1    
   143   72   73 2    
   144   72   74 am   BACKBONE|DICT|INTERRES
   145   74   75 1    
   146   74  195 1    
   147   75   76 1    
   148   75   77 1    
   149   75  196 1    
   150   76  197 1    
   151   76  198 1    
   152   76  199 1    
   153   77   78 2    
   154   77   79 am   BACKBONE|DICT|INTERRES
   155   79   80 1    
   156   79  200 1    
   157   80   81 1    
   158   80   82 1    
   159   80  201 1    
   160   81  202 1    
   161   81  203 1    
   162   81  204 1    
   163   82   83 2    
   164   82   84 am   BACKBONE|DICT|INTERRES
   165   84   85 1    
   166   84  205 1    
   167   85   86 1    
   168   85   87 1    
   169   85  206 1    
   170   86  207 1    
   171   86  208 1    
   172   86  209 1    
   173   87   88 2    
   174   87   89 am   BACKBONE|DICT|INTERRES
   175   89   90 1    
   176   89  210 1    
   177   90   91 1    
   178   90   92 1    
   179   90  211 1    
   180   91  212 1    
   181   91  213 1    
   182   91  214 1    
   183   92   93 2    
   184   92   94 am   BACKBONE|DICT|INTERRES
   185   94   95 1    
   186   94  215 1    
   187   95   96 1    
   188   95   97 1    
   189   95  216 1    
   190   96  217 1    
   191   96  218 1    
   192   96  219 1    
   193   97   98 2    
   194   97   99 am   BACKBONE|DICT|INTERRES
   195   99  100 1    
   196   99  220 1    
   197  100  101 1    
   198  100  102 1    
   199  100  221 1    
   200  101  222 1    
   201  101  223 1    
   202  101  224 1    
   203  102  103 2    
   204  102  104 am   BACKBONE|DICT|INTERRES
   205  104  105 1    
   206  104  225 1    
   207  105  106 1    
   208  105  107 1    
   209  105  226 1    
   210  106  227 1    
   211  106  228 1    
   212  106  229 1    
   213  107  108 2    
   214  107  109 am   BACKBONE|DICT|INTERRES
   215  109  110 1    
   216  109  230 1    
   217  110  111 1    
   218  110  112 1    
   219  110  231 1    
   220  111  232 1    
   221  111  233 1    
   222  111  234 1    
   223  112  113 2    
   224  112  114 am   BACKBONE|DICT|INTERRES
   225  114  115 1    
   226  114  235 1    
   227  115  116 1    
   228  115  117 1    
   229  115  236 1    
   230  116  237 1    
   231  116  238 1    
   232  116  239 1    
   233  117  118 2    
   234  117  119 am   BACKBONE|DICT|INTERRES
   235  119  120 1    
   236  119  240 1    
   237  120  121 1    
   238  120  124 1    
   239  120  241 1    
   240  121  122 am   BACKBONE|DICT|INTERRES
   241  121  123 2    
   242  122  242 1    
   243  122  243 1    
   244  124  125 1    
   245  124  244 1    
   246  124  245 1    
   247  125  126 1    
   248  126  246 1    
   249  126  247 1    
@<TRIPOS>SUBSTRUCTURE
     1 UNK         1 GROUP             0       ****    0 ROOT    
