@<TRIPOS>MOLECULE
3R540
247   249    1
SMALL
USER_CHARGES


@<TRIPOS>ATOM
      1 CA         -5.1855   -7.4152  -47.9862 C.3       0 UNK        -0.1800 
      2 C          -4.0619   -8.2527  -48.5800 C.2       0 UNK         0.5000 
      3 O          -3.2382   -7.7305  -49.3307 O.2       0 UNK        -0.5000 
      4 N          -4.0221   -9.5479  -48.2435 N.am      1 UNK        -0.5000 
      5 CA         -3.0118  -10.5102  -48.7038 C.3       1 UNK         0.1400 
      6 C6         -3.5350  -11.9719  -48.6467 C.3       23 UNK        -0.0398 
      7 S7         -4.2187  -12.5017  -47.0303 S.3       23 UNK        -0.2404 
      8 C8         -2.7733  -13.1670  -46.1369 C.3       23 UNK        -0.0205 
      9 C9         -2.2302  -14.4552  -46.7387 C.ar      23 UNK        -0.0193 
     10 C10        -1.1773  -14.4143  -47.6557 C.ar      23 UNK        -0.1150 
     11 C11        -0.6464  -15.5902  -48.1889 C.ar      23 UNK        -0.0193 
     12 C12        -1.1673  -16.8224  -47.7869 C.ar      23 UNK        -0.1150 
     13 C13        -2.2029  -16.8802  -46.8490 C.ar      23 UNK        -0.0193 
     14 C14        -2.7371  -15.6936  -46.3357 C.ar      23 UNK        -0.1150 
     15 C15        -2.7171  -18.2248  -46.3633 C.3       23 UNK        -0.0205 
     16 S16        -1.4798  -19.0300  -45.3020 S.3       23 UNK        -0.2404 
     17 C17        -2.4878  -20.2857  -44.4490 C.3       23 UNK        -0.0398 
     18 CA         -2.6672  -21.5938  -45.2573 C.3       11 UNK         0.1400 
     19 N          -1.4058  -22.1536  -45.7514 N.am      11 UNK        -0.5000 
     20 C          -1.3149  -23.1086  -46.6880 C.2       10 UNK         0.5000 
     21 O          -2.2918  -23.6131  -47.2392 O.2       10 UNK        -0.5000 
     22 CA          0.0930  -23.6166  -47.0498 C.3       10 UNK         0.1400 
     23 CB          0.6978  -22.7513  -48.1648 C.3       10 UNK        -0.1800 
     24 N           1.0024  -23.6461  -45.9045 N.am      10 UNK        -0.5000 
     25 C           0.8209  -24.3888  -44.8021 C.2       9 UNK         0.5000 
     26 O          -0.0935  -25.2019  -44.6737 O.2       9 UNK        -0.5000 
     27 CA          1.7819  -24.1348  -43.6221 C.3       9 UNK         0.1400 
     28 CB          2.9425  -25.1399  -43.6492 C.3       9 UNK        -0.1800 
     29 N           2.3239  -22.7705  -43.5815 N.am      9 UNK        -0.5000 
     30 C           1.5870  -21.6541  -43.4953 C.2       8 UNK         0.5000 
     31 O           0.3552  -21.6628  -43.4229 O.2       8 UNK        -0.5000 
     32 CA          2.3574  -20.3221  -43.5769 C.3       8 UNK         0.1400 
     33 CB          2.9883  -20.1450  -44.9684 C.3       8 UNK        -0.1800 
     34 N           1.4871  -19.1767  -43.3239 N.am      8 UNK        -0.5000 
     35 C           1.0465  -18.7886  -42.1208 C.2       7 UNK         0.5000 
     36 O           1.4066  -19.3123  -41.0645 O.2       7 UNK        -0.5000 
     37 CA          0.0226  -17.6302  -42.1038 C.3       7 UNK         0.1400 
     38 CB          0.0188  -16.8487  -40.7732 C.3       7 UNK        -0.1800 
     39 N           0.1409  -16.7165  -43.2490 N.am      7 UNK        -0.5000 
     40 C           1.1916  -15.9460  -43.5644 C.2       6 UNK         0.5000 
     41 O           2.2238  -15.8682  -42.8940 O.2       6 UNK        -0.5000 
     42 CA          1.0418  -15.1019  -44.8425 C.3       6 UNK         0.1400 
     43 CB          0.4830  -13.7103  -44.5083 C.3       6 UNK        -0.1800 
     44 N           2.3121  -14.9628  -45.5562 N.am      6 UNK        -0.5000 
     45 C           2.9100  -15.9681  -46.2141 C.2       5 UNK         0.5000 
     46 O           2.4064  -17.0861  -46.3285 O.2       5 UNK        -0.5000 
     47 CA          4.2790  -15.7021  -46.8775 C.3       5 UNK         0.1400 
     48 CB          4.1901  -15.8497  -48.4059 C.3       5 UNK        -0.1800 
     49 N           4.8362  -14.3840  -46.5740 N.am      5 UNK        -0.5000 
     50 C           5.5367  -14.0736  -45.4752 C.2       4 UNK         0.5000 
     51 O           5.8364  -14.8891  -44.6030 O.2       4 UNK        -0.5000 
     52 CA          5.9682  -12.5981  -45.3181 C.3       4 UNK         0.1400 
     53 CB          7.4344  -12.4207  -45.7422 C.3       4 UNK        -0.1800 
     54 N           5.1384  -11.6405  -46.0625 N.am      4 UNK        -0.5000 
     55 C           3.8319  -11.4408  -45.8485 C.2       3 UNK         0.5000 
     56 O           3.1833  -12.0645  -45.0040 O.2       3 UNK        -0.5000 
     57 CA          3.1231  -10.4175  -46.7496 C.3       3 UNK         0.1400 
     58 CB          3.0755  -10.9134  -48.2093 C.3       3 UNK        -0.1800 
     59 N           1.7694  -10.2487  -46.2367 N.am      3 UNK        -0.5000 
     60 C           0.8862   -9.3032  -46.5656 C.2       2 UNK         0.5000 
     61 O           1.1235   -8.3609  -47.3249 O.2       2 UNK        -0.5000 
     62 CA         -0.5097   -9.4517  -45.9263 C.3       2 UNK         0.1400 
     63 CB         -0.8144   -8.2649  -44.9986 C.3       2 UNK        -0.1800 
     64 N          -1.6116   -9.6011  -46.8831 N.am      2 UNK        -0.5000 
     65 C          -1.6517  -10.3734  -47.9821 C.2       1 UNK         0.5000 
     66 O          -0.6914  -11.0079  -48.4171 O.2       1 UNK        -0.5000 
     67 C          -3.4335  -22.6356  -44.4220 C.2       11 UNK         0.5000 
     68 O          -4.6391  -22.8010  -44.6107 O.2       11 UNK        -0.5000 
     69 N          -2.7039  -23.3591  -43.5583 N.am      12 UNK        -0.5000 
     70 CA         -3.2166  -24.4739  -42.7557 C.3       12 UNK         0.1400 
     71 CB         -2.1447  -24.9095  -41.7454 C.3       12 UNK        -0.1800 
     72 C          -3.6777  -25.6657  -43.6183 C.2       12 UNK         0.5000 
     73 O          -4.6371  -26.3468  -43.2570 O.2       12 UNK        -0.5000 
     74 N          -3.0232  -25.8530  -44.7715 N.am      13 UNK        -0.5000 
     75 CA         -3.3780  -26.8100  -45.8189 C.3       13 UNK         0.1400 
     76 CB         -2.1062  -27.1692  -46.6067 C.3       13 UNK        -0.1800 
     77 C          -4.5011  -26.3125  -46.7582 C.2       13 UNK         0.5000 
     78 O          -4.6849  -26.9018  -47.8227 O.2       13 UNK        -0.5000 
     79 N          -5.2258  -25.2495  -46.3746 N.am      14 UNK        -0.5000 
     80 CA         -6.3566  -24.6408  -47.0841 C.3       14 UNK         0.1400 
     81 CB         -7.5466  -25.6203  -47.1697 C.3       14 UNK        -0.1800 
     82 C          -5.9441  -24.0705  -48.4540 C.2       14 UNK         0.5000 
     83 O          -6.4924  -24.4611  -49.4861 O.2       14 UNK        -0.5000 
     84 N          -4.9465  -23.1764  -48.4272 N.am      15 UNK        -0.5000 
     85 CA         -4.3047  -22.5315  -49.5789 C.3       15 UNK         0.1400 
     86 CB         -5.2948  -21.6046  -50.3128 C.3       15 UNK        -0.1800 
     87 C          -3.6260  -23.5589  -50.5074 C.2       15 UNK         0.5000 
     88 O          -3.7520  -23.4716  -51.7313 O.2       15 UNK        -0.5000 
     89 N          -2.9390  -24.5242  -49.8786 N.am      16 UNK        -0.5000 
     90 CA         -2.2823  -25.6937  -50.4666 C.3       16 UNK         0.1400 
     91 CB         -1.0444  -25.2626  -51.2775 C.3       16 UNK        -0.1800 
     92 C          -3.2680  -26.5659  -51.2706 C.2       16 UNK         0.5000 
     93 O          -3.0506  -26.8154  -52.4557 O.2       16 UNK        -0.5000 
     94 N          -4.3570  -26.9808  -50.6077 N.am      17 UNK        -0.5000 
     95 CA         -5.4905  -27.7387  -51.1475 C.3       17 UNK         0.1400 
     96 CB         -5.0616  -29.1724  -51.5233 C.3       17 UNK        -0.1800 
     97 C          -6.2016  -26.9913  -52.2951 C.2       17 UNK         0.5000 
     98 O          -6.4816  -27.5763  -53.3432 O.2       17 UNK        -0.5000 
     99 N          -6.4600  -25.6958  -52.0657 N.am      18 UNK        -0.5000 
    100 CA        -7.0915  -24.7322  -52.9715 C.3       18 UNK         0.1400 
    101 CB        -8.5635  -25.1127  -53.2341 C.3       18 UNK        -0.1800 
    102 C         -6.3002  -24.4632  -54.2712 C.2       18 UNK         0.5000 
    103 O         -6.8892  -24.0266  -55.2619 O.2       18 UNK        -0.5000 
    104 N         -4.9795  -24.6937  -54.2495 N.am      19 UNK        -0.5000 
    105 CA        -4.0689  -24.3766  -55.3527 C.3       19 UNK         0.1400 
    106 CB        -2.7717  -25.1818  -55.1961 C.3       19 UNK        -0.1800 
    107 C         -3.7528  -22.8720  -55.4503 C.2       19 UNK         0.5000 
    108 O         -3.3522  -22.4167  -56.5221 O.2       19 UNK        -0.5000 
    109 N         -3.9402  -22.1402  -54.3400 N.am      20 UNK        -0.5000 
    110 CA        -3.6944  -20.7066  -54.1663 C.3       20 UNK         0.1400 
    111 CB        -4.5886  -19.8604  -55.0968 C.3       20 UNK        -0.1800 
    112 C         -2.1956  -20.3773  -54.2831 C.2       20 UNK         0.5000 
    113 O         -1.7909  -19.5737  -55.1254 O.2       20 UNK        -0.5000 
    114 N         -1.3987  -21.0168  -53.4142 N.am      21 UNK        -0.5000 
    115 CA         0.0661  -20.9266  -53.3485 C.3       21 UNK         0.1400 
    116 CB         0.5669  -21.8447  -52.2229 C.3       21 UNK        -0.1800 
    117 C          0.6375  -19.5025  -53.1729 C.2       21 UNK         0.5000 
    118 O          1.7861  -19.2666  -53.5500 O.2       21 UNK        -0.5000 
    119 N         -0.1684  -18.5810  -52.6285 N.am      22 UNK        -0.5000 
    120 CA         0.1298  -17.1409  -52.5658 C.3       22 UNK         0.1400 
    121 C          0.0834  -16.4144  -53.9487 C.2       22 UNK         0.5000 
    122 N         -0.4960  -16.9934  -54.9947 N.am      22 UNK        -0.7600 
    123 O          0.6014  -15.3100  -54.0863 O.2       22 UNK        -0.5000 
    124 C124       -0.7656  -16.4374  -51.5100 C.3       23 UNK        -0.0398 
    125 S125        0.0057  -14.9400  -50.8043 S.3       23 UNK        -0.2404 
    126 C126        0.5215  -15.5163  -49.1582 C.3       23 UNK        -0.0205 
    127 H127       -5.8362   -8.0076  -47.3423 H         1 UNK         0.0600 
    128 H128       -5.7944   -6.9861  -48.7820 H         1 UNK         0.0600 
    129 H129       -4.7723   -6.5990  -47.3935 H         1 UNK         0.0600 
    130 H130       -4.7247   -9.9267  -47.6230 H         1 UNK         0.3000 
    131 H131       -2.8078  -10.2930  -49.7547 H         1 UNK         0.0600 
    132 H132       -4.3436  -12.0734  -49.3715 H         1 UNK         0.0800 
    133 H133       -2.7760  -12.6762  -48.9866 H         1 UNK         0.0800 
    134 H134       -3.0687  -13.3521  -45.1031 H         1 UNK         0.0800 
    135 H135       -1.9866  -12.4162  -46.0824 H         1 UNK         0.0800 
    136 H136       -0.7549  -13.4662  -47.9514 H         1 UNK         0.1150 
    137 H137       -0.7454  -17.7392  -48.1745 H         1 UNK         0.1150 
    138 H138       -3.5356  -15.7318  -45.6080 H         1 UNK         0.1150 
    139 H139       -3.6514  -18.0970  -45.8147 H         1 UNK         0.0800 
    140 H140       -2.9394  -18.8672  -47.2165 H         1 UNK         0.0800 
    141 H141       -3.4590  -19.8538  -44.2013 H         1 UNK         0.0800 
    142 H142       -2.0029  -20.4885  -43.4928 H         1 UNK         0.0800 
    143 H143       -3.2825  -21.3578  -46.1282 H         1 UNK         0.0600 
    144 H144       -0.5681  -21.8265  -45.2855 H         1 UNK         0.3000 
    145 H145       -0.0069  -24.6363  -47.4260 H         1 UNK         0.0600 
    146 H146        0.8532  -21.7221  -47.8383 H         1 UNK         0.0600 
    147 H147        1.6573  -23.1482  -48.4968 H         1 UNK         0.0600 
    148 H148        0.0404  -22.7241  -49.0347 H         1 UNK         0.0600 
    149 H149        1.7837  -23.0085  -45.9268 H         1 UNK         0.3000 
    150 H150        1.2140  -24.2915  -42.7028 H         1 UNK         0.0600 
    151 H151        2.5707  -26.1655  -43.6557 H         1 UNK         0.0600 
    152 H152        3.5786  -25.0326  -42.7704 H         1 UNK         0.0600 
    153 H153        3.5662  -25.0111  -44.5347 H         1 UNK         0.0600 
    154 H154        3.3286  -22.6885  -43.6431 H         1 UNK         0.3000 
    155 H155        3.1511  -20.3386  -42.8273 H         1 UNK         0.0600 
    156 H156        3.6755  -20.9574  -45.2065 H         1 UNK         0.0600 
    157 H157        3.5616  -19.2192  -45.0208 H         1 UNK         0.0600 
    158 H158        2.2308  -20.1114  -45.7530 H         1 UNK         0.0600 
    159 H159        1.1164  -18.7089  -44.1387 H         1 UNK         0.3000 
    160 H160       -0.9551  -18.1041  -42.2025 H         1 UNK         0.0600 
    161 H161       -0.7206  -16.0480  -40.7881 H         1 UNK         0.0600 
    162 H162        0.9914  -16.4041  -40.5608 H         1 UNK         0.0600 
    163 H163       -0.2302  -17.5020  -39.9362 H         1 UNK         0.0600 
    164 H164       -0.6500  -16.7214  -43.8789 H         1 UNK         0.3000 
    165 H165        0.3372  -15.6047  -45.5058 H         1 UNK         0.0600 
    166 H166        1.1105  -13.1885  -43.7851 H         1 UNK         0.0600 
    167 H167        0.4072  -13.0896  -45.4010 H         1 UNK         0.0600 
    168 H168       -0.5155  -13.7867  -44.0769 H         1 UNK         0.0600 
    169 H169        2.7956  -14.0795  -45.4464 H         1 UNK         0.3000 
    170 H170        4.9613  -16.4705  -46.5079 H         1 UNK         0.0600 
    171 H171        3.5866  -15.0607  -48.8542 H         1 UNK         0.0600 
    172 H172        5.1802  -15.8077  -48.8601 H         1 UNK         0.0600 
    173 H173        3.7476  -16.8060  -48.6880 H         1 UNK         0.0600 
    174 H174        4.6434  -13.6486  -47.2372 H         1 UNK         0.3000 
    175 H175        5.8880  -12.3511  -44.2574 H         1 UNK         0.0600 
    176 H176        7.5736  -12.6283  -46.8039 H         1 UNK         0.0600 
    177 H177        7.7818  -11.4056  -45.5488 H         1 UNK         0.0600 
    178 H178        8.0869  -13.0963  -45.1874 H         1 UNK         0.0600 
    179 H179        5.6075  -11.1004  -46.7756 H         1 UNK         0.3000 
    180 H180        3.6552   -9.4663  -46.6889 H         1 UNK         0.0600 
    181 H181        2.5455  -11.8636  -48.2916 H         1 UNK         0.0600 
    182 H182        4.0772  -11.0565  -48.6153 H         1 UNK         0.0600 
    183 H183        2.5695  -10.1975  -48.8570 H         1 UNK         0.0600 
    184 H184        1.5225  -10.9604  -45.5592 H         1 UNK         0.3000 
    185 H185       -0.5111  -10.3560  -45.3146 H         1 UNK         0.0600 
    186 H186       -0.9035   -7.3324  -45.5575 H         1 UNK         0.0600 
    187 H187       -1.7442   -8.4184  -44.4505 H         1 UNK         0.0600 
    188 H188       -0.0221   -8.1313  -44.2608 H         1 UNK         0.0600 
    189 H189       -2.4627   -9.1145  -46.6453 H         1 UNK         0.3000 
    190 H190       -1.7151  -23.1615  -43.4830 H         1 UNK         0.3000 
    191 H191       -4.0842  -24.1136  -42.1990 H         1 UNK         0.0600 
    192 H192       -1.2499  -25.2860  -42.2412 H         1 UNK         0.0600 
    193 H193       -1.8483  -24.0810  -41.1018 H         1 UNK         0.0600 
    194 H194       -2.5194  -25.7047  -41.0997 H         1 UNK         0.0600 
    195 H195       -2.2043  -25.2835  -44.9496 H         1 UNK         0.3000 
    196 H196       -3.7452  -27.7227  -45.3458 H         1 UNK         0.0600 
    197 H197       -1.3226  -27.5364  -45.9437 H         1 UNK         0.0600 
    198 H198       -1.7119  -26.3074  -47.1431 H         1 UNK         0.0600 
    199 H199       -2.3010  -27.9530  -47.3397 H         1 UNK         0.0600 
    200 H200       -4.9672  -24.7899  -45.5107 H         1 UNK         0.3000 
    201 H201       -6.6771  -23.7906  -46.4801 H         1 UNK         0.0600 
    202 H202       -8.4208  -25.1314  -47.6009 H         1 UNK         0.0600 
    203 H203       -7.8308  -25.9813  -46.1814 H         1 UNK         0.0600 
    204 H204       -7.3208  -26.4873  -47.7912 H         1 UNK         0.0600 
    205 H205       -4.4947  -23.0109  -47.5376 H         1 UNK         0.3000 
    206 H206       -3.5055  -21.9074  -49.1766 H         1 UNK         0.0600 
    207 H207       -6.0754  -22.1648  -50.8276 H         1 UNK         0.0600 
    208 H208       -4.7798  -20.9996  -51.0571 H         1 UNK         0.0600 
    209 H209       -5.7784  -20.9171  -49.6190 H         1 UNK         0.0600 
    210 H210       -2.8809  -24.4486  -48.8670 H         1 UNK         0.3000 
    211 H211       -1.9341  -26.3088  -49.6361 H         1 UNK         0.0600 
    212 H212       -0.3435  -24.7047  -50.6569 H         1 UNK         0.0600 
    213 H213       -0.5120  -26.1295  -51.6700 H         1 UNK         0.0600 
    214 H214       -1.3161  -24.6339  -52.1246 H         1 UNK         0.0600 
    215 H215       -4.4409  -26.7487  -49.6192 H         1 UNK         0.3000 
    216 H216       -6.2169  -27.8146  -50.3370 H         1 UNK         0.0600 
    217 H217       -5.9242  -29.7739  -51.8121 H         1 UNK         0.0600 
    218 H218       -4.3621  -29.1819  -52.3597 H         1 UNK         0.0600 
    219 H219       -4.5846  -29.6733  -50.6810 H         1 UNK         0.0600 
    220 H220       -6.2270  -25.3198  -51.1488 H         1 UNK         0.3000 
    221 H221       -7.0942  -23.7851  -52.4309 H         1 UNK         0.0600 
    222 H222       -8.6470  -26.0192  -53.8340 H         1 UNK         0.0600 
    223 H223       -9.1002  -25.2769  -52.2996 H         1 UNK         0.0600 
    224 H224       -9.0850  -24.3183  -53.7691 H         1 UNK         0.0600 
    225 H225       -4.5571  -25.0344  -53.3947 H         1 UNK         0.3000 
    226 H226       -4.5404  -24.6774  -56.2906 H         1 UNK         0.0600 
    227 H227       -2.9729  -26.2528  -55.1685 H         1 UNK         0.0600 
    228 H228       -2.0943  -24.9999  -56.0312 H         1 UNK         0.0600 
    229 H229       -2.2432  -24.9138  -54.2815 H         1 UNK         0.0600 
    230 H230       -4.1831  -22.6474  -53.4939 H         1 UNK         0.3000 
    231 H231       -3.9816  -20.4654  -53.1435 H         1 UNK         0.0600 
    232 H232       -4.4829  -18.7982  -54.8736 H         1 UNK         0.0600 
    233 H233       -5.6406  -20.1161  -54.9703 H         1 UNK         0.0600 
    234 H234       -4.3349  -19.9961  -56.1483 H         1 UNK         0.0600 
    235 H235       -1.8285  -21.6745  -52.7795 H         1 UNK         0.3000 
    236 H236        0.4539  -21.3070  -54.2956 H         1 UNK         0.0600 
    237 H237        0.3113  -22.8844  -52.4222 H         1 UNK         0.0600 
    238 H238        1.6525  -21.7955  -52.1268 H         1 UNK         0.0600 
    239 H239        0.1390  -21.5681  -51.2588 H         1 UNK         0.0600 
    240 H240       -1.0973  -18.8625  -52.3553 H         1 UNK         0.3000 
    241 H241        1.1635  -17.0622  -52.2225 H         1 UNK         0.0600 
    242 H242       -0.5049  -16.5095  -55.8782 H         1 UNK         0.3800 
    243 H243       -0.9179  -17.9166  -54.9318 H         1 UNK         0.3800 
    244 H244       -1.7348  -16.1696  -51.9345 H         1 UNK         0.0800 
    245 H245       -0.9880  -17.1209  -50.6902 H         1 UNK         0.0800 
    246 H246        1.2548  -14.8138  -48.7617 H         1 UNK         0.0800 
    247 H247        1.0299  -16.4785  -49.2393 H         1 UNK         0.0800 
@<TRIPOS>BOND
     1    1    2 1    
     2    1  127 1    
     3    1  128 1    
     4    1  129 1    
     5    2    3 2    
     6    2    4 am   BACKBONE|DICT|INTERRES
     7    4    5 1    
     8    4  130 1    
     9    5    6 1    
    10    5   65 1    
    11    5  131 1    
    12    6    7 1    
    13    6  132 1    
    14    6  133 1    
    15    7    8 1    
    16    8    9 1    
    17    8  134 1    
    18    8  135 1    
    19    9   10 ar   
    20    9   14 ar   
    21   10   11 ar   
    22   10  136 1    
    23   11   12 ar   
    24   11  126 1    
    25   12   13 ar   
    26   12  137 1    
    27   13   14 ar   
    28   13   15 1    
    29   14  138 1    
    30   15   16 1    
    31   15  139 1    
    32   15  140 1    
    33   16   17 1    
    34   17   18 1    
    35   17  141 1    
    36   17  142 1    
    37   18   19 1    
    38   18   67 1    
    39   18  143 1    
    40   19   20 am   BACKBONE|DICT|INTERRES
    41   19  144 1    
    42   20   21 2    
    43   20   22 1    
    44   22   23 1    
    45   22   24 1    
    46   22  145 1    
    47   23  146 1    
    48   23  147 1    
    49   23  148 1    
    50   24   25 am   BACKBONE|DICT|INTERRES
    51   24  149 1    
    52   25   26 2    
    53   25   27 1    
    54   27   28 1    
    55   27   29 1    
    56   27  150 1    
    57   28  151 1    
    58   28  152 1    
    59   28  153 1    
    60   29   30 am   BACKBONE|DICT|INTERRES
    61   29  154 1    
    62   30   31 2    
    63   30   32 1    
    64   32   33 1    
    65   32   34 1    
    66   32  155 1    
    67   33  156 1    
    68   33  157 1    
    69   33  158 1    
    70   34   35 am   BACKBONE|DICT|INTERRES
    71   34  159 1    
    72   35   36 2    
    73   35   37 1    
    74   37   38 1    
    75   37   39 1    
    76   37  160 1    
    77   38  161 1    
    78   38  162 1    
    79   38  163 1    
    80   39   40 am   BACKBONE|DICT|INTERRES
    81   39  164 1    
    82   40   41 2    
    83   40   42 1    
    84   42   43 1    
    85   42   44 1    
    86   42  165 1    
    87   43  166 1    
    88   43  167 1    
    89   43  168 1    
    90   44   45 am   BACKBONE|DICT|INTERRES
    91   44  169 1    
    92   45   46 2    
    93   45   47 1    
    94   47   48 1    
    95   47   49 1    
    96   47  170 1    
    97   48  171 1    
    98   48  172 1    
    99   48  173 1    
   100   49   50 am   BACKBONE|DICT|INTERRES
   101   49  174 1    
   102   50   51 2    
   103   50   52 1    
   104   52   53 1    
   105   52   54 1    
   106   52  175 1    
   107   53  176 1    
   108   53  177 1    
   109   53  178 1    
   110   54   55 am   BACKBONE|DICT|INTERRES
   111   54  179 1    
   112   55   56 2    
   113   55   57 1    
   114   57   58 1    
   115   57   59 1    
   116   57  180 1    
   117   58  181 1    
   118   58  182 1    
   119   58  183 1    
   120   59   60 am   BACKBONE|DICT|INTERRES
   121   59  184 1    
   122   60   61 2    
   123   60   62 1    
   124   62   63 1    
   125   62   64 1    
   126   62  185 1    
   127   63  186 1    
   128   63  187 1    
   129   63  188 1    
   130   64   65 am   BACKBONE|DICT|INTERRES
   131   64  189 1    
   132   65   66 2    
   133   67   68 2    
   134   67   69 am   BACKBONE|DICT|INTERRES
   135   69   70 1    
   136   69  190 1    
   137   70   71 1    
   138   70   72 1    
   139   70  191 1    
   140   71  192 1    
   141   71  193 1    
   142   71  194 1    
   143   72   73 2    
   144   72   74 am   BACKBONE|DICT|INTERRES
   145   74   75 1    
   146   74  195 1    
   147   75   76 1    
   148   75   77 1    
   149   75  196 1    
   150   76  197 1    
   151   76  198 1    
   152   76  199 1    
   153   77   78 2    
   154   77   79 am   BACKBONE|DICT|INTERRES
   155   79   80 1    
   156   79  200 1    
   157   80   81 1    
   158   80   82 1    
   159   80  201 1    
   160   81  202 1    
   161   81  203 1    
   162   81  204 1    
   163   82   83 2    
   164   82   84 am   BACKBONE|DICT|INTERRES
   165   84   85 1    
   166   84  205 1    
   167   85   86 1    
   168   85   87 1    
   169   85  206 1    
   170   86  207 1    
   171   86  208 1    
   172   86  209 1    
   173   87   88 2    
   174   87   89 am   BACKBONE|DICT|INTERRES
   175   89   90 1    
   176   89  210 1    
   177   90   91 1    
   178   90   92 1    
   179   90  211 1    
   180   91  212 1    
   181   91  213 1    
   182   91  214 1    
   183   92   93 2    
   184   92   94 am   BACKBONE|DICT|INTERRES
   185   94   95 1    
   186   94  215 1    
   187   95   96 1    
   188   95   97 1    
   189   95  216 1    
   190   96  217 1    
   191   96  218 1    
   192   96  219 1    
   193   97   98 2    
   194   97   99 am   BACKBONE|DICT|INTERRES
   195   99  100 1    
   196   99  220 1    
   197  100  101 1    
   198  100  102 1    
   199  100  221 1    
   200  101  222 1    
   201  101  223 1    
   202  101  224 1    
   203  102  103 2    
   204  102  104 am   BACKBONE|DICT|INTERRES
   205  104  105 1    
   206  104  225 1    
   207  105  106 1    
   208  105  107 1    
   209  105  226 1    
   210  106  227 1    
   211  106  228 1    
   212  106  229 1    
   213  107  108 2    
   214  107  109 am   BACKBONE|DICT|INTERRES
   215  109  110 1    
   216  109  230 1    
   217  110  111 1    
   218  110  112 1    
   219  110  231 1    
   220  111  232 1    
   221  111  233 1    
   222  111  234 1    
   223  112  113 2    
   224  112  114 am   BACKBONE|DICT|INTERRES
   225  114  115 1    
   226  114  235 1    
   227  115  116 1    
   228  115  117 1    
   229  115  236 1    
   230  116  237 1    
   231  116  238 1    
   232  116  239 1    
   233  117  118 2    
   234  117  119 am   BACKBONE|DICT|INTERRES
   235  119  120 1    
   236  119  240 1    
   237  120  121 1    
   238  120  124 1    
   239  120  241 1    
   240  121  122 am   BACKBONE|DICT|INTERRES
   241  121  123 2    
   242  122  242 1    
   243  122  243 1    
   244  124  125 1    
   245  124  244 1    
   246  124  245 1    
   247  125  126 1    
   248  126  246 1    
   249  126  247 1    
@<TRIPOS>SUBSTRUCTURE
     1 UNK         1 GROUP             0       ****    0 ROOT    
