@<TRIPOS>MOLECULE
3R540
247   249    1
SMALL
USER_CHARGES


@<TRIPOS>ATOM
      1 CA          5.2438  -15.0633  -44.8045 C.3       0 UNK        -0.1800 
      2 C           5.1887  -14.1994  -46.0562 C.2       0 UNK         0.5000 
      3 O           5.4699  -13.0036  -45.9894 O.2       0 UNK        -0.5000 
      4 N           4.7969  -14.7973  -47.1879 N.am      1 UNK        -0.5000 
      5 CA          4.6748  -14.2267  -48.5409 C.3       1 UNK         0.1400 
      6 C6          6.0021  -13.6899  -49.1380 C.3       23 UNK        -0.0398 
      7 S7          7.3759  -14.8925  -49.0910 S.3       23 UNK        -0.2404 
      8 C8          7.1673  -15.7822  -50.6680 C.3       23 UNK        -0.0205 
      9 C9          6.0954  -16.8584  -50.5737 C.ar      23 UNK        -0.0193 
     10 C10         4.8555  -16.6890  -51.1994 C.ar      23 UNK        -0.1150 
     11 C11         3.8715  -17.6758  -51.0905 C.ar      23 UNK        -0.0193 
     12 C12         4.1476  -18.8484  -50.3873 C.ar      23 UNK        -0.1150 
     13 C13         5.3750  -19.0279  -49.7445 C.ar      23 UNK        -0.0193 
     14 C14         6.3470  -18.0281  -49.8484 C.ar      23 UNK        -0.1150 
     15 C15         5.6564  -20.2937  -48.9416 C.3       23 UNK        -0.0205 
     16 S16         4.4821  -20.5268  -47.5619 S.3       23 UNK        -0.2404 
     17 C17         3.1043  -21.3979  -48.3878 C.3       23 UNK        -0.0398 
     18 CA          2.5109  -22.5226  -47.5108 C.3       11 UNK         0.1400 
     19 N           1.7804  -22.0102  -46.3471 N.am      11 UNK        -0.5000 
     20 C           1.4119  -22.7534  -45.2912 C.2       10 UNK         0.5000 
     21 O           1.6758  -23.9512  -45.1835 O.2       10 UNK        -0.5000 
     22 CA          0.6359  -22.0711  -44.1437 C.3       10 UNK         0.1400 
     23 CB          1.5643  -21.8335  -42.9423 C.3       10 UNK        -0.1800 
     24 N           0.0051  -20.8037  -44.5018 N.am      10 UNK        -0.5000 
     25 C          -0.9811  -20.6394  -45.3929 C.2       9 UNK         0.5000 
     26 O          -1.5370  -21.5675  -45.9803 O.2       9 UNK        -0.5000 
     27 CA         -1.3879  -19.1839  -45.7019 C.3       9 UNK         0.1400 
     28 CB         -2.5975  -18.7687  -44.8541 C.3       9 UNK        -0.1800 
     29 N          -0.3073  -18.2091  -45.5182 N.am      9 UNK        -0.5000 
     30 C           0.8751  -18.2334  -46.1528 C.2       8 UNK         0.5000 
     31 O           1.1947  -19.1005  -46.9613 O.2       8 UNK        -0.5000 
     32 CA          1.8830  -17.1353  -45.7882 C.3       8 UNK         0.1400 
     33 CB          1.5216  -15.8157  -46.4785 C.3       8 UNK        -0.1800 
     34 N           1.9252  -16.9341  -44.3424 N.am      8 UNK        -0.5000 
     35 C           2.6630  -17.6754  -43.5043 C.2       7 UNK         0.5000 
     36 O           3.4489  -18.5473  -43.8731 O.2       7 UNK        -0.5000 
     37 CA          2.4900  -17.4083  -41.9968 C.3       7 UNK         0.1400 
     38 CB          3.5142  -16.3697  -41.5146 C.3       7 UNK        -0.1800 
     39 N           1.1459  -16.9532  -41.6391 N.am      7 UNK        -0.5000 
     40 C           0.0344  -17.6962  -41.7356 C.2       6 UNK         0.5000 
     41 O           0.0227  -18.8664  -42.1156 O.2       6 UNK        -0.5000 
     42 CA         -1.2927  -16.9907  -41.3953 C.3       6 UNK         0.1400 
     43 CB         -1.5912  -17.1023  -39.8929 C.3       6 UNK        -0.1800 
     44 N          -1.3249  -15.5789  -41.7929 N.am      6 UNK        -0.5000 
     45 C          -1.1803  -15.1329  -43.0479 C.2       5 UNK         0.5000 
     46 O          -0.9597  -15.8677  -44.0133 O.2       5 UNK        -0.5000 
     47 CA         -1.2103  -13.6085  -43.2363 C.3       5 UNK         0.1400 
     48 CB          0.2113  -13.0380  -43.1059 C.3       5 UNK        -0.1800 
     49 N          -1.7607  -13.2406  -44.5401 N.am      5 UNK        -0.5000 
     50 C          -3.0656  -13.2685  -44.8464 C.2       4 UNK         0.5000 
     51 O          -3.9409  -13.5905  -44.0410 O.2       4 UNK        -0.5000 
     52 CA         -3.4866  -12.8370  -46.2674 C.3       4 UNK         0.1400 
     53 CB         -4.0513  -11.4079  -46.2465 C.3       4 UNK        -0.1800 
     54 N          -2.4041  -12.8945  -47.2491 N.am      4 UNK        -0.5000 
     55 C          -1.9600  -14.0181  -47.8232 C.2       3 UNK         0.5000 
     56 O          -2.4526  -15.1300  -47.6226 O.2       3 UNK        -0.5000 
     57 CA         -0.7759  -13.8923  -48.8036 C.3       3 UNK         0.1400 
     58 CB         -1.2893  -13.7782  -50.2466 C.3       3 UNK        -0.1800 
     59 N           0.1856  -12.8055  -48.5821 N.am      3 UNK        -0.5000 
     60 C           0.7727  -12.4444  -47.4346 C.2       2 UNK         0.5000 
     61 O           0.4166  -12.8253  -46.3217 O.2       2 UNK        -0.5000 
     62 CA          2.0315  -11.5709  -47.5675 C.3       2 UNK         0.1400 
     63 CB          2.2070  -10.6260  -46.3663 C.3       2 UNK        -0.1800 
     64 N           3.2024  -12.4401  -47.6598 N.am      2 UNK        -0.5000 
     65 C           3.5398  -13.1914  -48.7151 C.2       1 UNK         0.5000 
     66 O           2.9736  -13.1067  -49.8056 O.2       1 UNK        -0.5000 
     67 C           1.6334  -23.4892  -48.3311 C.2       11 UNK         0.5000 
     68 O           1.8677  -24.6979  -48.2866 O.2       11 UNK        -0.5000 
     69 N           0.6153  -22.9708  -49.0347 N.am      12 UNK        -0.5000 
     70 CA         -0.3268  -23.7781  -49.8203 C.3       12 UNK         0.1400 
     71 CB         -0.7967  -22.9900  -51.0561 C.3       12 UNK        -0.1800 
     72 C          -1.4994  -24.3005  -48.9628 C.2       12 UNK         0.5000 
     73 O          -2.6489  -24.2835  -49.4068 O.2       12 UNK        -0.5000 
     74 N          -1.1959  -24.7862  -47.7518 N.am      13 UNK        -0.5000 
     75 CA         -2.1609  -25.3386  -46.7962 C.3       13 UNK         0.1400 
     76 CB         -1.4644  -25.5507  -45.4448 C.3       13 UNK        -0.1800 
     77 C          -2.8298  -26.6434  -47.2729 C.2       13 UNK         0.5000 
     78 O          -3.9163  -26.9731  -46.7988 O.2       13 UNK        -0.5000 
     79 N          -2.1864  -27.3507  -48.2127 N.am      14 UNK        -0.5000 
     80 CA         -2.7419  -28.5175  -48.8994 C.3       14 UNK         0.1400 
     81 CB         -1.6078  -29.2607  -49.6216 C.3       14 UNK        -0.1800 
     82 C          -3.8619  -28.1449  -49.8920 C.2       14 UNK         0.5000 
     83 O          -4.7676  -28.9507  -50.1090 O.2       14 UNK        -0.5000 
     84 N          -3.7838  -26.9378  -50.4706 N.am      15 UNK        -0.5000 
     85 CA         -4.8053  -26.3735  -51.3507 C.3       15 UNK         0.1400 
     86 CB         -4.1445  -25.4104  -52.3491 C.3       15 UNK        -0.1800 
     87 C          -5.8946  -25.6602  -50.5346 C.2       15 UNK         0.5000 
     88 O          -7.0792  -25.8407  -50.8201 O.2       15 UNK        -0.5000 
     89 N          -5.4721  -24.8784  -49.5279 N.am      16 UNK        -0.5000 
     90 CA         -6.2994  -24.1335  -48.5746 C.3       16 UNK         0.1400 
     91 CB         -6.9654  -25.1013  -47.5716 C.3       16 UNK        -0.1800 
     92 C          -7.2946  -23.2025  -49.2945 C.2       16 UNK         0.5000 
     93 O          -6.8673  -22.2187  -49.8985 O.2       16 UNK        -0.5000 
     94 N          -8.5886  -23.5473  -49.2707 N.am      17 UNK        -0.5000 
     95 CA         -9.6734  -22.8325  -49.9460 C.3       17 UNK         0.1400 
     96 CB        -11.0123  -23.4746  -49.5530 C.3       17 UNK        -0.1800 
     97 C          -9.5352  -22.7710  -51.4813 C.2       17 UNK         0.5000 
     98 O         -10.0731  -21.8452  -52.0889 O.2       17 UNK        -0.5000 
     99 N          -8.8093  -23.7271  -52.0824 N.am      18 UNK        -0.5000 
    100 CA        -8.4951  -23.7292  -53.5133 C.3       18 UNK         0.1400 
    101 CB        -8.0678  -25.1384  -53.9504 C.3       18 UNK        -0.1800 
    102 C         -7.4229  -22.6863  -53.8870 C.2       18 UNK         0.5000 
    103 O         -7.4371  -22.1915  -55.0147 O.2       18 UNK        -0.5000 
    104 N         -6.5312  -22.3544  -52.9412 N.am      19 UNK        -0.5000 
    105 CA        -5.5809  -21.2476  -53.0661 C.3       19 UNK         0.1400 
    106 CB        -4.3282  -21.5343  -52.2210 C.3       19 UNK        -0.1800 
    107 C         -6.2321  -19.9173  -52.6499 C.2       19 UNK         0.5000 
    108 O         -5.9902  -18.8950  -53.2906 O.2       19 UNK        -0.5000 
    109 N         -7.0443  -19.9629  -51.5828 N.am      20 UNK        -0.5000 
    110 CA        -7.8178  -18.8905  -50.9415 C.3       20 UNK         0.1400 
    111 CB        -8.7678  -18.1961  -51.9350 C.3       20 UNK        -0.1800 
    112 C         -6.9641  -17.8695  -50.1634 C.2       20 UNK         0.5000 
    113 O         -7.4031  -17.3910  -49.1170 O.2       20 UNK        -0.5000 
    114 N         -5.7572  -17.5820  -50.6539 N.am      21 UNK        -0.5000 
    115 CA        -4.7203  -16.7914  -50.0073 C.3       21 UNK         0.1400 
    116 CB        -4.8533  -15.3207  -50.4357 C.3       21 UNK        -0.1800 
    117 C         -3.3690  -17.3959  -50.4177 C.2       21 UNK         0.5000 
    118 O         -3.2639  -17.9743  -51.5020 O.2       21 UNK        -0.5000 
    119 N         -2.3649  -17.2700  -49.5437 N.am      22 UNK        -0.5000 
    120 CA        -1.0190  -17.8581  -49.6906 C.3       22 UNK         0.1400 
    121 C         -0.9669  -19.4178  -49.5934 C.2       22 UNK         0.5000 
    122 N         -2.0401  -20.0873  -49.1853 N.am      22 UNK        -0.7600 
    123 O          0.0616  -20.0340  -49.8569 O.2       22 UNK        -0.5000 
    124 C124       -0.2462  -17.2894  -50.9224 C.3       23 UNK        -0.0398 
    125 S125        1.4064  -16.6635  -50.4673 S.3       23 UNK        -0.2404 
    126 C126        2.4883  -17.4752  -51.6838 C.3       23 UNK        -0.0205 
    127 H127        6.2331  -15.0063  -44.3508 H         1 UNK         0.0600 
    128 H128        5.0305  -16.1100  -45.0232 H         1 UNK         0.0600 
    129 H129        4.5120  -14.7118  -44.0776 H         1 UNK         0.0600 
    130 H130        4.5843  -15.7833  -47.1469 H         1 UNK         0.3000 
    131 H131        4.3629  -15.0732  -49.1493 H         1 UNK         0.0600 
    132 H132        5.8551  -13.3709  -50.1714 H         1 UNK         0.0800 
    133 H133        6.3245  -12.7998  -48.5956 H         1 UNK         0.0800 
    134 H134        8.1161  -16.2524  -50.9302 H         1 UNK         0.0800 
    135 H135        6.9483  -15.0771  -51.4712 H         1 UNK         0.0800 
    136 H136        4.6434  -15.7788  -51.7428 H         1 UNK         0.1150 
    137 H137        3.3832  -19.6058  -50.3224 H         1 UNK         0.1150 
    138 H138        7.3023  -18.1523  -49.3578 H         1 UNK         0.1150 
    139 H139        5.6495  -21.1594  -49.6047 H         1 UNK         0.0800 
    140 H140        6.6609  -20.2515  -48.5181 H         1 UNK         0.0800 
    141 H141        3.4660  -21.8111  -49.3307 H         1 UNK         0.0800 
    142 H142        2.3357  -20.6713  -48.6487 H         1 UNK         0.0800 
    143 H143        3.3490  -23.1137  -47.1344 H         1 UNK         0.0600 
    144 H144        1.5271  -21.0276  -46.3789 H         1 UNK         0.3000 
    145 H145       -0.1542  -22.7561  -43.8318 H         1 UNK         0.0600 
    146 H146        2.3509  -21.1161  -43.1800 H         1 UNK         0.0600 
    147 H147        1.0105  -21.4522  -42.0843 H         1 UNK         0.0600 
    148 H148        2.0473  -22.7598  -42.6283 H         1 UNK         0.0600 
    149 H149        0.3461  -19.9811  -44.0200 H         1 UNK         0.3000 
    150 H150       -1.6844  -19.1369  -46.7474 H         1 UNK         0.0600 
    151 H151       -3.4526  -19.4154  -45.0540 H         1 UNK         0.0600 
    152 H152       -2.9038  -17.7451  -45.0723 H         1 UNK         0.0600 
    153 H153       -2.3780  -18.8374  -43.7895 H         1 UNK         0.0600 
    154 H154       -0.5072  -17.4293  -44.8954 H         1 UNK         0.3000 
    155 H155        2.8701  -17.4423  -46.1412 H         1 UNK         0.0600 
    156 H156        1.6438  -15.8976  -47.5581 H         1 UNK         0.0600 
    157 H157        0.4883  -15.5267  -46.2839 H         1 UNK         0.0600 
    158 H158        2.1604  -15.0019  -46.1378 H         1 UNK         0.0600 
    159 H159        1.2547  -16.2821  -43.9588 H         1 UNK         0.3000 
    160 H160        2.6801  -18.3476  -41.4729 H         1 UNK         0.0600 
    161 H161        4.5304  -16.6729  -41.7710 H         1 UNK         0.0600 
    162 H162        3.3392  -15.3922  -41.9654 H         1 UNK         0.0600 
    163 H163        3.4753  -16.2515  -40.4316 H         1 UNK         0.0600 
    164 H164        1.0584  -16.0012  -41.3162 H         1 UNK         0.3000 
    165 H165       -2.0897  -17.5027  -41.9359 H         1 UNK         0.0600 
    166 H166       -2.5702  -16.6873  -39.6529 H         1 UNK         0.0600 
    167 H167       -1.5949  -18.1451  -39.5724 H         1 UNK         0.0600 
    168 H168       -0.8467  -16.5772  -39.2932 H         1 UNK         0.0600 
    169 H169       -1.4854  -14.9106  -41.0529 H         1 UNK         0.3000 
    170 H170       -1.8347  -13.1644  -42.4582 H         1 UNK         0.0600 
    171 H171        0.6084  -13.2010  -42.1034 H         1 UNK         0.0600 
    172 H172        0.9011  -13.5063  -43.8095 H         1 UNK         0.0600 
    173 H173        0.2254  -11.9637  -43.2907 H         1 UNK         0.0600 
    174 H174       -1.0799  -13.0364  -45.2686 H         1 UNK         0.3000 
    175 H175       -4.2840  -13.5105  -46.5892 H         1 UNK         0.0600 
    176 H176       -3.2969  -10.6822  -45.9398 H         1 UNK         0.0600 
    177 H177       -4.4205  -11.1150  -47.2295 H         1 UNK         0.0600 
    178 H178       -4.8870  -11.3270  -45.5500 H         1 UNK         0.0600 
    179 H179       -1.9259  -12.0297  -47.4544 H         1 UNK         0.3000 
    180 H180       -0.2123  -14.8217  -48.7221 H         1 UNK         0.0600 
    181 H181       -1.9651  -14.5945  -50.4942 H         1 UNK         0.0600 
    182 H182       -0.4673  -13.8192  -50.9618 H         1 UNK         0.0600 
    183 H183       -1.8295  -12.8445  -50.4074 H         1 UNK         0.0600 
    184 H184        0.6092  -12.4485  -49.4276 H         1 UNK         0.3000 
    185 H185        1.9549  -10.9661  -48.4734 H         1 UNK         0.0600 
    186 H186        3.0769   -9.9823  -46.4970 H         1 UNK         0.0600 
    187 H187        1.3368   -9.9791  -46.2491 H         1 UNK         0.0600 
    188 H188        2.3365  -11.1753  -45.4326 H         1 UNK         0.0600 
    189 H189        3.7593  -12.5477  -46.8187 H         1 UNK         0.3000 
    190 H190        0.4623  -21.9671  -49.0392 H         1 UNK         0.3000 
    191 H191        0.1943  -24.6597  -50.1991 H         1 UNK         0.0600 
    192 H192       -1.4742  -22.1797  -50.7949 H         1 UNK         0.0600 
    193 H193       -1.3292  -23.6408  -51.7502 H         1 UNK         0.0600 
    194 H194        0.0461  -22.5610  -51.5982 H         1 UNK         0.0600 
    195 H195       -0.2239  -24.7865  -47.4698 H         1 UNK         0.3000 
    196 H196       -2.9541  -24.6006  -46.6585 H         1 UNK         0.0600 
    197 H197       -2.1486  -25.9804  -44.7119 H         1 UNK         0.0600 
    198 H198       -1.1107  -24.6046  -45.0379 H         1 UNK         0.0600 
    199 H199       -0.6088  -26.2214  -45.5321 H         1 UNK         0.0600 
    200 H200       -1.2818  -27.0262  -48.5206 H         1 UNK         0.3000 
    201 H201       -3.1689  -29.1888  -48.1512 H         1 UNK         0.0600 
    202 H202       -0.8395  -29.5858  -48.9197 H         1 UNK         0.0600 
    203 H203       -1.1309  -28.6341  -50.3764 H         1 UNK         0.0600 
    204 H204       -1.9844  -30.1521  -50.1252 H         1 UNK         0.0600 
    205 H205       -3.0386  -26.3138  -50.1936 H         1 UNK         0.3000 
    206 H206       -5.2811  -27.1738  -51.9217 H         1 UNK         0.0600 
    207 H207       -3.4218  -25.9315  -52.9770 H         1 UNK         0.0600 
    208 H208       -4.8817  -24.9561  -53.0110 H         1 UNK         0.0600 
    209 H209       -3.6210  -24.6017  -51.8415 H         1 UNK         0.0600 
    210 H210       -4.4699  -24.7332  -49.4326 H         1 UNK         0.3000 
    211 H211       -5.6233  -23.4859  -48.0144 H         1 UNK         0.0600 
    212 H212       -7.5982  -25.8403  -48.0642 H         1 UNK         0.0600 
    213 H213       -7.5788  -24.5613  -46.8491 H         1 UNK         0.0600 
    214 H214       -6.2130  -25.6457  -47.0026 H         1 UNK         0.0600 
    215 H215       -8.8438  -24.3963  -48.7875 H         1 UNK         0.3000 
    216 H216       -9.6672  -21.8038  -49.5801 H         1 UNK         0.0600 
    217 H217      -11.8492  -22.9486  -50.0144 H         1 UNK         0.0600 
    218 H218      -11.1652  -23.4412  -48.4741 H         1 UNK         0.0600 
    219 H219      -11.0654  -24.5173  -49.8689 H         1 UNK         0.0600 
    220 H220       -8.3904  -24.4621  -51.5203 H         1 UNK         0.3000 
    221 H221       -9.4040  -23.4752  -54.0632 H         1 UNK         0.0600 
    222 H222       -7.1462  -25.4537  -53.4641 H         1 UNK         0.0600 
    223 H223       -8.8377  -25.8741  -53.7173 H         1 UNK         0.0600 
    224 H224       -7.8972  -25.1761  -55.0270 H         1 UNK         0.0600 
    225 H225       -6.6219  -22.7674  -52.0228 H         1 UNK         0.3000 
    226 H226       -5.2636  -21.1519  -54.1067 H         1 UNK         0.0600 
    227 H227       -3.7852  -22.3949  -52.6087 H         1 UNK         0.0600 
    228 H228       -3.6401  -20.6880  -52.2414 H         1 UNK         0.0600 
    229 H229       -4.5701  -21.7313  -51.1764 H         1 UNK         0.0600 
    230 H230       -7.0742  -20.8452  -51.0765 H         1 UNK         0.3000 
    231 H231       -8.4398  -19.3959  -50.2011 H         1 UNK         0.0600 
    232 H232       -9.4302  -17.5025  -51.4159 H         1 UNK         0.0600 
    233 H233       -9.3964  -18.9225  -52.4507 H         1 UNK         0.0600 
    234 H234       -8.2263  -17.6234  -52.6880 H         1 UNK         0.0600 
    235 H235       -5.4707  -18.0202  -51.5253 H         1 UNK         0.3000 
    236 H236       -4.8240  -16.8670  -48.9225 H         1 UNK         0.0600 
    237 H237       -4.1828  -14.6845  -49.8600 H         1 UNK         0.0600 
    238 H238       -5.8642  -14.9497  -50.2661 H         1 UNK         0.0600 
    239 H239       -4.6205  -15.1852  -51.4927 H         1 UNK         0.0600 
    240 H240       -2.5150  -16.7252  -48.6980 H         1 UNK         0.3000 
    241 H241       -0.5072  -17.5289  -48.7862 H         1 UNK         0.0600 
    242 H242       -2.8959  -19.6010  -48.9798 H         1 UNK         0.3800 
    243 H243       -2.0017  -21.0882  -49.0989 H         1 UNK         0.3800 
    244 H244       -0.1762  -18.0265  -51.7237 H         1 UNK         0.0800 
    245 H245       -0.7798  -16.4501  -51.3668 H         1 UNK         0.0800 
    246 H246        2.5405  -16.8700  -52.5899 H         1 UNK         0.0800 
    247 H247        2.0733  -18.4415  -51.9745 H         1 UNK         0.0800 
@<TRIPOS>BOND
     1    1    2 1    
     2    1  127 1    
     3    1  128 1    
     4    1  129 1    
     5    2    3 2    
     6    2    4 am   BACKBONE|DICT|INTERRES
     7    4    5 1    
     8    4  130 1    
     9    5    6 1    
    10    5   65 1    
    11    5  131 1    
    12    6    7 1    
    13    6  132 1    
    14    6  133 1    
    15    7    8 1    
    16    8    9 1    
    17    8  134 1    
    18    8  135 1    
    19    9   10 ar   
    20    9   14 ar   
    21   10   11 ar   
    22   10  136 1    
    23   11   12 ar   
    24   11  126 1    
    25   12   13 ar   
    26   12  137 1    
    27   13   14 ar   
    28   13   15 1    
    29   14  138 1    
    30   15   16 1    
    31   15  139 1    
    32   15  140 1    
    33   16   17 1    
    34   17   18 1    
    35   17  141 1    
    36   17  142 1    
    37   18   19 1    
    38   18   67 1    
    39   18  143 1    
    40   19   20 am   BACKBONE|DICT|INTERRES
    41   19  144 1    
    42   20   21 2    
    43   20   22 1    
    44   22   23 1    
    45   22   24 1    
    46   22  145 1    
    47   23  146 1    
    48   23  147 1    
    49   23  148 1    
    50   24   25 am   BACKBONE|DICT|INTERRES
    51   24  149 1    
    52   25   26 2    
    53   25   27 1    
    54   27   28 1    
    55   27   29 1    
    56   27  150 1    
    57   28  151 1    
    58   28  152 1    
    59   28  153 1    
    60   29   30 am   BACKBONE|DICT|INTERRES
    61   29  154 1    
    62   30   31 2    
    63   30   32 1    
    64   32   33 1    
    65   32   34 1    
    66   32  155 1    
    67   33  156 1    
    68   33  157 1    
    69   33  158 1    
    70   34   35 am   BACKBONE|DICT|INTERRES
    71   34  159 1    
    72   35   36 2    
    73   35   37 1    
    74   37   38 1    
    75   37   39 1    
    76   37  160 1    
    77   38  161 1    
    78   38  162 1    
    79   38  163 1    
    80   39   40 am   BACKBONE|DICT|INTERRES
    81   39  164 1    
    82   40   41 2    
    83   40   42 1    
    84   42   43 1    
    85   42   44 1    
    86   42  165 1    
    87   43  166 1    
    88   43  167 1    
    89   43  168 1    
    90   44   45 am   BACKBONE|DICT|INTERRES
    91   44  169 1    
    92   45   46 2    
    93   45   47 1    
    94   47   48 1    
    95   47   49 1    
    96   47  170 1    
    97   48  171 1    
    98   48  172 1    
    99   48  173 1    
   100   49   50 am   BACKBONE|DICT|INTERRES
   101   49  174 1    
   102   50   51 2    
   103   50   52 1    
   104   52   53 1    
   105   52   54 1    
   106   52  175 1    
   107   53  176 1    
   108   53  177 1    
   109   53  178 1    
   110   54   55 am   BACKBONE|DICT|INTERRES
   111   54  179 1    
   112   55   56 2    
   113   55   57 1    
   114   57   58 1    
   115   57   59 1    
   116   57  180 1    
   117   58  181 1    
   118   58  182 1    
   119   58  183 1    
   120   59   60 am   BACKBONE|DICT|INTERRES
   121   59  184 1    
   122   60   61 2    
   123   60   62 1    
   124   62   63 1    
   125   62   64 1    
   126   62  185 1    
   127   63  186 1    
   128   63  187 1    
   129   63  188 1    
   130   64   65 am   BACKBONE|DICT|INTERRES
   131   64  189 1    
   132   65   66 2    
   133   67   68 2    
   134   67   69 am   BACKBONE|DICT|INTERRES
   135   69   70 1    
   136   69  190 1    
   137   70   71 1    
   138   70   72 1    
   139   70  191 1    
   140   71  192 1    
   141   71  193 1    
   142   71  194 1    
   143   72   73 2    
   144   72   74 am   BACKBONE|DICT|INTERRES
   145   74   75 1    
   146   74  195 1    
   147   75   76 1    
   148   75   77 1    
   149   75  196 1    
   150   76  197 1    
   151   76  198 1    
   152   76  199 1    
   153   77   78 2    
   154   77   79 am   BACKBONE|DICT|INTERRES
   155   79   80 1    
   156   79  200 1    
   157   80   81 1    
   158   80   82 1    
   159   80  201 1    
   160   81  202 1    
   161   81  203 1    
   162   81  204 1    
   163   82   83 2    
   164   82   84 am   BACKBONE|DICT|INTERRES
   165   84   85 1    
   166   84  205 1    
   167   85   86 1    
   168   85   87 1    
   169   85  206 1    
   170   86  207 1    
   171   86  208 1    
   172   86  209 1    
   173   87   88 2    
   174   87   89 am   BACKBONE|DICT|INTERRES
   175   89   90 1    
   176   89  210 1    
   177   90   91 1    
   178   90   92 1    
   179   90  211 1    
   180   91  212 1    
   181   91  213 1    
   182   91  214 1    
   183   92   93 2    
   184   92   94 am   BACKBONE|DICT|INTERRES
   185   94   95 1    
   186   94  215 1    
   187   95   96 1    
   188   95   97 1    
   189   95  216 1    
   190   96  217 1    
   191   96  218 1    
   192   96  219 1    
   193   97   98 2    
   194   97   99 am   BACKBONE|DICT|INTERRES
   195   99  100 1    
   196   99  220 1    
   197  100  101 1    
   198  100  102 1    
   199  100  221 1    
   200  101  222 1    
   201  101  223 1    
   202  101  224 1    
   203  102  103 2    
   204  102  104 am   BACKBONE|DICT|INTERRES
   205  104  105 1    
   206  104  225 1    
   207  105  106 1    
   208  105  107 1    
   209  105  226 1    
   210  106  227 1    
   211  106  228 1    
   212  106  229 1    
   213  107  108 2    
   214  107  109 am   BACKBONE|DICT|INTERRES
   215  109  110 1    
   216  109  230 1    
   217  110  111 1    
   218  110  112 1    
   219  110  231 1    
   220  111  232 1    
   221  111  233 1    
   222  111  234 1    
   223  112  113 2    
   224  112  114 am   BACKBONE|DICT|INTERRES
   225  114  115 1    
   226  114  235 1    
   227  115  116 1    
   228  115  117 1    
   229  115  236 1    
   230  116  237 1    
   231  116  238 1    
   232  116  239 1    
   233  117  118 2    
   234  117  119 am   BACKBONE|DICT|INTERRES
   235  119  120 1    
   236  119  240 1    
   237  120  121 1    
   238  120  124 1    
   239  120  241 1    
   240  121  122 am   BACKBONE|DICT|INTERRES
   241  121  123 2    
   242  122  242 1    
   243  122  243 1    
   244  124  125 1    
   245  124  244 1    
   246  124  245 1    
   247  125  126 1    
   248  126  246 1    
   249  126  247 1    
@<TRIPOS>SUBSTRUCTURE
     1 UNK         1 GROUP             0       ****    0 ROOT    
