@<TRIPOS>MOLECULE
3R540
247   249    1
SMALL
USER_CHARGES


@<TRIPOS>ATOM
      1 CA         -4.3850  -17.8526  -43.3145 C.3       0 UNK        -0.1800 
      2 C          -4.6990  -16.4221  -43.7224 C.2       0 UNK         0.5000 
      3 O          -5.1245  -15.6234  -42.8884 O.2       0 UNK        -0.5000 
      4 N          -4.4819  -16.0961  -45.0033 N.am      1 UNK        -0.5000 
      5 CA         -4.6876  -14.7587  -45.5743 C.3       1 UNK         0.1400 
      6 C6         -4.8360  -14.8166  -47.1171 C.3       23 UNK        -0.0398 
      7 S7         -3.3081  -15.2539  -48.0216 S.3       23 UNK        -0.2404 
      8 C8         -3.5292  -17.0401  -48.3280 C.3       23 UNK        -0.0205 
      9 C9         -2.4175  -17.7169  -49.1337 C.ar      23 UNK        -0.0193 
     10 C10        -1.3372  -17.0205  -49.6951 C.ar      23 UNK        -0.1150 
     11 C11        -0.3733  -17.6802  -50.4675 C.ar      23 UNK        -0.0193 
     12 C12        -0.4991  -19.0555  -50.6704 C.ar      23 UNK        -0.1150 
     13 C13        -1.5563  -19.7718  -50.1069 C.ar      23 UNK        -0.0193 
     14 C14        -2.5047  -19.0966  -49.3355 C.ar      23 UNK        -0.1150 
     15 C15        -1.6968  -21.2709  -50.3381 C.3       23 UNK        -0.0205 
     16 S16        -0.1666  -22.2188  -50.0454 S.3       23 UNK        -0.2404 
     17 C17         0.2307  -21.7476  -48.3319 C.3       23 UNK        -0.0398 
     18 CA         -0.1235  -22.8075  -47.2661 C.3       11 UNK         0.1400 
     19 N           0.5081  -22.4636  -45.9899 N.am      11 UNK        -0.5000 
     20 C           0.5338  -23.2366  -44.8976 C.2       10 UNK         0.5000 
     21 O           0.0477  -24.3645  -44.8473 O.2       10 UNK        -0.5000 
     22 CA          1.1774  -22.6301  -43.6375 C.3       10 UNK         0.1400 
     23 CB          2.7081  -22.7368  -43.7037 C.3       10 UNK        -0.1800 
     24 N           0.7905  -21.2350  -43.4184 N.am      10 UNK        -0.5000 
     25 C          -0.4617  -20.8240  -43.1716 C.2       9 UNK         0.5000 
     26 O          -1.4232  -21.5854  -43.0714 O.2       9 UNK        -0.5000 
     27 CA         -0.6911  -19.3043  -43.0770 C.3       9 UNK         0.1400 
     28 CB         -0.2328  -18.7506  -41.7204 C.3       9 UNK        -0.1800 
     29 N          -0.0377  -18.5702  -44.1606 N.am      9 UNK        -0.5000 
     30 C          -0.3378  -18.7201  -45.4588 C.2       8 UNK         0.5000 
     31 O          -1.2381  -19.4482  -45.8754 O.2       8 UNK        -0.5000 
     32 CA          0.5477  -17.9620  -46.4602 C.3       8 UNK         0.1400 
     33 CB          0.0763  -16.5098  -46.6149 C.3       8 UNK        -0.1800 
     34 N           1.9613  -17.9930  -46.0805 N.am      8 UNK        -0.5000 
     35 C           2.7117  -19.1043  -46.0706 C.2       7 UNK         0.5000 
     36 O           2.3040  -20.2081  -46.4269 O.2       7 UNK        -0.5000 
     37 CA          4.1351  -18.9750  -45.5048 C.3       7 UNK         0.1400 
     38 CB          5.1107  -18.4674  -46.5763 C.3       7 UNK        -0.1800 
     39 N           4.1760  -18.1063  -44.3270 N.am      7 UNK        -0.5000 
     40 C           3.6388  -18.4431  -43.1442 C.2       6 UNK         0.5000 
     41 O           3.0850  -19.5219  -42.9348 O.2       6 UNK        -0.5000 
     42 CA          3.6925  -17.4022  -42.0108 C.3       6 UNK         0.1400 
     43 CB          4.9406  -17.6197  -41.1428 C.3       6 UNK        -0.1800 
     44 N           3.6673  -16.0158  -42.4751 N.am      6 UNK        -0.5000 
     45 C           2.6668  -15.4438  -43.1575 C.2       5 UNK         0.5000 
     46 O           1.6396  -16.0408  -43.4898 O.2       5 UNK        -0.5000 
     47 CA          2.8484  -13.9649  -43.5646 C.3       5 UNK         0.1400 
     48 CB          4.1548  -13.3187  -43.0511 C.3       5 UNK        -0.1800 
     49 N           2.7333  -13.7729  -45.0127 N.am      5 UNK        -0.5000 
     50 C           3.4260  -14.4035  -45.9753 C.2       4 UNK         0.5000 
     51 O           4.2748  -15.2659  -45.7455 O.2       4 UNK        -0.5000 
     52 CA          3.0872  -14.0264  -47.4320 C.3       4 UNK         0.1400 
     53 CB          3.3639  -15.1754  -48.4190 C.3       4 UNK        -0.1800 
     54 N           1.6831  -13.6301  -47.5328 N.am      4 UNK        -0.5000 
     55 C           1.2238  -12.4526  -47.9705 C.2       3 UNK         0.5000 
     56 O           1.9319  -11.5737  -48.4624 O.2       3 UNK        -0.5000 
     57 CA         -0.2863  -12.1994  -47.7785 C.3       3 UNK         0.1400 
     58 CB         -1.0620  -12.5681  -49.0511 C.3       3 UNK        -0.1800 
     59 N          -0.8660  -12.9156  -46.6330 N.am      3 UNK        -0.5000 
     60 C          -0.5331  -12.7080  -45.3488 C.2       2 UNK         0.5000 
     61 O           0.3424  -11.9128  -45.0054 O.2       2 UNK        -0.5000 
     62 CA         -1.2310  -13.5659  -44.2706 C.3       2 UNK         0.1400 
     63 CB         -1.5170  -12.7716  -42.9801 C.3       2 UNK        -0.1800 
     64 N          -2.4305  -14.2721  -44.7320 N.am      2 UNK        -0.5000 
     65 C          -3.6014  -13.7490  -45.1320 C.2       1 UNK         0.5000 
     66 O          -3.8394  -12.5420  -45.1799 O.2       1 UNK        -0.5000 
     67 C          -1.6488  -23.0124  -47.1205 C.2       11 UNK         0.5000 
     68 O          -2.1904  -23.9856  -47.6498 O.2       11 UNK        -0.5000 
     69 N          -2.3090  -22.1203  -46.3679 N.am      12 UNK        -0.5000 
     70 CA         -3.7257  -22.2252  -46.0236 C.3       12 UNK         0.1400 
     71 CB         -4.1941  -20.9208  -45.3654 C.3       12 UNK        -0.1800 
     72 C          -4.0224  -23.4377  -45.1218 C.2       12 UNK         0.5000 
     73 O          -4.9731  -24.1712  -45.3932 O.2       12 UNK        -0.5000 
     74 N          -3.1840  -23.6576  -44.0974 N.am      13 UNK        -0.5000 
     75 CA         -3.2688  -24.7951  -43.1746 C.3       13 UNK         0.1400 
     76 CB         -2.2653  -24.6037  -42.0279 C.3       13 UNK        -0.1800 
     77 C          -3.0564  -26.1593  -43.8603 C.2       13 UNK         0.5000 
     78 O          -3.6801  -27.1432  -43.4613 O.2       13 UNK        -0.5000 
     79 N          -2.2153  -26.1856  -44.9030 N.am      14 UNK        -0.5000 
     80 CA         -1.9810  -27.3366  -45.7776 C.3       14 UNK         0.1400 
     81 CB         -0.6839  -27.1044  -46.5698 C.3       14 UNK        -0.1800 
     82 C          -3.1546  -27.6447  -46.7332 C.2       14 UNK         0.5000 
     83 O          -3.1282  -28.6894  -47.3855 O.2       14 UNK        -0.5000 
     84 N          -4.1532  -26.7498  -46.7988 N.am      15 UNK        -0.5000 
     85 CA         -5.3706  -26.8279  -47.6102 C.3       15 UNK         0.1400 
     86 CB         -6.2617  -28.0047  -47.1591 C.3       15 UNK        -0.1800 
     87 C          -5.0781  -26.8231  -49.1236 C.2       15 UNK         0.5000 
     88 O          -5.6506  -27.6170  -49.8740 O.2       15 UNK        -0.5000 
     89 N          -4.1842  -25.9177  -49.5432 N.am      16 UNK        -0.5000 
     90 CA         -3.8613  -25.6492  -50.9449 C.3       16 UNK         0.1400 
     91 CB         -2.6121  -24.7602  -50.9877 C.3       16 UNK        -0.1800 
     92 C          -5.0295  -24.9892  -51.7107 C.2       16 UNK         0.5000 
     93 O          -6.0110  -24.5488  -51.1043 O.2       16 UNK        -0.5000 
     94 N          -4.8959  -24.9311  -53.0419 N.am      17 UNK        -0.5000 
     95 CA         -5.8702  -24.3745  -53.9831 C.3       17 UNK         0.1400 
     96 CB         -5.5173  -24.8674  -55.3983 C.3       17 UNK        -0.1800 
     97 C          -5.9657  -22.8348  -53.9044 C.2       17 UNK         0.5000 
     98 O          -5.4781  -22.1373  -54.7964 O.2       17 UNK        -0.5000 
     99 N          -6.5945  -22.3452  -52.8275 N.am      18 UNK        -0.5000 
    100 CA        -6.8077  -20.9383  -52.4752 C.3       18 UNK         0.1400 
    101 CB        -7.7572  -20.2590  -53.4883 C.3       18 UNK        -0.1800 
    102 C         -5.4747  -20.1901  -52.2606 C.2       18 UNK         0.5000 
    103 O         -4.5157  -20.7912  -51.7733 O.2       18 UNK        -0.5000 
    104 N         -5.4261  -18.8987  -52.6119 N.am      19 UNK        -0.5000 
    105 CA        -4.2408  -18.0439  -52.5335 C.3       19 UNK         0.1400 
    106 CB        -4.6905  -16.5743  -52.4463 C.3       19 UNK        -0.1800 
    107 C         -3.2775  -18.3091  -53.7078 C.2       19 UNK         0.5000 
    108 O         -3.0549  -17.4267  -54.5392 O.2       19 UNK        -0.5000 
    109 N         -2.7494  -19.5373  -53.7737 N.am      20 UNK        -0.5000 
    110 CA        -1.8169  -20.0187  -54.7928 C.3       20 UNK         0.1400 
    111 CB        -1.4759  -21.4890  -54.5031 C.3       20 UNK        -0.1800 
    112 C         -0.5426  -19.1556  -54.8512 C.2       20 UNK         0.5000 
    113 O          0.1245  -18.9945  -53.8310 O.2       20 UNK        -0.5000 
    114 N         -0.2621  -18.5763  -56.0252 N.am      21 UNK        -0.5000 
    115 CA         0.8125  -17.6213  -56.3409 C.3       21 UNK         0.1400 
    116 CB         2.2066  -18.1933  -56.0159 C.3       21 UNK        -0.1800 
    117 C          0.6289  -16.2112  -55.7358 C.2       21 UNK         0.5000 
    118 O          1.0397  -15.2389  -56.3712 O.2       21 UNK        -0.5000 
    119 N          0.0082  -16.1056  -54.5543 N.am      22 UNK        -0.5000 
    120 CA        -0.3885  -14.8357  -53.9228 C.3       22 UNK         0.1400 
    121 C         -1.5167  -14.0865  -54.6892 C.2       22 UNK         0.5000 
    122 N         -2.4828  -14.7774  -55.2805 N.am      22 UNK        -0.7600 
    123 O         -1.5104  -12.8602  -54.7519 O.2       22 UNK        -0.5000 
    124 C124       -0.7828  -15.0333  -52.4373 C.3       23 UNK        -0.0398 
    125 S125        0.6618  -15.1620  -51.3300 S.3       23 UNK        -0.2404 
    126 C126        0.8299  -16.9630  -51.0835 C.3       23 UNK        -0.0205 
    127 H127       -3.8001  -17.8637  -42.3948 H         1 UNK         0.0600 
    128 H128       -3.8129  -18.3647  -44.0869 H         1 UNK         0.0600 
    129 H129       -5.3068  -18.4081  -43.1427 H         1 UNK         0.0600 
    130 H130       -4.1469  -16.7996  -45.6438 H         1 UNK         0.3000 
    131 H131       -5.6337  -14.3812  -45.1801 H         1 UNK         0.0600 
    132 H132       -5.6312  -15.5119  -47.3895 H         1 UNK         0.0800 
    133 H133       -5.1668  -13.8446  -47.4870 H         1 UNK         0.0800 
    134 H134       -3.6208  -17.5539  -47.3708 H         1 UNK         0.0800 
    135 H135       -4.4721  -17.1865  -48.8570 H         1 UNK         0.0800 
    136 H136       -1.2402  -15.9593  -49.5384 H         1 UNK         0.1150 
    137 H137        0.2352  -19.5765  -51.2686 H         1 UNK         0.1150 
    138 H138       -3.3316  -19.6457  -48.9069 H         1 UNK         0.1150 
    139 H139       -2.4880  -21.6752  -49.7058 H         1 UNK         0.0800 
    140 H140       -2.0103  -21.4376  -51.3679 H         1 UNK         0.0800 
    141 H141       -0.2121  -20.7850  -48.0773 H         1 UNK         0.0800 
    142 H142        1.3079  -21.5823  -48.3268 H         1 UNK         0.0800 
    143 H143        0.3023  -23.7618  -47.5834 H         1 UNK         0.0600 
    144 H144        0.9816  -21.5655  -45.9568 H         1 UNK         0.3000 
    145 H145        0.8347  -23.2094  -42.7780 H         1 UNK         0.0600 
    146 H146        3.1669  -22.3893  -42.7779 H         1 UNK         0.0600 
    147 H147        3.1184  -22.1443  -44.5220 H         1 UNK         0.0600 
    148 H148        3.0221  -23.7703  -43.8549 H         1 UNK         0.0600 
    149 H149        1.5397  -20.5484  -43.4389 H         1 UNK         0.3000 
    150 H150       -1.7640  -19.1317  -43.1627 H         1 UNK         0.0600 
    151 H151       -0.7759  -19.2280  -40.9040 H         1 UNK         0.0600 
    152 H152       -0.4137  -17.6778  -41.6498 H         1 UNK         0.0600 
    153 H153        0.8291  -18.9240  -41.5504 H         1 UNK         0.0600 
    154 H154        0.6964  -17.9208  -43.9025 H         1 UNK         0.3000 
    155 H155        0.4391  -18.4555  -47.4286 H         1 UNK         0.0600 
    156 H156       -1.0087  -16.4601  -46.6942 H         1 UNK         0.0600 
    157 H157        0.4814  -16.0719  -47.5252 H         1 UNK         0.0600 
    158 H158        0.3696  -15.8910  -45.7687 H         1 UNK         0.0600 
    159 H159        2.3609  -17.1435  -45.7081 H         1 UNK         0.3000 
    160 H160        4.4641  -19.9712  -45.2011 H         1 UNK         0.0600 
    161 H161        4.8158  -17.4953  -46.9689 H         1 UNK         0.0600 
    162 H162        5.1517  -19.1580  -47.4194 H         1 UNK         0.0600 
    163 H163        6.1221  -18.3774  -46.1799 H         1 UNK         0.0600 
    164 H164        4.5664  -17.1805  -44.4512 H         1 UNK         0.3000 
    165 H165        2.8123  -17.5545  -41.3837 H         1 UNK         0.0600 
    166 H166        4.9456  -16.9498  -40.2828 H         1 UNK         0.0600 
    167 H167        4.9756  -18.6400  -40.7580 H         1 UNK         0.0600 
    168 H168        5.8582  -17.4501  -41.7076 H         1 UNK         0.0600 
    169 H169        4.4826  -15.4579  -42.2674 H         1 UNK         0.3000 
    170 H170        2.0144  -13.4255  -43.1137 H         1 UNK         0.0600 
    171 H171        5.0425  -13.7975  -43.4665 H         1 UNK         0.0600 
    172 H172        4.1959  -12.2639  -43.3233 H         1 UNK         0.0600 
    173 H173        4.2219  -13.3667  -41.9635 H         1 UNK         0.0600 
    174 H174        2.0539  -13.0751  -45.2941 H         1 UNK         0.3000 
    175 H175        3.7380  -13.1897  -47.6927 H         1 UNK         0.0600 
    176 H176        2.7963  -16.0722  -48.1713 H         1 UNK         0.0600 
    177 H177        3.1053  -14.8867  -49.4376 H         1 UNK         0.0600 
    178 H178        4.4206  -15.4447  -48.4211 H         1 UNK         0.0600 
    179 H179        1.0122  -14.2774  -47.1478 H         1 UNK         0.3000 
    180 H180       -0.4164  -11.1300  -47.5997 H         1 UNK         0.0600 
    181 H181       -2.1183  -12.3147  -48.9589 H         1 UNK         0.0600 
    182 H182       -0.9902  -13.6332  -49.2678 H         1 UNK         0.0600 
    183 H183       -0.6728  -12.0318  -49.9176 H         1 UNK         0.0600 
    184 H184       -1.5983  -13.5801  -46.8393 H         1 UNK         0.3000 
    185 H185       -0.5149  -14.3464  -44.0110 H         1 UNK         0.0600 
    186 H186       -1.9938  -13.4004  -42.2282 H         1 UNK         0.0600 
    187 H187       -0.5945  -12.3889  -42.5419 H         1 UNK         0.0600 
    188 H188       -2.1679  -11.9168  -43.1653 H         1 UNK         0.0600 
    189 H189       -2.3634  -15.2793  -44.7340 H         1 UNK         0.3000 
    190 H190       -1.8116  -21.3127  -46.0033 H         1 UNK         0.3000 
    191 H191       -4.2863  -22.3546  -46.9519 H         1 UNK         0.0600 
    192 H192       -3.6539  -20.7261  -44.4388 H         1 UNK         0.0600 
    193 H193       -5.2571  -20.9621  -45.1251 H         1 UNK         0.0600 
    194 H194       -4.0415  -20.0692  -46.0287 H         1 UNK         0.0600 
    195 H195       -2.4477  -22.9810  -43.9130 H         1 UNK         0.3000 
    196 H196       -4.2737  -24.7974  -42.7475 H         1 UNK         0.0600 
    197 H197       -2.4600  -23.6796  -41.4834 H         1 UNK         0.0600 
    198 H198       -1.2394  -24.5671  -42.3940 H         1 UNK         0.0600 
    199 H199       -2.3294  -25.4231  -41.3109 H         1 UNK         0.0600 
    200 H200       -1.6762  -25.3498  -45.1069 H         1 UNK         0.3000 
    201 H201       -1.8394  -28.2175  -45.1485 H         1 UNK         0.0600 
    202 H202        0.1651  -26.9579  -45.9020 H         1 UNK         0.0600 
    203 H203       -0.7577  -26.2287  -47.2148 H         1 UNK         0.0600 
    204 H204       -0.4516  -27.9603  -47.2045 H         1 UNK         0.0600 
    205 H205       -4.0762  -25.9154  -46.2292 H         1 UNK         0.3000 
    206 H206       -5.9243  -25.9094  -47.4107 H         1 UNK         0.0600 
    207 H207       -6.4606  -27.9591  -46.0883 H         1 UNK         0.0600 
    208 H208       -7.2255  -27.9806  -47.6689 H         1 UNK         0.0600 
    209 H209       -5.8033  -28.9701  -47.3747 H         1 UNK         0.0600 
    210 H210       -3.7469  -25.3129  -48.8592 H         1 UNK         0.3000 
    211 H211       -3.6314  -26.6000  -51.4300 H         1 UNK         0.0600 
    212 H212       -2.2891  -24.5621  -52.0102 H         1 UNK         0.0600 
    213 H213       -2.8095  -23.8015  -50.5128 H         1 UNK         0.0600 
    214 H214       -1.7746  -25.2240  -50.4659 H         1 UNK         0.0600 
    215 H215       -4.0469  -25.2886  -53.4550 H         1 UNK         0.3000 
    216 H216       -6.8551  -24.7749  -53.7332 H         1 UNK         0.0600 
    217 H217       -6.2279  -24.4866  -56.1330 H         1 UNK         0.0600 
    218 H218       -5.5460  -25.9557  -55.4556 H         1 UNK         0.0600 
    219 H219       -4.5221  -24.5414  -55.7037 H         1 UNK         0.0600 
    220 H220       -6.8255  -23.0161  -52.1013 H         1 UNK         0.3000 
    221 H221       -7.3078  -20.9443  -51.5059 H         1 UNK         0.0600 
    222 H222       -7.2857  -20.1230  -54.4624 H         1 UNK         0.0600 
    223 H223       -8.6581  -20.8543  -53.6380 H         1 UNK         0.0600 
    224 H224       -8.0819  -19.2799  -53.1348 H         1 UNK         0.0600 
    225 H225       -6.2444  -18.4859  -53.0347 H         1 UNK         0.3000 
    226 H226       -3.6987  -18.2732  -51.6177 H         1 UNK         0.0600 
    227 H227       -5.3171  -16.4068  -51.5701 H         1 UNK         0.0600 
    228 H228       -3.8339  -15.9057  -52.3596 H         1 UNK         0.0600 
    229 H229       -5.2560  -16.2712  -53.3282 H         1 UNK         0.0600 
    230 H230       -3.0263  -20.1990  -53.0575 H         1 UNK         0.3000 
    231 H231       -2.3292  -19.9686  -55.7555 H         1 UNK         0.0600 
    232 H232       -0.8285  -21.8982  -55.2794 H         1 UNK         0.0600 
    233 H233       -2.3754  -22.1047  -54.4698 H         1 UNK         0.0600 
    234 H234       -0.9559  -21.6015  -53.5509 H         1 UNK         0.0600 
    235 H235       -0.9039  -18.7432  -56.7879 H         1 UNK         0.3000 
    236 H236        0.7658  -17.4923  -57.4234 H         1 UNK         0.0600 
    237 H237        2.3705  -18.2907  -54.9425 H         1 UNK         0.0600 
    238 H238        2.3474  -19.1745  -56.4692 H         1 UNK         0.0600 
    239 H239        2.9906  -17.5410  -56.4021 H         1 UNK         0.0600 
    240 H240       -0.2648  -16.9604  -54.0856 H         1 UNK         0.3000 
    241 H241        0.4803  -14.1748  -53.9529 H         1 UNK         0.0600 
    242 H242       -3.2055  -14.2871  -55.7819 H         1 UNK         0.3800 
    243 H243       -2.5577  -15.7852  -55.1530 H         1 UNK         0.3800 
    244 H244       -1.3627  -14.1843  -52.0696 H         1 UNK         0.0800 
    245 H245       -1.4306  -15.9029  -52.3261 H         1 UNK         0.0800 
    246 H246        1.0793  -17.4108  -52.0450 H         1 UNK         0.0800 
    247 H247        1.6906  -17.1360  -50.4367 H         1 UNK         0.0800 
@<TRIPOS>BOND
     1    1    2 1    
     2    1  127 1    
     3    1  128 1    
     4    1  129 1    
     5    2    3 2    
     6    2    4 am   BACKBONE|DICT|INTERRES
     7    4    5 1    
     8    4  130 1    
     9    5    6 1    
    10    5   65 1    
    11    5  131 1    
    12    6    7 1    
    13    6  132 1    
    14    6  133 1    
    15    7    8 1    
    16    8    9 1    
    17    8  134 1    
    18    8  135 1    
    19    9   10 ar   
    20    9   14 ar   
    21   10   11 ar   
    22   10  136 1    
    23   11   12 ar   
    24   11  126 1    
    25   12   13 ar   
    26   12  137 1    
    27   13   14 ar   
    28   13   15 1    
    29   14  138 1    
    30   15   16 1    
    31   15  139 1    
    32   15  140 1    
    33   16   17 1    
    34   17   18 1    
    35   17  141 1    
    36   17  142 1    
    37   18   19 1    
    38   18   67 1    
    39   18  143 1    
    40   19   20 am   BACKBONE|DICT|INTERRES
    41   19  144 1    
    42   20   21 2    
    43   20   22 1    
    44   22   23 1    
    45   22   24 1    
    46   22  145 1    
    47   23  146 1    
    48   23  147 1    
    49   23  148 1    
    50   24   25 am   BACKBONE|DICT|INTERRES
    51   24  149 1    
    52   25   26 2    
    53   25   27 1    
    54   27   28 1    
    55   27   29 1    
    56   27  150 1    
    57   28  151 1    
    58   28  152 1    
    59   28  153 1    
    60   29   30 am   BACKBONE|DICT|INTERRES
    61   29  154 1    
    62   30   31 2    
    63   30   32 1    
    64   32   33 1    
    65   32   34 1    
    66   32  155 1    
    67   33  156 1    
    68   33  157 1    
    69   33  158 1    
    70   34   35 am   BACKBONE|DICT|INTERRES
    71   34  159 1    
    72   35   36 2    
    73   35   37 1    
    74   37   38 1    
    75   37   39 1    
    76   37  160 1    
    77   38  161 1    
    78   38  162 1    
    79   38  163 1    
    80   39   40 am   BACKBONE|DICT|INTERRES
    81   39  164 1    
    82   40   41 2    
    83   40   42 1    
    84   42   43 1    
    85   42   44 1    
    86   42  165 1    
    87   43  166 1    
    88   43  167 1    
    89   43  168 1    
    90   44   45 am   BACKBONE|DICT|INTERRES
    91   44  169 1    
    92   45   46 2    
    93   45   47 1    
    94   47   48 1    
    95   47   49 1    
    96   47  170 1    
    97   48  171 1    
    98   48  172 1    
    99   48  173 1    
   100   49   50 am   BACKBONE|DICT|INTERRES
   101   49  174 1    
   102   50   51 2    
   103   50   52 1    
   104   52   53 1    
   105   52   54 1    
   106   52  175 1    
   107   53  176 1    
   108   53  177 1    
   109   53  178 1    
   110   54   55 am   BACKBONE|DICT|INTERRES
   111   54  179 1    
   112   55   56 2    
   113   55   57 1    
   114   57   58 1    
   115   57   59 1    
   116   57  180 1    
   117   58  181 1    
   118   58  182 1    
   119   58  183 1    
   120   59   60 am   BACKBONE|DICT|INTERRES
   121   59  184 1    
   122   60   61 2    
   123   60   62 1    
   124   62   63 1    
   125   62   64 1    
   126   62  185 1    
   127   63  186 1    
   128   63  187 1    
   129   63  188 1    
   130   64   65 am   BACKBONE|DICT|INTERRES
   131   64  189 1    
   132   65   66 2    
   133   67   68 2    
   134   67   69 am   BACKBONE|DICT|INTERRES
   135   69   70 1    
   136   69  190 1    
   137   70   71 1    
   138   70   72 1    
   139   70  191 1    
   140   71  192 1    
   141   71  193 1    
   142   71  194 1    
   143   72   73 2    
   144   72   74 am   BACKBONE|DICT|INTERRES
   145   74   75 1    
   146   74  195 1    
   147   75   76 1    
   148   75   77 1    
   149   75  196 1    
   150   76  197 1    
   151   76  198 1    
   152   76  199 1    
   153   77   78 2    
   154   77   79 am   BACKBONE|DICT|INTERRES
   155   79   80 1    
   156   79  200 1    
   157   80   81 1    
   158   80   82 1    
   159   80  201 1    
   160   81  202 1    
   161   81  203 1    
   162   81  204 1    
   163   82   83 2    
   164   82   84 am   BACKBONE|DICT|INTERRES
   165   84   85 1    
   166   84  205 1    
   167   85   86 1    
   168   85   87 1    
   169   85  206 1    
   170   86  207 1    
   171   86  208 1    
   172   86  209 1    
   173   87   88 2    
   174   87   89 am   BACKBONE|DICT|INTERRES
   175   89   90 1    
   176   89  210 1    
   177   90   91 1    
   178   90   92 1    
   179   90  211 1    
   180   91  212 1    
   181   91  213 1    
   182   91  214 1    
   183   92   93 2    
   184   92   94 am   BACKBONE|DICT|INTERRES
   185   94   95 1    
   186   94  215 1    
   187   95   96 1    
   188   95   97 1    
   189   95  216 1    
   190   96  217 1    
   191   96  218 1    
   192   96  219 1    
   193   97   98 2    
   194   97   99 am   BACKBONE|DICT|INTERRES
   195   99  100 1    
   196   99  220 1    
   197  100  101 1    
   198  100  102 1    
   199  100  221 1    
   200  101  222 1    
   201  101  223 1    
   202  101  224 1    
   203  102  103 2    
   204  102  104 am   BACKBONE|DICT|INTERRES
   205  104  105 1    
   206  104  225 1    
   207  105  106 1    
   208  105  107 1    
   209  105  226 1    
   210  106  227 1    
   211  106  228 1    
   212  106  229 1    
   213  107  108 2    
   214  107  109 am   BACKBONE|DICT|INTERRES
   215  109  110 1    
   216  109  230 1    
   217  110  111 1    
   218  110  112 1    
   219  110  231 1    
   220  111  232 1    
   221  111  233 1    
   222  111  234 1    
   223  112  113 2    
   224  112  114 am   BACKBONE|DICT|INTERRES
   225  114  115 1    
   226  114  235 1    
   227  115  116 1    
   228  115  117 1    
   229  115  236 1    
   230  116  237 1    
   231  116  238 1    
   232  116  239 1    
   233  117  118 2    
   234  117  119 am   BACKBONE|DICT|INTERRES
   235  119  120 1    
   236  119  240 1    
   237  120  121 1    
   238  120  124 1    
   239  120  241 1    
   240  121  122 am   BACKBONE|DICT|INTERRES
   241  121  123 2    
   242  122  242 1    
   243  122  243 1    
   244  124  125 1    
   245  124  244 1    
   246  124  245 1    
   247  125  126 1    
   248  126  246 1    
   249  126  247 1    
@<TRIPOS>SUBSTRUCTURE
     1 UNK         1 GROUP             0       ****    0 ROOT    
