@<TRIPOS>MOLECULE
3R540
247   249    1
SMALL
USER_CHARGES


@<TRIPOS>ATOM
      1 CA         -2.3522   -9.1607  -47.5112 C.3       0 UNK        -0.1800 
      2 C          -1.7201  -10.3245  -46.7635 C.2       0 UNK         0.5000 
      3 O          -0.5176  -10.3051  -46.5043 O.2       0 UNK        -0.5000 
      4 N          -2.5253  -11.3289  -46.3943 N.am      1 UNK        -0.5000 
      5 CA         -2.1079  -12.5748  -45.7292 C.3       1 UNK         0.1400 
      6 C6         -3.2658  -13.5988  -45.6407 C.3       23 UNK        -0.0398 
      7 S7         -4.0604  -13.9309  -47.2515 S.3       23 UNK        -0.2404 
      8 C8         -3.1817  -15.4149  -47.8337 C.3       23 UNK        -0.0205 
      9 C9         -4.1617  -16.4039  -48.4430 C.ar      23 UNK        -0.0193 
     10 C10        -4.4980  -16.3296  -49.7990 C.ar      23 UNK        -0.1150 
     11 C11        -5.4236  -17.2217  -50.3502 C.ar      23 UNK        -0.0193 
     12 C12        -6.0155  -18.1890  -49.5326 C.ar      23 UNK        -0.1150 
     13 C13        -5.6879  -18.2711  -48.1763 C.ar      23 UNK        -0.0193 
     14 C14        -4.7554  -17.3803  -47.6387 C.ar      23 UNK        -0.1150 
     15 C15        -6.3632  -19.3042  -47.2875 C.3       23 UNK        -0.0205 
     16 S16        -5.6834  -20.9704  -47.5401 S.3       23 UNK        -0.2404 
     17 C17        -4.0009  -20.7735  -46.8652 C.3       23 UNK        -0.0398 
     18 CA         -3.2776  -22.1310  -46.7104 C.3       11 UNK         0.1400 
     19 N          -1.8246  -21.9797  -46.7342 N.am      11 UNK        -0.5000 
     20 C          -0.9663  -22.9725  -47.0054 C.2       10 UNK         0.5000 
     21 O          -1.3072  -24.1251  -47.2725 O.2       10 UNK        -0.5000 
     22 CA          0.5325  -22.6263  -46.9279 C.3       10 UNK         0.1400 
     23 CB          1.0244  -22.0353  -48.2585 C.3       10 UNK        -0.1800 
     24 N           0.8477  -21.7080  -45.8299 N.am      10 UNK        -0.5000 
     25 C           0.6620  -21.9926  -44.5322 C.2       9 UNK         0.5000 
     26 O           0.2532  -23.0788  -44.1249 O.2       9 UNK        -0.5000 
     27 CA          0.9266  -20.8654  -43.5191 C.3       9 UNK         0.1400 
     28 CB          2.4295  -20.7302  -43.2338 C.3       9 UNK        -0.1800 
     29 N           0.3841  -19.5756  -43.9463 N.am      9 UNK        -0.5000 
     30 C          -0.9163  -19.3191  -44.1512 C.2       8 UNK         0.5000 
     31 O          -1.8131  -20.1434  -43.9784 O.2       8 UNK        -0.5000 
     32 CA         -1.2690  -17.9235  -44.6981 C.3       8 UNK         0.1400 
     33 CB         -1.2246  -16.8671  -43.5849 C.3       8 UNK        -0.1800 
     34 N          -0.3891  -17.5263  -45.7973 N.am      8 UNK        -0.5000 
     35 C          -0.3116  -18.1760  -46.9679 C.2       7 UNK         0.5000 
     36 O          -1.0257  -19.1304  -47.2716 O.2       7 UNK        -0.5000 
     37 CA          0.7855  -17.7139  -47.9381 C.3       7 UNK         0.1400 
     38 CB          0.3163  -16.5028  -48.7571 C.3       7 UNK        -0.1800 
     39 N           2.0282  -17.3957  -47.2350 N.am      7 UNK        -0.5000 
     40 C           2.8316  -18.3162  -46.6810 C.2       6 UNK         0.5000 
     41 O           2.6248  -19.5274  -46.7469 O.2       6 UNK        -0.5000 
     42 CA          4.0471  -17.8001  -45.8870 C.3       6 UNK         0.1400 
     43 CB          5.2397  -17.5581  -46.8237 C.3       6 UNK        -0.1800 
     44 N           3.7613  -16.5739  -45.1416 N.am      6 UNK        -0.5000 
     45 C           2.8912  -16.4855  -44.1256 C.2       5 UNK         0.5000 
     46 O           2.2847  -17.4510  -43.6650 O.2       5 UNK        -0.5000 
     47 CA          2.6107  -15.0781  -43.5648 C.3       5 UNK         0.1400 
     48 CB          3.5202  -14.7811  -42.3643 C.3       5 UNK        -0.1800 
     49 N           2.7571  -14.0089  -44.5552 N.am      5 UNK        -0.5000 
     50 C           2.0480  -13.9013  -45.6858 C.2       4 UNK         0.5000 
     51 O           1.2089  -14.7315  -46.0397 O.2       4 UNK        -0.5000 
     52 CA          2.3380  -12.6608  -46.5526 C.3       4 UNK         0.1400 
     53 CB          1.5931  -12.6895  -47.8993 C.3       4 UNK        -0.1800 
     54 N           1.9889  -11.4333  -45.8409 N.am      4 UNK        -0.5000 
     55 C           2.7314  -10.8367  -44.8985 C.2       3 UNK         0.5000 
     56 O           3.8378  -11.2451  -44.5423 O.2       3 UNK        -0.5000 
     57 CA          2.1103   -9.6112  -44.2113 C.3       3 UNK         0.1400 
     58 CB          2.1411   -8.3849  -45.1374 C.3       3 UNK        -0.1800 
     59 N           0.7304   -9.8965  -43.8223 N.am      3 UNK        -0.5000 
     60 C           0.3639  -10.4019  -42.6360 C.2       2 UNK         0.5000 
     61 O           1.1440  -10.5941  -41.7027 O.2       2 UNK        -0.5000 
     62 CA         -1.1253  -10.7632  -42.4609 C.3       2 UNK         0.1400 
     63 CB         -1.9077   -9.5673  -41.8973 C.3       2 UNK        -0.1800 
     64 N          -1.7525  -11.2000  -43.7091 N.am      2 UNK        -0.5000 
     65 C          -1.4799  -12.3554  -44.3328 C.2       1 UNK         0.5000 
     66 O          -0.7524  -13.2236  -43.8535 O.2       1 UNK        -0.5000 
     67 C          -3.7596  -22.9205  -45.4752 C.2       11 UNK         0.5000 
     68 O          -4.6947  -23.7134  -45.5915 O.2       11 UNK        -0.5000 
     69 N          -3.1086  -22.7051  -44.3228 N.am      12 UNK        -0.5000 
     70 CA         -3.3549  -23.4356  -43.0786 C.3       12 UNK         0.1400 
     71 CB         -2.6610  -22.7083  -41.9169 C.3       12 UNK        -0.1800 
     72 C          -2.9016  -24.9068  -43.1495 C.2       12 UNK         0.5000 
     73 O          -3.5506  -25.7705  -42.5568 O.2       12 UNK        -0.5000 
     74 N          -1.8040  -25.1648  -43.8726 N.am      13 UNK        -0.5000 
     75 CA         -1.2875  -26.4975  -44.1772 C.3       13 UNK         0.1400 
     76 CB          0.1279  -26.3587  -44.7622 C.3       13 UNK        -0.1800 
     77 C          -2.1991  -27.2768  -45.1460 C.2       13 UNK         0.5000 
     78 O          -3.0328  -26.6898  -45.8393 O.2       13 UNK        -0.5000 
     79 N          -1.9877  -28.5984  -45.2059 N.am      14 UNK        -0.5000 
     80 CA         -2.7506  -29.5486  -46.0244 C.3       14 UNK         0.1400 
     81 CB         -2.3110  -30.9753  -45.6591 C.3       14 UNK        -0.1800 
     82 C          -2.6486  -29.3270  -47.5491 C.2       14 UNK         0.5000 
     83 O          -3.4832  -29.8516  -48.2877 O.2       14 UNK        -0.5000 
     84 N          -1.6414  -28.5620  -47.9944 N.am      15 UNK        -0.5000 
     85 CA         -1.4499  -28.1480  -49.3850 C.3       15 UNK         0.1400 
     86 CB         -0.0920  -27.4392  -49.5140 C.3       15 UNK        -0.1800 
     87 C          -2.5822  -27.2419  -49.9095 C.2       15 UNK         0.5000 
     88 O          -2.9798  -27.3939  -51.0656 O.2       15 UNK        -0.5000 
     89 N          -3.0792  -26.3490  -49.0381 N.am      16 UNK        -0.5000 
     90 CA         -4.1033  -25.3218  -49.2594 C.3       16 UNK         0.1400 
     91 CB         -5.4428  -25.9564  -49.6845 C.3       16 UNK        -0.1800 
     92 C          -3.6740  -24.2018  -50.2341 C.2       16 UNK         0.5000 
     93 O          -2.7484  -24.3734  -51.0319 O.2       16 UNK        -0.5000 
     94 N          -4.3794  -23.0616  -50.1432 N.am      17 UNK        -0.5000 
     95 CA         -4.1578  -21.8075  -50.8793 C.3       17 UNK         0.1400 
     96 CB         -4.3944  -22.0338  -52.3896 C.3       17 UNK        -0.1800 
     97 C          -2.7823  -21.1599  -50.5966 C.2       17 UNK         0.5000 
     98 O          -1.9646  -21.7060  -49.8566 O.2       17 UNK        -0.5000 
     99 N          -2.5170  -20.0053  -51.2177 N.am      18 UNK        -0.5000 
    100 CA        -1.2326  -19.2986  -51.1793 C.3       18 UNK         0.1400 
    101 CB        -1.4644  -17.8406  -51.6157 C.3       18 UNK        -0.1800 
    102 C         -0.1740  -19.9971  -52.0603 C.2       18 UNK         0.5000 
    103 O          0.3515  -19.3854  -52.9888 O.2       18 UNK        -0.5000 
    104 N          0.0584  -21.2947  -51.8164 N.am      19 UNK        -0.5000 
    105 CA         0.8512  -22.2157  -52.6421 C.3       19 UNK         0.1400 
    106 CB         2.3529  -21.8770  -52.5466 C.3       19 UNK        -0.1800 
    107 C          0.3309  -22.2847  -54.0981 C.2       19 UNK         0.5000 
    108 O          1.1188  -22.3105  -55.0445 O.2       19 UNK        -0.5000 
    109 N         -1.0050  -22.2725  -54.2292 N.am      20 UNK        -0.5000 
    110 CA        -1.8027  -22.2515  -55.4617 C.3       20 UNK         0.1400 
    111 CB        -1.5063  -23.4821  -56.3439 C.3       20 UNK        -0.1800 
    112 C         -1.7429  -20.9278  -56.2585 C.2       20 UNK         0.5000 
    113 O         -2.2743  -20.8778  -57.3691 O.2       20 UNK        -0.5000 
    114 N         -1.1576  -19.8613  -55.6898 N.am      21 UNK        -0.5000 
    115 CA        -1.0553  -18.5405  -56.3264 C.3       21 UNK         0.1400 
    116 CB         0.0559  -17.7268  -55.6452 C.3       21 UNK        -0.1800 
    117 C         -2.3759  -17.7397  -56.3417 C.2       21 UNK         0.5000 
    118 O         -2.4312  -16.6934  -56.9896 O.2       21 UNK        -0.5000 
    119 N         -3.4074  -18.2255  -55.6368 N.am      22 UNK        -0.5000 
    120 CA        -4.7483  -17.6156  -55.5578 C.3       22 UNK         0.1400 
    121 C         -5.5481  -17.6157  -56.8959 C.2       22 UNK         0.5000 
    122 N         -5.1808  -18.4131  -57.8925 N.am      22 UNK        -0.7600 
    123 O         -6.5205  -16.8779  -57.0298 O.2       22 UNK        -0.5000 
    124 C124       -5.6129  -18.2459  -54.4338 C.3       23 UNK        -0.0398 
    125 S125       -4.7882  -18.2838  -52.8075 S.3       23 UNK        -0.2404 
    126 C126       -5.7983  -17.1400  -51.8226 C.3       23 UNK        -0.0205 
    127 H127       -2.2069   -8.2349  -46.9546 H         1 UNK         0.0600 
    128 H128       -3.4226   -9.3066  -47.6584 H         1 UNK         0.0600 
    129 H129       -1.8856   -9.0484  -48.4897 H         1 UNK         0.0600 
    130 H130       -3.5037  -11.2875  -46.6436 H         1 UNK         0.3000 
    131 H131       -1.3264  -13.0196  -46.3476 H         1 UNK         0.0600 
    132 H132       -2.9225  -14.5389  -45.2086 H         1 UNK         0.0800 
    133 H133       -4.0408  -13.2298  -44.9665 H         1 UNK         0.0800 
    134 H134       -2.6349  -15.8923  -47.0198 H         1 UNK         0.0800 
    135 H135       -2.4350  -15.1178  -48.5711 H         1 UNK         0.0800 
    136 H136       -4.0442  -15.5729  -50.4234 H         1 UNK         0.1150 
    137 H137       -6.7350  -18.8786  -49.9516 H         1 UNK         0.1150 
    138 H138       -4.5036  -17.4340  -46.5889 H         1 UNK         0.1150 
    139 H139       -6.2752  -19.0300  -46.2351 H         1 UNK         0.0800 
    140 H140       -7.4316  -19.3237  -47.5073 H         1 UNK         0.0800 
    141 H141       -4.0295  -20.2264  -45.9211 H         1 UNK         0.0800 
    142 H142       -3.4553  -20.1414  -47.5673 H         1 UNK         0.0800 
    143 H143       -3.5261  -22.7333  -47.5828 H         1 UNK         0.0600 
    144 H144       -1.4598  -21.0437  -46.5963 H         1 UNK         0.3000 
    145 H145        1.0765  -23.5559  -46.7489 H         1 UNK         0.0600 
    146 H146        2.1011  -21.8669  -48.2437 H         1 UNK         0.0600 
    147 H147        0.8109  -22.7114  -49.0874 H         1 UNK         0.0600 
    148 H148        0.5384  -21.0847  -48.4797 H         1 UNK         0.0600 
    149 H149        1.2393  -20.8077  -46.0879 H         1 UNK         0.3000 
    150 H150        0.4296  -21.1372  -42.5858 H         1 UNK         0.0600 
    151 H151        2.8488  -21.6771  -42.8916 H         1 UNK         0.0600 
    152 H152        2.6177  -19.9909  -42.4550 H         1 UNK         0.0600 
    153 H153        2.9828  -20.4278  -44.1229 H         1 UNK         0.0600 
    154 H154        1.0547  -18.8192  -44.0577 H         1 UNK         0.3000 
    155 H155       -2.2884  -17.9639  -45.0879 H         1 UNK         0.0600 
    156 H156       -1.4616  -15.8764  -43.9688 H         1 UNK         0.0600 
    157 H157       -0.2440  -16.8123  -43.1134 H         1 UNK         0.0600 
    158 H158       -1.9496  -17.0968  -42.8033 H         1 UNK         0.0600 
    159 H159        0.2283  -16.7395  -45.6382 H         1 UNK         0.3000 
    160 H160        0.9832  -18.5339  -48.6316 H         1 UNK         0.0600 
    161 H161        0.1538  -15.6223  -48.1383 H         1 UNK         0.0600 
    162 H162       -0.6314  -16.7159  -49.2478 H         1 UNK         0.0600 
    163 H163        1.0386  -16.2429  -49.5308 H         1 UNK         0.0600 
    164 H164        2.2115  -16.4158  -47.0654 H         1 UNK         0.3000 
    165 H165        4.3283  -18.5734  -45.1691 H         1 UNK         0.0600 
    166 H166        6.1286  -17.2673  -46.2635 H         1 UNK         0.0600 
    167 H167        5.4888  -18.4633  -47.3792 H         1 UNK         0.0600 
    168 H168        5.0289  -16.7736  -47.5516 H         1 UNK         0.0600 
    169 H169        4.2195  -15.7305  -45.4534 H         1 UNK         0.3000 
    170 H170        1.5743  -15.0638  -43.2211 H         1 UNK         0.0600 
    171 H171        3.4146  -15.5474  -41.5950 H         1 UNK         0.0600 
    172 H172        4.5711  -14.7476  -42.6542 H         1 UNK         0.0600 
    173 H173        3.2670  -13.8246  -41.9061 H         1 UNK         0.0600 
    174 H174        3.3990  -13.2567  -44.3301 H         1 UNK         0.3000 
    175 H175        3.4084  -12.6549  -46.7680 H         1 UNK         0.0600 
    176 H176        0.5116  -12.6927  -47.7662 H         1 UNK         0.0600 
    177 H177        1.8495  -11.8226  -48.5083 H         1 UNK         0.0600 
    178 H178        1.8563  -13.5787  -48.4733 H         1 UNK         0.0600 
    179 H179        1.0809  -11.0325  -46.0675 H         1 UNK         0.3000 
    180 H180        2.7070   -9.3781  -43.3268 H         1 UNK         0.0600 
    181 H181        1.5608   -8.5447  -46.0468 H         1 UNK         0.0600 
    182 H182        3.1630   -8.1496  -45.4373 H         1 UNK         0.0600 
    183 H183        1.7388   -7.5048  -44.6357 H         1 UNK         0.0600 
    184 H184        0.0376   -9.8285  -44.5581 H         1 UNK         0.3000 
    185 H185       -1.1866  -11.5820  -41.7408 H         1 UNK         0.0600 
    186 H186       -1.4788   -9.2311  -40.9524 H         1 UNK         0.0600 
    187 H187       -1.8968   -8.7190  -42.5830 H         1 UNK         0.0600 
    188 H188       -2.9477   -9.8314  -41.7051 H         1 UNK         0.0600 
    189 H189       -2.3697  -10.5441  -44.1652 H         1 UNK         0.3000 
    190 H190       -2.3990  -21.9790  -44.2911 H         1 UNK         0.3000 
    191 H191       -4.4304  -23.4281  -42.8896 H         1 UNK         0.0600 
    192 H192       -1.5802  -22.6689  -42.0554 H         1 UNK         0.0600 
    193 H193       -2.8530  -23.2132  -40.9694 H         1 UNK         0.0600 
    194 H194       -3.0229  -21.6845  -41.8200 H         1 UNK         0.0600 
    195 H195       -1.3040  -24.3844  -44.2838 H         1 UNK         0.3000 
    196 H196       -1.2250  -27.0576  -43.2420 H         1 UNK         0.0600 
    197 H197        0.5756  -27.3338  -44.9569 H         1 UNK         0.0600 
    198 H198        0.7891  -25.8341  -44.0722 H         1 UNK         0.0600 
    199 H199        0.1223  -25.8068  -45.7023 H         1 UNK         0.0600 
    200 H200       -1.2705  -29.0004  -44.6193 H         1 UNK         0.3000 
    201 H201       -3.8037  -29.4382  -45.7580 H         1 UNK         0.0600 
    202 H202       -2.4704  -31.1796  -44.6002 H         1 UNK         0.0600 
    203 H203       -1.2552  -31.1387  -45.8791 H         1 UNK         0.0600 
    204 H204       -2.8813  -31.7174  -46.2195 H         1 UNK         0.0600 
    205 H205       -1.0028  -28.1790  -47.3142 H         1 UNK         0.3000 
    206 H206       -1.4274  -29.0478  -50.0035 H         1 UNK         0.0600 
    207 H207        0.7271  -28.0958  -49.2202 H         1 UNK         0.0600 
    208 H208        0.0907  -27.1326  -50.5448 H         1 UNK         0.0600 
    209 H209       -0.0455  -26.5429  -48.8932 H         1 UNK         0.0600 
    210 H210       -2.6668  -26.3254  -48.1129 H         1 UNK         0.3000 
    211 H211       -4.2520  -24.8605  -48.2824 H         1 UNK         0.0600 
    212 H212       -5.3946  -26.3765  -50.6893 H         1 UNK         0.0600 
    213 H213       -6.2445  -25.2172  -49.6820 H         1 UNK         0.0600 
    214 H214       -5.7358  -26.7530  -49.0005 H         1 UNK         0.0600 
    215 H215       -5.1119  -23.0142  -49.4492 H         1 UNK         0.3000 
    216 H216       -4.9091  -21.1014  -50.5228 H         1 UNK         0.0600 
    217 H217       -4.3216  -21.1097  -52.9596 H         1 UNK         0.0600 
    218 H218       -5.3902  -22.4389  -52.5698 H         1 UNK         0.0600 
    219 H219       -3.6741  -22.7300  -52.8171 H         1 UNK         0.0600 
    220 H220       -3.2366  -19.5781  -51.7870 H         1 UNK         0.3000 
    221 H221       -0.8614  -19.2942  -50.1529 H         1 UNK         0.0600 
    222 H222       -1.8387  -17.7794  -52.6380 H         1 UNK         0.0600 
    223 H223       -2.1850  -17.3457  -50.9671 H         1 UNK         0.0600 
    224 H224       -0.5389  -17.2652  -51.5770 H         1 UNK         0.0600 
    225 H225       -0.4599  -21.7118  -51.0463 H         1 UNK         0.3000 
    226 H226        0.7080  -23.2107  -52.2180 H         1 UNK         0.0600 
    227 H227        2.6832  -21.8448  -51.5082 H         1 UNK         0.0600 
    228 H228        2.9560  -22.6296  -53.0556 H         1 UNK         0.0600 
    229 H229        2.5817  -20.9128  -53.0013 H         1 UNK         0.0600 
    230 H230       -1.5402  -22.2537  -53.3734 H         1 UNK         0.3000 
    231 H231       -2.8397  -22.3400  -55.1358 H         1 UNK         0.0600 
    232 H232       -2.2265  -23.5621  -57.1589 H         1 UNK         0.0600 
    233 H233       -1.5688  -24.4054  -55.7679 H         1 UNK         0.0600 
    234 H234       -0.5145  -23.4319  -56.7937 H         1 UNK         0.0600 
    235 H235       -0.7141  -19.9564  -54.7837 H         1 UNK         0.3000 
    236 H236       -0.7611  -18.6912  -57.3672 H         1 UNK         0.0600 
    237 H237       -0.2225  -17.4360  -54.6321 H         1 UNK         0.0600 
    238 H238        0.9875  -18.2905  -55.5921 H         1 UNK         0.0600 
    239 H239        0.2625  -16.8102  -56.1988 H         1 UNK         0.0600 
    240 H240       -3.2742  -19.0808  -55.1212 H         1 UNK         0.3000 
    241 H241       -4.5976  -16.5658  -55.2994 H         1 UNK         0.0600 
    242 H242       -4.3834  -19.0233  -57.7962 H         1 UNK         0.3800 
    243 H243       -5.7031  -18.4035  -58.7546 H         1 UNK         0.3800 
    244 H244       -6.5602  -17.7119  -54.3403 H         1 UNK         0.0800 
    245 H245       -5.8734  -19.2738  -54.6924 H         1 UNK         0.0800 
    246 H246       -6.8549  -17.3831  -51.9446 H         1 UNK         0.0800 
    247 H247       -5.6661  -16.1235  -52.1963 H         1 UNK         0.0800 
@<TRIPOS>BOND
     1    1    2 1    
     2    1  127 1    
     3    1  128 1    
     4    1  129 1    
     5    2    3 2    
     6    2    4 am   BACKBONE|DICT|INTERRES
     7    4    5 1    
     8    4  130 1    
     9    5    6 1    
    10    5   65 1    
    11    5  131 1    
    12    6    7 1    
    13    6  132 1    
    14    6  133 1    
    15    7    8 1    
    16    8    9 1    
    17    8  134 1    
    18    8  135 1    
    19    9   10 ar   
    20    9   14 ar   
    21   10   11 ar   
    22   10  136 1    
    23   11   12 ar   
    24   11  126 1    
    25   12   13 ar   
    26   12  137 1    
    27   13   14 ar   
    28   13   15 1    
    29   14  138 1    
    30   15   16 1    
    31   15  139 1    
    32   15  140 1    
    33   16   17 1    
    34   17   18 1    
    35   17  141 1    
    36   17  142 1    
    37   18   19 1    
    38   18   67 1    
    39   18  143 1    
    40   19   20 am   BACKBONE|DICT|INTERRES
    41   19  144 1    
    42   20   21 2    
    43   20   22 1    
    44   22   23 1    
    45   22   24 1    
    46   22  145 1    
    47   23  146 1    
    48   23  147 1    
    49   23  148 1    
    50   24   25 am   BACKBONE|DICT|INTERRES
    51   24  149 1    
    52   25   26 2    
    53   25   27 1    
    54   27   28 1    
    55   27   29 1    
    56   27  150 1    
    57   28  151 1    
    58   28  152 1    
    59   28  153 1    
    60   29   30 am   BACKBONE|DICT|INTERRES
    61   29  154 1    
    62   30   31 2    
    63   30   32 1    
    64   32   33 1    
    65   32   34 1    
    66   32  155 1    
    67   33  156 1    
    68   33  157 1    
    69   33  158 1    
    70   34   35 am   BACKBONE|DICT|INTERRES
    71   34  159 1    
    72   35   36 2    
    73   35   37 1    
    74   37   38 1    
    75   37   39 1    
    76   37  160 1    
    77   38  161 1    
    78   38  162 1    
    79   38  163 1    
    80   39   40 am   BACKBONE|DICT|INTERRES
    81   39  164 1    
    82   40   41 2    
    83   40   42 1    
    84   42   43 1    
    85   42   44 1    
    86   42  165 1    
    87   43  166 1    
    88   43  167 1    
    89   43  168 1    
    90   44   45 am   BACKBONE|DICT|INTERRES
    91   44  169 1    
    92   45   46 2    
    93   45   47 1    
    94   47   48 1    
    95   47   49 1    
    96   47  170 1    
    97   48  171 1    
    98   48  172 1    
    99   48  173 1    
   100   49   50 am   BACKBONE|DICT|INTERRES
   101   49  174 1    
   102   50   51 2    
   103   50   52 1    
   104   52   53 1    
   105   52   54 1    
   106   52  175 1    
   107   53  176 1    
   108   53  177 1    
   109   53  178 1    
   110   54   55 am   BACKBONE|DICT|INTERRES
   111   54  179 1    
   112   55   56 2    
   113   55   57 1    
   114   57   58 1    
   115   57   59 1    
   116   57  180 1    
   117   58  181 1    
   118   58  182 1    
   119   58  183 1    
   120   59   60 am   BACKBONE|DICT|INTERRES
   121   59  184 1    
   122   60   61 2    
   123   60   62 1    
   124   62   63 1    
   125   62   64 1    
   126   62  185 1    
   127   63  186 1    
   128   63  187 1    
   129   63  188 1    
   130   64   65 am   BACKBONE|DICT|INTERRES
   131   64  189 1    
   132   65   66 2    
   133   67   68 2    
   134   67   69 am   BACKBONE|DICT|INTERRES
   135   69   70 1    
   136   69  190 1    
   137   70   71 1    
   138   70   72 1    
   139   70  191 1    
   140   71  192 1    
   141   71  193 1    
   142   71  194 1    
   143   72   73 2    
   144   72   74 am   BACKBONE|DICT|INTERRES
   145   74   75 1    
   146   74  195 1    
   147   75   76 1    
   148   75   77 1    
   149   75  196 1    
   150   76  197 1    
   151   76  198 1    
   152   76  199 1    
   153   77   78 2    
   154   77   79 am   BACKBONE|DICT|INTERRES
   155   79   80 1    
   156   79  200 1    
   157   80   81 1    
   158   80   82 1    
   159   80  201 1    
   160   81  202 1    
   161   81  203 1    
   162   81  204 1    
   163   82   83 2    
   164   82   84 am   BACKBONE|DICT|INTERRES
   165   84   85 1    
   166   84  205 1    
   167   85   86 1    
   168   85   87 1    
   169   85  206 1    
   170   86  207 1    
   171   86  208 1    
   172   86  209 1    
   173   87   88 2    
   174   87   89 am   BACKBONE|DICT|INTERRES
   175   89   90 1    
   176   89  210 1    
   177   90   91 1    
   178   90   92 1    
   179   90  211 1    
   180   91  212 1    
   181   91  213 1    
   182   91  214 1    
   183   92   93 2    
   184   92   94 am   BACKBONE|DICT|INTERRES
   185   94   95 1    
   186   94  215 1    
   187   95   96 1    
   188   95   97 1    
   189   95  216 1    
   190   96  217 1    
   191   96  218 1    
   192   96  219 1    
   193   97   98 2    
   194   97   99 am   BACKBONE|DICT|INTERRES
   195   99  100 1    
   196   99  220 1    
   197  100  101 1    
   198  100  102 1    
   199  100  221 1    
   200  101  222 1    
   201  101  223 1    
   202  101  224 1    
   203  102  103 2    
   204  102  104 am   BACKBONE|DICT|INTERRES
   205  104  105 1    
   206  104  225 1    
   207  105  106 1    
   208  105  107 1    
   209  105  226 1    
   210  106  227 1    
   211  106  228 1    
   212  106  229 1    
   213  107  108 2    
   214  107  109 am   BACKBONE|DICT|INTERRES
   215  109  110 1    
   216  109  230 1    
   217  110  111 1    
   218  110  112 1    
   219  110  231 1    
   220  111  232 1    
   221  111  233 1    
   222  111  234 1    
   223  112  113 2    
   224  112  114 am   BACKBONE|DICT|INTERRES
   225  114  115 1    
   226  114  235 1    
   227  115  116 1    
   228  115  117 1    
   229  115  236 1    
   230  116  237 1    
   231  116  238 1    
   232  116  239 1    
   233  117  118 2    
   234  117  119 am   BACKBONE|DICT|INTERRES
   235  119  120 1    
   236  119  240 1    
   237  120  121 1    
   238  120  124 1    
   239  120  241 1    
   240  121  122 am   BACKBONE|DICT|INTERRES
   241  121  123 2    
   242  122  242 1    
   243  122  243 1    
   244  124  125 1    
   245  124  244 1    
   246  124  245 1    
   247  125  126 1    
   248  126  246 1    
   249  126  247 1    
@<TRIPOS>SUBSTRUCTURE
     1 UNK         1 GROUP             0       ****    0 ROOT    
