@<TRIPOS>MOLECULE
3R540
247   249    1
SMALL
USER_CHARGES


@<TRIPOS>ATOM
      1 CA         -2.8210  -13.4766  -51.6301 C.3       0 UNK        -0.1800 
      2 C          -1.4446  -13.7458  -51.0430 C.2       0 UNK         0.5000 
      3 O          -0.7179  -12.7978  -50.7424 O.2       0 UNK        -0.5000 
      4 N          -1.0795  -15.0237  -50.8696 N.am      1 UNK        -0.5000 
      5 CA          0.1737  -15.4414  -50.2301 C.3       1 UNK         0.1400 
      6 C6          0.5873  -16.8910  -50.5929 C.3       23 UNK        -0.0398 
      7 S7          1.3588  -16.9279  -52.2434 S.3       23 UNK        -0.2404 
      8 C8          0.5649  -18.3673  -53.0236 C.3       23 UNK        -0.0205 
      9 C9          1.2197  -19.7233  -52.7547 C.ar      23 UNK        -0.0193 
     10 C10         0.4552  -20.8756  -52.9437 C.ar      23 UNK        -0.1150 
     11 C11         1.0128  -22.1494  -52.8160 C.ar      23 UNK        -0.0193 
     12 C12         2.3586  -22.2713  -52.4539 C.ar      23 UNK        -0.1150 
     13 C13         3.1399  -21.1297  -52.2399 C.ar      23 UNK        -0.0193 
     14 C14         2.5676  -19.8626  -52.4026 C.ar      23 UNK        -0.1150 
     15 C15         4.6169  -21.2512  -51.8778 C.3       23 UNK        -0.0205 
     16 S16         4.9163  -21.9113  -50.2017 S.3       23 UNK        -0.2404 
     17 C17         3.9148  -20.8153  -49.1393 C.3       23 UNK        -0.0398 
     18 CA          2.8588  -21.6387  -48.3568 C.3       11 UNK         0.1400 
     19 N           3.3373  -22.0491  -47.0298 N.am      11 UNK        -0.5000 
     20 C           2.7552  -23.0062  -46.2947 C.2       10 UNK         0.5000 
     21 O           1.7579  -23.6287  -46.6553 O.2       10 UNK        -0.5000 
     22 CA          3.3664  -23.3026  -44.9148 C.3       10 UNK         0.1400 
     23 CB          4.6477  -24.1384  -45.0577 C.3       10 UNK        -0.1800 
     24 N           3.6464  -22.1144  -44.1041 N.am      10 UNK        -0.5000 
     25 C           2.7346  -21.2162  -43.7080 C.2       9 UNK         0.5000 
     26 O           1.5722  -21.1884  -44.1132 O.2       9 UNK        -0.5000 
     27 CA          3.2011  -20.1685  -42.6843 C.3       9 UNK         0.1400 
     28 CB          3.2903  -18.7715  -43.3170 C.3       9 UNK        -0.1800 
     29 N           2.3026  -20.1288  -41.5286 N.am      9 UNK        -0.5000 
     30 C           2.2932  -21.0509  -40.5565 C.2       8 UNK         0.5000 
     31 O           3.0343  -22.0353  -40.5579 O.2       8 UNK        -0.5000 
     32 CA          1.3416  -20.8470  -39.3643 C.3       8 UNK         0.1400 
     33 CB          1.9909  -19.9400  -38.3047 C.3       8 UNK        -0.1800 
     34 N           0.0249  -20.3113  -39.7239 N.am      8 UNK        -0.5000 
     35 C          -1.1119  -20.6520  -39.0925 C.2       7 UNK         0.5000 
     36 O          -1.1606  -21.5018  -38.2015 O.2       7 UNK        -0.5000 
     37 CA         -2.4207  -19.9250  -39.4772 C.3       7 UNK         0.1400 
     38 CB         -2.7796  -18.8738  -38.4152 C.3       7 UNK        -0.1800 
     39 N          -2.3721  -19.2664  -40.7783 N.am      7 UNK        -0.5000 
     40 C          -2.3275  -19.8979  -41.9571 C.2       6 UNK         0.5000 
     41 O          -2.4804  -21.1127  -42.0799 O.2       6 UNK        -0.5000 
     42 CA         -2.0334  -19.0423  -43.2063 C.3       6 UNK         0.1400 
     43 CB         -3.2820  -18.9343  -44.0951 C.3       6 UNK        -0.1800 
     44 N          -1.5232  -17.6896  -42.9444 N.am      6 UNK        -0.5000 
     45 C          -0.4299  -17.3695  -42.2322 C.2       5 UNK         0.5000 
     46 O           0.3089  -18.2068  -41.7158 O.2       5 UNK        -0.5000 
     47 CA         -0.1194  -15.8751  -42.0118 C.3       5 UNK         0.1400 
     48 CB          1.0783  -15.4608  -42.8726 C.3       5 UNK        -0.1800 
     49 N          -1.2477  -14.9850  -42.2936 N.am      5 UNK        -0.5000 
     50 C          -2.4109  -14.9855  -41.6251 C.2       4 UNK         0.5000 
     51 O          -2.6178  -15.6845  -40.6318 O.2       4 UNK        -0.5000 
     52 CA         -3.5507  -14.0999  -42.1695 C.3       4 UNK         0.1400 
     53 CB         -3.7566  -12.8755  -41.2647 C.3       4 UNK        -0.1800 
     54 N          -3.3776  -13.6382  -43.5505 N.am      4 UNK        -0.5000 
     55 C          -3.2505  -14.4049  -44.6434 C.2       3 UNK         0.5000 
     56 O          -3.2192  -15.6356  -44.6128 O.2       3 UNK        -0.5000 
     57 CA         -3.1046  -13.6731  -45.9964 C.3       3 UNK         0.1400 
     58 CB         -3.5135  -12.1846  -45.9494 C.3       3 UNK        -0.1800 
     59 N          -1.7639  -13.7948  -46.5721 N.am      3 UNK        -0.5000 
     60 C          -0.5867  -13.5307  -45.9883 C.2       2 UNK         0.5000 
     61 O          -0.4703  -13.2039  -44.8058 O.2       2 UNK        -0.5000 
     62 CA          0.6742  -13.5771  -46.8811 C.3       2 UNK         0.1400 
     63 CB          1.8337  -14.3556  -46.2324 C.3       2 UNK        -0.1800 
     64 N           0.4739  -14.0270  -48.2649 N.am      2 UNK        -0.5000 
     65 C           0.0840  -15.2305  -48.7079 C.2       1 UNK         0.5000 
     66 O          -0.3457  -16.1294  -47.9883 O.2       1 UNK        -0.5000 
     67 C           1.5047  -20.9104  -48.2785 C.2       11 UNK         0.5000 
     68 O           0.6494  -21.1412  -49.1300 O.2       11 UNK        -0.5000 
     69 N           1.3071  -20.0912  -47.2375 N.am      12 UNK        -0.5000 
     70 CA          0.0413  -19.4085  -46.9713 C.3       12 UNK         0.1400 
     71 CB          0.2573  -18.3596  -45.8744 C.3       12 UNK        -0.1800 
     72 C          -1.0754  -20.3962  -46.5871 C.2       12 UNK         0.5000 
     73 O          -2.2046  -20.2531  -47.0573 O.2       12 UNK        -0.5000 
     74 N          -0.7291  -21.3993  -45.7677 N.am      13 UNK        -0.5000 
     75 CA         -1.6033  -22.5013  -45.3716 C.3       13 UNK         0.1400 
     76 CB         -0.9318  -23.3225  -44.2605 C.3       13 UNK        -0.1800 
     77 C          -1.9830  -23.3967  -46.5630 C.2       13 UNK         0.5000 
     78 O          -3.1568  -23.7371  -46.7074 O.2       13 UNK        -0.5000 
     79 N          -0.9997  -23.7209  -47.4171 N.am      14 UNK        -0.5000 
     80 CA         -1.1853  -24.4649  -48.6651 C.3       14 UNK         0.1400 
     81 CB          0.1789  -24.7905  -49.2928 C.3       14 UNK        -0.1800 
     82 C          -2.0728  -23.7135  -49.6706 C.2       14 UNK         0.5000 
     83 O          -2.9349  -24.3311  -50.2938 O.2       14 UNK        -0.5000 
     84 N          -1.8709  -22.3923  -49.7821 N.am      15 UNK        -0.5000 
     85 CA         -2.6932  -21.4838  -50.5810 C.3       15 UNK         0.1400 
     86 CB         -2.0436  -20.0917  -50.6050 C.3       15 UNK        -0.1800 
     87 C          -4.1323  -21.3390  -50.0604 C.2       15 UNK         0.5000 
     88 O          -5.0025  -20.9356  -50.8286 O.2       15 UNK        -0.5000 
     89 N          -4.3336  -21.5967  -48.7598 N.am      16 UNK        -0.5000 
     90 CA         -5.5210  -21.2706  -47.9668 C.3       16 UNK         0.1400 
     91 CB         -6.7406  -22.0986  -48.4217 C.3       16 UNK        -0.1800 
     92 C          -5.7754  -19.7483  -47.9566 C.2       16 UNK         0.5000 
     93 O          -6.9105  -19.3061  -48.1368 O.2       16 UNK        -0.5000 
     94 N          -4.6819  -18.9844  -47.7944 N.am      17 UNK        -0.5000 
     95 CA         -4.5757  -17.5197  -47.8218 C.3       17 UNK         0.1400 
     96 CB         -5.4750  -16.8908  -46.7356 C.3       17 UNK        -0.1800 
     97 C          -4.8173  -16.8701  -49.2055 C.2       17 UNK         0.5000 
     98 O          -4.7806  -15.6420  -49.2979 O.2       17 UNK        -0.5000 
     99 N          -5.0662  -17.6724  -50.2502 N.am      18 UNK        -0.5000 
    100 CA        -5.4205  -17.2102  -51.5922 C.3       18 UNK         0.1400 
    101 CB        -6.2042  -18.3229  -52.3062 C.3       18 UNK        -0.1800 
    102 C         -4.1998  -16.7944  -52.4336 C.2       18 UNK         0.5000 
    103 O         -3.0478  -17.0269  -52.0540 O.2       18 UNK        -0.5000 
    104 N         -4.4883  -16.1955  -53.5940 N.am      19 UNK        -0.5000 
    105 CA        -3.5169  -15.7798  -54.6013 C.3       19 UNK         0.1400 
    106 CB        -4.0846  -14.5670  -55.3608 C.3       19 UNK        -0.1800 
    107 C         -3.1691  -16.9539  -55.5369 C.2       19 UNK         0.5000 
    108 O         -3.6096  -16.9824  -56.6870 O.2       19 UNK        -0.5000 
    109 N         -2.3887  -17.9060  -55.0084 N.am      20 UNK        -0.5000 
    110 CA        -1.7973  -19.0529  -55.7128 C.3       20 UNK         0.1400 
    111 CB        -0.8130  -18.5801  -56.8045 C.3       20 UNK        -0.1800 
    112 C         -2.8191  -20.0860  -56.2319 C.2       20 UNK         0.5000 
    113 O         -2.5831  -20.7169  -57.2639 O.2       20 UNK        -0.5000 
    114 N         -3.9296  -20.2599  -55.5009 N.am      21 UNK        -0.5000 
    115 CA        -4.9463  -21.2737  -55.7951 C.3       21 UNK         0.1400 
    116 CB        -6.2303  -20.9567  -55.0122 C.3       21 UNK        -0.1800 
    117 C         -4.4526  -22.6992  -55.4785 C.2       21 UNK         0.5000 
    118 O         -4.6499  -23.6080  -56.2853 O.2       21 UNK        -0.5000 
    119 N         -3.8143  -22.8500  -54.3093 N.am      22 UNK        -0.5000 
    120 CA        -3.2330  -24.0979  -53.7753 C.3       22 UNK         0.1400 
    121 C         -4.2573  -25.2468  -53.5151 C.2       22 UNK         0.5000 
    122 N         -5.5390  -24.9541  -53.3302 N.am      22 UNK        -0.7600 
    123 O         -3.8921  -26.4180  -53.4604 O.2       22 UNK        -0.5000 
    124 C124       -1.9668  -24.5769  -54.5430 C.3       23 UNK        -0.0398 
    125 S125       -0.6840  -23.2876  -54.6992 S.3       23 UNK        -0.2404 
    126 C126        0.1480  -23.3778  -53.0743 C.3       23 UNK        -0.0205 
    127 H127       -3.2125  -12.5292  -51.2599 H         1 UNK         0.0600 
    128 H128       -3.5285  -14.2555  -51.3524 H         1 UNK         0.0600 
    129 H129       -2.7635  -13.4201  -52.7160 H         1 UNK         0.0600 
    130 H130       -1.7145  -15.7679  -51.1420 H         1 UNK         0.3000 
    131 H131        0.9712  -14.7833  -50.5841 H         1 UNK         0.0600 
    132 H132        1.3263  -17.2827  -49.8910 H         1 UNK         0.0800 
    133 H133       -0.2683  -17.5662  -50.5410 H         1 UNK         0.0800 
    134 H134        0.5921  -18.2017  -54.0999 H         1 UNK         0.0800 
    135 H135       -0.4874  -18.3898  -52.7386 H         1 UNK         0.0800 
    136 H136       -0.5867  -20.7884  -53.2115 H         1 UNK         0.1150 
    137 H137        2.8028  -23.2505  -52.3443 H         1 UNK         0.1150 
    138 H138        3.1847  -18.9862  -52.2700 H         1 UNK         0.1150 
    139 H139        5.1058  -21.9039  -52.6022 H         1 UNK         0.0800 
    140 H140        5.1135  -20.2835  -51.9632 H         1 UNK         0.0800 
    141 H141        3.4558  -20.0438  -49.7585 H         1 UNK         0.0800 
    142 H142        4.5779  -20.2767  -48.4611 H         1 UNK         0.0800 
    143 H143        2.6510  -22.5525  -48.9184 H         1 UNK         0.0600 
    144 H144        4.1565  -21.5843  -46.6671 H         1 UNK         0.3000 
    145 H145        2.6379  -23.9011  -44.3637 H         1 UNK         0.0600 
    146 H146        5.0182  -24.4615  -44.0847 H         1 UNK         0.0600 
    147 H147        4.4643  -25.0374  -45.6479 H         1 UNK         0.0600 
    148 H148        5.4431  -23.5786  -45.5511 H         1 UNK         0.0600 
    149 H149        4.5802  -22.0501  -43.7255 H         1 UNK         0.3000 
    150 H150        4.2007  -20.4368  -42.3355 H         1 UNK         0.0600 
    151 H151        3.9302  -18.7791  -44.2000 H         1 UNK         0.0600 
    152 H152        3.7122  -18.0517  -42.6156 H         1 UNK         0.0600 
    153 H153        2.3134  -18.4003  -43.6210 H         1 UNK         0.0600 
    154 H154        1.6280  -19.3671  -41.5147 H         1 UNK         0.3000 
    155 H155        1.2154  -21.8375  -38.9219 H         1 UNK         0.0600 
    156 H156        2.1089  -18.9195  -38.6710 H         1 UNK         0.0600 
    157 H157        2.9794  -20.3068  -38.0251 H         1 UNK         0.0600 
    158 H158        1.3907  -19.9022  -37.3955 H         1 UNK         0.0600 
    159 H159       -0.0024  -19.6093  -40.4575 H         1 UNK         0.3000 
    160 H160       -3.2162  -20.6726  -39.5018 H         1 UNK         0.0600 
    161 H161       -2.0247  -18.0883  -38.3574 H         1 UNK         0.0600 
    162 H162       -2.8604  -19.3262  -37.4260 H         1 UNK         0.0600 
    163 H163       -3.7375  -18.4017  -38.6348 H         1 UNK         0.0600 
    164 H164       -2.2570  -18.2623  -40.7718 H         1 UNK         0.3000 
    165 H165       -1.2618  -19.5808  -43.7530 H         1 UNK         0.0600 
    166 H166       -3.0550  -18.4277  -45.0331 H         1 UNK         0.0600 
    167 H167       -3.6753  -19.9191  -44.3496 H         1 UNK         0.0600 
    168 H168       -4.0784  -18.3775  -43.6001 H         1 UNK         0.0600 
    169 H169       -2.0640  -16.9326  -43.3487 H         1 UNK         0.3000 
    170 H170        0.1512  -15.7476  -40.9619 H         1 UNK         0.0600 
    171 H171        1.9718  -16.0228  -42.5989 H         1 UNK         0.0600 
    172 H172        0.8794  -15.6523  -43.9258 H         1 UNK         0.0600 
    173 H173        1.3095  -14.4020  -42.7552 H         1 UNK         0.0600 
    174 H174       -1.1547  -14.3788  -43.1013 H         1 UNK         0.3000 
    175 H175       -4.4602  -14.7031  -42.1412 H         1 UNK         0.0600 
    176 H176       -2.8875  -12.2165  -41.2783 H         1 UNK         0.0600 
    177 H177       -4.6248  -12.2947  -41.5765 H         1 UNK         0.0600 
    178 H178       -3.9249  -13.1759  -40.2296 H         1 UNK         0.0600 
    179 H179       -3.3473  -12.6373  -43.6782 H         1 UNK         0.3000 
    180 H180       -3.7773  -14.1723  -46.6925 H         1 UNK         0.0600 
    181 H181       -2.8404  -11.5902  -45.3307 H         1 UNK         0.0600 
    182 H182       -4.5250  -12.0641  -45.5594 H         1 UNK         0.0600 
    183 H183       -3.5052  -11.7504  -46.9493 H         1 UNK         0.0600 
    184 H184       -1.7287  -14.1213  -47.5267 H         1 UNK         0.3000 
    185 H185        0.9965  -12.5382  -46.9618 H         1 UNK         0.0600 
    186 H186        1.5961  -15.4117  -46.1190 H         1 UNK         0.0600 
    187 H187        2.7396  -14.2826  -46.8339 H         1 UNK         0.0600 
    188 H188        2.0739  -13.9584  -45.2459 H         1 UNK         0.0600 
    189 H189        0.6838  -13.3310  -48.9702 H         1 UNK         0.3000 
    190 H190        2.0334  -19.9952  -46.5441 H         1 UNK         0.3000 
    191 H191       -0.2664  -18.8920  -47.8830 H         1 UNK         0.0600 
    192 H192       -0.6455  -17.7680  -45.7175 H         1 UNK         0.0600 
    193 H193        1.0544  -17.6692  -46.1454 H         1 UNK         0.0600 
    194 H194        0.5255  -18.8194  -44.9259 H         1 UNK         0.0600 
    195 H195        0.2069  -21.4048  -45.3691 H         1 UNK         0.3000 
    196 H196       -2.5215  -22.0706  -44.9674 H         1 UNK         0.0600 
    197 H197       -1.5901  -24.1195  -43.9132 H         1 UNK         0.0600 
    198 H198       -0.6934  -22.6994  -43.3985 H         1 UNK         0.0600 
    199 H199       -0.0053  -23.7848  -44.6005 H         1 UNK         0.0600 
    200 H200       -0.0452  -23.4549  -47.1879 H         1 UNK         0.3000 
    201 H201       -1.6810  -25.4062  -48.4195 H         1 UNK         0.0600 
    202 H202        0.7987  -25.3732  -48.6113 H         1 UNK         0.0600 
    203 H203        0.7278  -23.8865  -49.5564 H         1 UNK         0.0600 
    204 H204        0.0587  -25.3767  -50.2047 H         1 UNK         0.0600 
    205 H205       -1.0816  -21.9731  -49.2970 H         1 UNK         0.3000 
    206 H206       -2.7298  -21.8643  -51.6013 H         1 UNK         0.0600 
    207 H207       -0.9876  -20.1390  -50.8537 H         1 UNK         0.0600 
    208 H208       -2.5254  -19.4591  -51.3490 H         1 UNK         0.0600 
    209 H209       -2.1247  -19.5845  -49.6437 H         1 UNK         0.0600 
    210 H210       -3.5344  -21.9098  -48.2240 H         1 UNK         0.3000 
    211 H211       -5.2910  -21.5536  -46.9385 H         1 UNK         0.0600 
    212 H212       -7.0709  -21.8235  -49.4237 H         1 UNK         0.0600 
    213 H213       -7.5847  -21.9487  -47.7479 H         1 UNK         0.0600 
    214 H214       -6.5120  -23.1643  -48.4247 H         1 UNK         0.0600 
    215 H215       -3.7993  -19.4687  -47.6378 H         1 UNK         0.3000 
    216 H216       -3.5401  -17.2928  -47.5625 H         1 UNK         0.0600 
    217 H217       -5.3205  -15.8160  -46.6655 H         1 UNK         0.0600 
    218 H218       -5.2611  -17.3110  -45.7533 H         1 UNK         0.0600 
    219 H219       -6.5344  -17.0408  -46.9417 H         1 UNK         0.0600 
    220 H220       -5.0606  -18.6731  -50.1095 H         1 UNK         0.3000 
    221 H221       -6.0749  -16.3414  -51.4938 H         1 UNK         0.0600 
    222 H222       -5.5524  -19.1496  -52.5850 H         1 UNK         0.0600 
    223 H223       -7.0001  -18.7201  -51.6756 H         1 UNK         0.0600 
    224 H224       -6.6712  -17.9562  -53.2208 H         1 UNK         0.0600 
    225 H225       -5.4580  -16.0660  -53.8443 H         1 UNK         0.3000 
    226 H226       -2.5936  -15.4618  -54.1121 H         1 UNK         0.0600 
    227 H227       -5.0204  -14.8069  -55.8672 H         1 UNK         0.0600 
    228 H228       -4.2765  -13.7330  -54.6858 H         1 UNK         0.0600 
    229 H229       -3.3814  -14.2166  -56.1173 H         1 UNK         0.0600 
    230 H230       -2.1466  -17.8072  -54.0307 H         1 UNK         0.3000 
    231 H231       -1.2102  -19.5904  -54.9724 H         1 UNK         0.0600 
    232 H232       -0.2350  -19.4170  -57.1982 H         1 UNK         0.0600 
    233 H233       -0.1014  -17.8539  -56.4126 H         1 UNK         0.0600 
    234 H234       -1.3320  -18.1188  -57.6451 H         1 UNK         0.0600 
    235 H235       -4.0701  -19.6828  -54.6861 H         1 UNK         0.3000 
    236 H236       -5.1817  -21.2264  -56.8606 H         1 UNK         0.0600 
    237 H237       -6.5940  -19.9540  -55.2375 H         1 UNK         0.0600 
    238 H238       -7.0254  -21.6560  -55.2739 H         1 UNK         0.0600 
    239 H239       -6.0782  -21.0262  -53.9348 H         1 UNK         0.0600 
    240 H240       -3.7150  -22.0364  -53.7231 H         1 UNK         0.3000 
    241 H241       -2.8941  -23.8350  -52.7777 H         1 UNK         0.0600 
    242 H242       -5.8581  -23.9996  -53.3574 H         1 UNK         0.3800 
    243 H243       -6.1957  -25.6984  -53.1562 H         1 UNK         0.3800 
    244 H244       -1.5181  -25.4413  -54.0507 H         1 UNK         0.0800 
    245 H245       -2.2407  -24.9076  -55.5458 H         1 UNK         0.0800 
    246 H246       -0.5953  -23.4458  -52.2810 H         1 UNK         0.0800 
    247 H247        0.7430  -24.2910  -53.0276 H         1 UNK         0.0800 
@<TRIPOS>BOND
     1    1    2 1    
     2    1  127 1    
     3    1  128 1    
     4    1  129 1    
     5    2    3 2    
     6    2    4 am   BACKBONE|DICT|INTERRES
     7    4    5 1    
     8    4  130 1    
     9    5    6 1    
    10    5   65 1    
    11    5  131 1    
    12    6    7 1    
    13    6  132 1    
    14    6  133 1    
    15    7    8 1    
    16    8    9 1    
    17    8  134 1    
    18    8  135 1    
    19    9   10 ar   
    20    9   14 ar   
    21   10   11 ar   
    22   10  136 1    
    23   11   12 ar   
    24   11  126 1    
    25   12   13 ar   
    26   12  137 1    
    27   13   14 ar   
    28   13   15 1    
    29   14  138 1    
    30   15   16 1    
    31   15  139 1    
    32   15  140 1    
    33   16   17 1    
    34   17   18 1    
    35   17  141 1    
    36   17  142 1    
    37   18   19 1    
    38   18   67 1    
    39   18  143 1    
    40   19   20 am   BACKBONE|DICT|INTERRES
    41   19  144 1    
    42   20   21 2    
    43   20   22 1    
    44   22   23 1    
    45   22   24 1    
    46   22  145 1    
    47   23  146 1    
    48   23  147 1    
    49   23  148 1    
    50   24   25 am   BACKBONE|DICT|INTERRES
    51   24  149 1    
    52   25   26 2    
    53   25   27 1    
    54   27   28 1    
    55   27   29 1    
    56   27  150 1    
    57   28  151 1    
    58   28  152 1    
    59   28  153 1    
    60   29   30 am   BACKBONE|DICT|INTERRES
    61   29  154 1    
    62   30   31 2    
    63   30   32 1    
    64   32   33 1    
    65   32   34 1    
    66   32  155 1    
    67   33  156 1    
    68   33  157 1    
    69   33  158 1    
    70   34   35 am   BACKBONE|DICT|INTERRES
    71   34  159 1    
    72   35   36 2    
    73   35   37 1    
    74   37   38 1    
    75   37   39 1    
    76   37  160 1    
    77   38  161 1    
    78   38  162 1    
    79   38  163 1    
    80   39   40 am   BACKBONE|DICT|INTERRES
    81   39  164 1    
    82   40   41 2    
    83   40   42 1    
    84   42   43 1    
    85   42   44 1    
    86   42  165 1    
    87   43  166 1    
    88   43  167 1    
    89   43  168 1    
    90   44   45 am   BACKBONE|DICT|INTERRES
    91   44  169 1    
    92   45   46 2    
    93   45   47 1    
    94   47   48 1    
    95   47   49 1    
    96   47  170 1    
    97   48  171 1    
    98   48  172 1    
    99   48  173 1    
   100   49   50 am   BACKBONE|DICT|INTERRES
   101   49  174 1    
   102   50   51 2    
   103   50   52 1    
   104   52   53 1    
   105   52   54 1    
   106   52  175 1    
   107   53  176 1    
   108   53  177 1    
   109   53  178 1    
   110   54   55 am   BACKBONE|DICT|INTERRES
   111   54  179 1    
   112   55   56 2    
   113   55   57 1    
   114   57   58 1    
   115   57   59 1    
   116   57  180 1    
   117   58  181 1    
   118   58  182 1    
   119   58  183 1    
   120   59   60 am   BACKBONE|DICT|INTERRES
   121   59  184 1    
   122   60   61 2    
   123   60   62 1    
   124   62   63 1    
   125   62   64 1    
   126   62  185 1    
   127   63  186 1    
   128   63  187 1    
   129   63  188 1    
   130   64   65 am   BACKBONE|DICT|INTERRES
   131   64  189 1    
   132   65   66 2    
   133   67   68 2    
   134   67   69 am   BACKBONE|DICT|INTERRES
   135   69   70 1    
   136   69  190 1    
   137   70   71 1    
   138   70   72 1    
   139   70  191 1    
   140   71  192 1    
   141   71  193 1    
   142   71  194 1    
   143   72   73 2    
   144   72   74 am   BACKBONE|DICT|INTERRES
   145   74   75 1    
   146   74  195 1    
   147   75   76 1    
   148   75   77 1    
   149   75  196 1    
   150   76  197 1    
   151   76  198 1    
   152   76  199 1    
   153   77   78 2    
   154   77   79 am   BACKBONE|DICT|INTERRES
   155   79   80 1    
   156   79  200 1    
   157   80   81 1    
   158   80   82 1    
   159   80  201 1    
   160   81  202 1    
   161   81  203 1    
   162   81  204 1    
   163   82   83 2    
   164   82   84 am   BACKBONE|DICT|INTERRES
   165   84   85 1    
   166   84  205 1    
   167   85   86 1    
   168   85   87 1    
   169   85  206 1    
   170   86  207 1    
   171   86  208 1    
   172   86  209 1    
   173   87   88 2    
   174   87   89 am   BACKBONE|DICT|INTERRES
   175   89   90 1    
   176   89  210 1    
   177   90   91 1    
   178   90   92 1    
   179   90  211 1    
   180   91  212 1    
   181   91  213 1    
   182   91  214 1    
   183   92   93 2    
   184   92   94 am   BACKBONE|DICT|INTERRES
   185   94   95 1    
   186   94  215 1    
   187   95   96 1    
   188   95   97 1    
   189   95  216 1    
   190   96  217 1    
   191   96  218 1    
   192   96  219 1    
   193   97   98 2    
   194   97   99 am   BACKBONE|DICT|INTERRES
   195   99  100 1    
   196   99  220 1    
   197  100  101 1    
   198  100  102 1    
   199  100  221 1    
   200  101  222 1    
   201  101  223 1    
   202  101  224 1    
   203  102  103 2    
   204  102  104 am   BACKBONE|DICT|INTERRES
   205  104  105 1    
   206  104  225 1    
   207  105  106 1    
   208  105  107 1    
   209  105  226 1    
   210  106  227 1    
   211  106  228 1    
   212  106  229 1    
   213  107  108 2    
   214  107  109 am   BACKBONE|DICT|INTERRES
   215  109  110 1    
   216  109  230 1    
   217  110  111 1    
   218  110  112 1    
   219  110  231 1    
   220  111  232 1    
   221  111  233 1    
   222  111  234 1    
   223  112  113 2    
   224  112  114 am   BACKBONE|DICT|INTERRES
   225  114  115 1    
   226  114  235 1    
   227  115  116 1    
   228  115  117 1    
   229  115  236 1    
   230  116  237 1    
   231  116  238 1    
   232  116  239 1    
   233  117  118 2    
   234  117  119 am   BACKBONE|DICT|INTERRES
   235  119  120 1    
   236  119  240 1    
   237  120  121 1    
   238  120  124 1    
   239  120  241 1    
   240  121  122 am   BACKBONE|DICT|INTERRES
   241  121  123 2    
   242  122  242 1    
   243  122  243 1    
   244  124  125 1    
   245  124  244 1    
   246  124  245 1    
   247  125  126 1    
   248  126  246 1    
   249  126  247 1    
@<TRIPOS>SUBSTRUCTURE
     1 UNK         1 GROUP             0       ****    0 ROOT    
