@<TRIPOS>MOLECULE
3R540
247   249    1
SMALL
USER_CHARGES


@<TRIPOS>ATOM
      1 CA         -2.6896  -13.2268  -45.2352 C.3       0 UNK        -0.1800 
      2 C          -2.3655  -12.8613  -46.6771 C.2       0 UNK         0.5000 
      3 O          -3.2532  -12.8723  -47.5290 O.2       0 UNK        -0.5000 
      4 N          -1.0977  -12.5455  -46.9501 N.am      1 UNK        -0.5000 
      5 CA         -0.5731  -12.1192  -48.2459 C.3       1 UNK         0.1400 
      6 C6         -0.4687  -13.2837  -49.2784 C.3       23 UNK        -0.0398 
      7 S7          0.9853  -14.3854  -49.1210 S.3       23 UNK        -0.2404 
      8 C8          0.4406  -15.5882  -47.8744 C.3       23 UNK        -0.0205 
      9 C9         -0.5758  -16.5731  -48.4268 C.ar      23 UNK        -0.0193 
     10 C10        -1.9354  -16.4109  -48.1546 C.ar      23 UNK        -0.1150 
     11 C11        -2.8681  -17.3502  -48.5982 C.ar      23 UNK        -0.0193 
     12 C12        -2.4313  -18.4506  -49.3425 C.ar      23 UNK        -0.1150 
     13 C13        -1.0749  -18.6134  -49.6431 C.ar      23 UNK        -0.0193 
     14 C14        -0.1517  -17.6742  -49.1743 C.ar      23 UNK        -0.1150 
     15 C15        -0.5981  -19.7989  -50.4735 C.3       23 UNK        -0.0205 
     16 S16        -1.0619  -21.4105  -49.7623 S.3       23 UNK        -0.2404 
     17 C17        -0.4509  -21.2251  -48.0548 C.3       23 UNK        -0.0398 
     18 CA         -0.4102  -22.5441  -47.2526 C.3       11 UNK         0.1400 
     19 N           0.2814  -22.3544  -45.9768 N.am      11 UNK        -0.5000 
     20 C           0.6112  -23.3252  -45.1158 C.2       10 UNK         0.5000 
     21 O           0.3858  -24.5182  -45.3112 O.2       10 UNK        -0.5000 
     22 CA          1.2526  -22.8811  -43.7889 C.3       10 UNK         0.1400 
     23 CB          2.7294  -22.5082  -43.9862 C.3       10 UNK        -0.1800 
     24 N           0.5374  -21.7616  -43.1753 N.am      10 UNK        -0.5000 
     25 C          -0.7287  -21.8264  -42.7375 C.2       9 UNK         0.5000 
     26 O          -1.4099  -22.8524  -42.7592 O.2       9 UNK        -0.5000 
     27 CA         -1.3532  -20.5134  -42.2326 C.3       9 UNK         0.1400 
     28 CB         -0.8992  -20.2083  -40.7974 C.3       9 UNK        -0.1800 
     29 N          -1.0443  -19.3732  -43.0955 N.am      9 UNK        -0.5000 
     30 C          -1.4212  -19.2613  -44.3768 C.2       8 UNK         0.5000 
     31 O          -2.1007  -20.0984  -44.9667 O.2       8 UNK        -0.5000 
     32 CA         -0.9089  -18.0339  -45.1468 C.3       8 UNK         0.1400 
     33 CB         -1.7329  -16.7868  -44.7939 C.3       8 UNK        -0.1800 
     34 N           0.5149  -17.7820  -44.9174 N.am      8 UNK        -0.5000 
     35 C           1.4918  -18.6408  -45.2462 C.2       7 UNK         0.5000 
     36 O           1.2979  -19.7130  -45.8156 O.2       7 UNK        -0.5000 
     37 CA          2.9216  -18.2686  -44.8272 C.3       7 UNK         0.1400 
     38 CB          3.5791  -17.3683  -45.8777 C.3       7 UNK        -0.1800 
     39 N           2.9521  -17.6098  -43.5242 N.am      7 UNK        -0.5000 
     40 C           2.7082  -18.2354  -42.3641 C.2       6 UNK         0.5000 
     41 O           2.4871  -19.4437  -42.2691 O.2       6 UNK        -0.5000 
     42 CA          2.6460  -17.3437  -41.1106 C.3       6 UNK         0.1400 
     43 CB          4.0580  -17.0088  -40.6069 C.3       6 UNK        -0.1800 
     44 N           1.9064  -16.1024  -41.3504 N.am      6 UNK        -0.5000 
     45 C           0.6001  -16.0495  -41.6459 C.2       5 UNK         0.5000 
     46 O          -0.1251  -17.0417  -41.6947 O.2       5 UNK        -0.5000 
     47 CA          0.0028  -14.6683  -41.9708 C.3       5 UNK         0.1400 
     48 CB         -0.6419  -14.0558  -40.7191 C.3       5 UNK        -0.1800 
     49 N           0.9617  -13.7147  -42.5321 N.am      5 UNK        -0.5000 
     50 C           1.5912  -13.8407  -43.7085 C.2       4 UNK         0.5000 
     51 O           1.4656  -14.8219  -44.4466 O.2       4 UNK        -0.5000 
     52 CA          2.4687  -12.6383  -44.1108 C.3       4 UNK         0.1400 
     53 CB          3.5275  -12.2983  -43.0383 C.3       4 UNK        -0.1800 
     54 N           3.0705  -12.7584  -45.4423 N.am      4 UNK        -0.5000 
     55 C           4.1002  -13.5257  -45.8323 C.2       3 UNK         0.5000 
     56 O           4.7088  -14.2880  -45.0804 O.2       3 UNK        -0.5000 
     57 CA          4.5532  -13.4112  -47.3074 C.3       3 UNK         0.1400 
     58 CB          4.5931  -14.7837  -47.9983 C.3       3 UNK        -0.1800 
     59 N           3.7179  -12.5079  -48.1043 N.am      3 UNK        -0.5000 
     60 C           3.8814  -11.1802  -48.1938 C.2       2 UNK         0.5000 
     61 O           4.8097  -10.5710  -47.6617 O.2       2 UNK        -0.5000 
     62 CA          2.8130  -10.3909  -48.9841 C.3       2 UNK         0.1400 
     63 CB          3.3006  -10.1169  -50.4150 C.3       2 UNK        -0.1800 
     64 N           1.4985  -11.0429  -49.0471 N.am      2 UNK        -0.5000 
     65 C           0.7414  -11.3516  -47.9850 C.2       1 UNK         0.5000 
     66 O           1.0720  -11.0853  -46.8249 O.2       1 UNK        -0.5000 
     67 C          -1.8160  -23.1517  -47.0627 C.2       11 UNK         0.5000 
     68 O          -2.1677  -24.0923  -47.7754 O.2       11 UNK        -0.5000 
     69 N          -2.5791  -22.6423  -46.0858 N.am      12 UNK        -0.5000 
     70 CA         -3.9058  -23.1410  -45.7236 C.3       12 UNK         0.1400 
     71 CB         -4.5394  -22.2183  -44.6727 C.3       12 UNK        -0.1800 
     72 C          -3.8887  -24.5993  -45.2297 C.2       12 UNK         0.5000 
     73 O          -4.8056  -25.3550  -45.5499 O.2       12 UNK        -0.5000 
     74 N          -2.8393  -24.9768  -44.4890 N.am      13 UNK        -0.5000 
     75 CA         -2.6133  -26.3460  -44.0344 C.3       13 UNK         0.1400 
     76 CB         -1.5922  -26.3405  -42.8858 C.3       13 UNK        -0.1800 
     77 C          -2.1558  -27.2769  -45.1735 C.2       13 UNK         0.5000 
     78 O          -2.6797  -28.3846  -45.2975 O.2       13 UNK        -0.5000 
     79 N          -1.1734  -26.8256  -45.9646 N.am      14 UNK        -0.5000 
     80 CA         -0.4987  -27.6366  -46.9771 C.3       14 UNK         0.1400 
     81 CB          0.8854  -27.0346  -47.2678 C.3       14 UNK        -0.1800 
     82 C          -1.2913  -27.7954  -48.2852 C.2       14 UNK         0.5000 
     83 O          -1.3477  -28.9040  -48.8198 O.2       14 UNK        -0.5000 
     84 N          -1.8432  -26.6901  -48.8003 N.am      15 UNK        -0.5000 
     85 CA         -2.4053  -26.5988  -50.1507 C.3       15 UNK         0.1400 
     86 CB         -1.5199  -25.6484  -50.9763 C.3       15 UNK        -0.1800 
     87 C          -3.8617  -26.1093  -50.1755 C.2       15 UNK         0.5000 
     88 O          -4.4766  -26.1409  -51.2411 O.2       15 UNK        -0.5000 
     89 N          -4.3820  -25.6206  -49.0393 N.am      16 UNK        -0.5000 
     90 CA         -5.7105  -25.0098  -48.8782 C.3       16 UNK         0.1400 
     91 CB         -6.8223  -26.0628  -49.0681 C.3       16 UNK        -0.1800 
     92 C          -5.9164  -23.7548  -49.7581 C.2       16 UNK         0.5000 
     93 O          -7.0482  -23.4470  -50.1339 O.2       16 UNK        -0.5000 
     94 N          -4.8071  -23.0718  -50.0858 N.am      17 UNK        -0.5000 
     95 CA         -4.6938  -21.9200  -50.9896 C.3       17 UNK         0.1400 
     96 CB         -5.4510  -20.7003  -50.4266 C.3       17 UNK        -0.1800 
     97 C          -5.0682  -22.2139  -52.4604 C.2       17 UNK         0.5000 
     98 O          -5.2711  -21.2694  -53.2271 O.2       17 UNK        -0.5000 
     99 N          -5.1369  -23.4980  -52.8476 N.am      18 UNK        -0.5000 
    100 CA        -5.4685  -23.9449  -54.2018 C.3       18 UNK         0.1400 
    101 CB        -5.5726  -25.4765  -54.2251 C.3       18 UNK        -0.1800 
    102 C         -4.4405  -23.4584  -55.2383 C.2       18 UNK         0.5000 
    103 O         -3.2379  -23.4879  -54.9655 O.2       18 UNK        -0.5000 
    104 N         -4.9413  -22.9950  -56.3916 N.am      19 UNK        -0.5000 
    105 CA        -4.2329  -22.3977  -57.5347 C.3       19 UNK         0.1400 
    106 CB        -3.2216  -23.3829  -58.1516 C.3       19 UNK        -0.1800 
    107 C         -3.5745  -21.0314  -57.2451 C.2       19 UNK         0.5000 
    108 O         -3.6312  -20.1455  -58.0986 O.2       19 UNK        -0.5000 
    109 N         -2.9763  -20.8752  -56.0582 N.am      20 UNK        -0.5000 
    110 CA        -2.3451  -19.6486  -55.5751 C.3       20 UNK         0.1400 
    111 CB        -1.5413  -19.9688  -54.3062 C.3       20 UNK        -0.1800 
    112 C         -3.3567  -18.5228  -55.2970 C.2       20 UNK         0.5000 
    113 O         -3.0561  -17.3588  -55.5688 O.2       20 UNK        -0.5000 
    114 N         -4.5236  -18.8885  -54.7406 N.am      21 UNK        -0.5000 
    115 CA        -5.6676  -18.0243  -54.4171 C.3       21 UNK         0.1400 
    116 CB        -6.3569  -17.5549  -55.7146 C.3       21 UNK        -0.1800 
    117 C         -5.3276  -16.8513  -53.4689 C.2       21 UNK         0.5000 
    118 O         -6.0022  -15.8204  -53.4986 O.2       21 UNK        -0.5000 
    119 N         -4.2758  -17.0306  -52.6585 N.am      22 UNK        -0.5000 
    120 CA        -3.6847  -16.0307  -51.7517 C.3       22 UNK         0.1400 
    121 C         -3.0056  -14.8274  -52.4761 C.2       22 UNK         0.5000 
    122 N         -2.6783  -14.9271  -53.7605 N.am      22 UNK        -0.7600 
    123 O         -2.7423  -13.7957  -51.8650 O.2       22 UNK        -0.5000 
    124 C124       -4.6397  -15.5893  -50.6031 C.3       23 UNK        -0.0398 
    125 S125       -5.4006  -17.0020  -49.7243 S.3       23 UNK        -0.2404 
    126 C126       -4.3406  -17.1741  -48.2537 C.3       23 UNK        -0.0205 
    127 H127       -1.7873  -13.3350  -44.6325 H         1 UNK         0.0600 
    128 H128       -3.2366  -14.1688  -45.2000 H         1 UNK         0.0600 
    129 H129       -3.3120  -12.4544  -44.7838 H         1 UNK         0.0600 
    130 H130       -0.4149  -12.4763  -46.2064 H         1 UNK         0.3000 
    131 H131       -1.2710  -11.3811  -48.6464 H         1 UNK         0.0600 
    132 H132       -0.4298  -12.8603  -50.2828 H         1 UNK         0.0800 
    133 H133       -1.3793  -13.8824  -49.2757 H         1 UNK         0.0800 
    134 H134        1.3104  -16.1408  -47.5205 H         1 UNK         0.0800 
    135 H135        0.0486  -15.0650  -47.0027 H         1 UNK         0.0800 
    136 H136       -2.2663  -15.5635  -47.5739 H         1 UNK         0.1150 
    137 H137       -3.1476  -19.1785  -49.6926 H         1 UNK         0.1150 
    138 H138        0.9009  -17.7982  -49.3864 H         1 UNK         0.1150 
    139 H139       -1.0242  -19.7197  -51.4725 H         1 UNK         0.0800 
    140 H140        0.4854  -19.7732  -50.5987 H         1 UNK         0.0800 
    141 H141       -1.0603  -20.4826  -47.5370 H         1 UNK         0.0800 
    142 H142        0.5539  -20.8049  -48.1139 H         1 UNK         0.0800 
    143 H143        0.1774  -23.2654  -47.8244 H         1 UNK         0.0600 
    144 H144        0.5380  -21.3959  -45.7506 H         1 UNK         0.3000 
    145 H145        1.2059  -23.7259  -43.0986 H         1 UNK         0.0600 
    146 H146        3.2005  -22.2512  -43.0372 H         1 UNK         0.0600 
    147 H147        3.2881  -23.3422  -44.4126 H         1 UNK         0.0600 
    148 H148        2.8466  -21.6574  -44.6572 H         1 UNK         0.0600 
    149 H149        1.0379  -20.8840  -43.0977 H         1 UNK         0.3000 
    150 H150       -2.4374  -20.6422  -42.2270 H         1 UNK         0.0600 
    151 H151       -1.1258  -21.0404  -40.1297 H         1 UNK         0.0600 
    152 H152       -1.4064  -19.3272  -40.4039 H         1 UNK         0.0600 
    153 H153        0.1747  -20.0252  -40.7447 H         1 UNK         0.0600 
    154 H154       -0.5275  -18.6078  -42.6698 H         1 UNK         0.3000 
    155 H155       -1.0334  -18.2413  -46.2101 H         1 UNK         0.0600 
    156 H156       -2.7479  -16.8766  -45.1826 H         1 UNK         0.0600 
    157 H157       -1.2964  -15.8851  -45.2204 H         1 UNK         0.0600 
    158 H158       -1.8143  -16.6432  -43.7176 H         1 UNK         0.0600 
    159 H159        0.7678  -16.9029  -44.4831 H         1 UNK         0.3000 
    160 H160        3.5021  -19.1912  -44.7616 H         1 UNK         0.0600 
    161 H161        3.0685  -16.4091  -45.9503 H         1 UNK         0.0600 
    162 H162        3.5565  -17.8317  -46.8649 H         1 UNK         0.0600 
    163 H163        4.6227  -17.1730  -45.6310 H         1 UNK         0.0600 
    164 H164        3.0790  -16.6073  -43.5268 H         1 UNK         0.3000 
    165 H165        2.1269  -17.9029  -40.3293 H         1 UNK         0.0600 
    166 H166        4.0201  -16.4433  -39.6757 H         1 UNK         0.0600 
    167 H167        4.6275  -17.9183  -40.4109 H         1 UNK         0.0600 
    168 H168        4.6185  -16.4205  -41.3347 H         1 UNK         0.0600 
    169 H169        2.4314  -15.2409  -41.3279 H         1 UNK         0.3000 
    170 H170       -0.7816  -14.8168  -42.7138 H         1 UNK         0.0600 
    171 H171       -1.3839  -14.7315  -40.2913 H         1 UNK         0.0600 
    172 H172        0.0982  -13.8485  -39.9451 H         1 UNK         0.0600 
    173 H173       -1.1537  -13.1225  -40.9548 H         1 UNK         0.0600 
    174 H174        1.1150  -12.8762  -41.9908 H         1 UNK         0.3000 
    175 H175        1.7940  -11.7842  -44.1836 H         1 UNK         0.0600 
    176 H176        4.1509  -13.1582  -42.7916 H         1 UNK         0.0600 
    177 H177        4.1834  -11.4947  -43.3733 H         1 UNK         0.0600 
    178 H178        3.0616  -11.9614  -42.1120 H         1 UNK         0.0600 
    179 H179        2.6185  -12.1885  -46.1484 H         1 UNK         0.3000 
    180 H180        5.5743  -13.0248  -47.2908 H         1 UNK         0.0600 
    181 H181        3.6107  -15.2529  -48.0224 H         1 UNK         0.0600 
    182 H182        5.2707  -15.4637  -47.4811 H         1 UNK         0.0600 
    183 H183        4.9472  -14.6975  -49.0256 H         1 UNK         0.0600 
    184 H184        2.9238  -12.9276  -48.5690 H         1 UNK         0.3000 
    185 H185        2.6810   -9.4319  -48.4789 H         1 UNK         0.0600 
    186 H186        4.2644   -9.6059  -50.4090 H         1 UNK         0.0600 
    187 H187        3.4226  -11.0410  -50.9815 H         1 UNK         0.0600 
    188 H188        2.6009   -9.4797  -50.9560 H         1 UNK         0.0600 
    189 H189        1.1766  -11.2996  -49.9691 H         1 UNK         0.3000 
    190 H190       -2.2488  -21.8276  -45.5724 H         1 UNK         0.3000 
    191 H191       -4.5243  -23.0990  -46.6212 H         1 UNK         0.0600 
    192 H192       -4.6488  -21.2033  -45.0550 H         1 UNK         0.0600 
    193 H193       -5.5335  -22.5683  -44.3921 H         1 UNK         0.0600 
    194 H194       -3.9379  -22.1710  -43.7645 H         1 UNK         0.0600 
    195 H195       -2.1451  -24.2846  -44.2314 H         1 UNK         0.3000 
    196 H196       -3.5538  -26.7379  -43.6410 H         1 UNK         0.0600 
    197 H197       -1.4160  -27.3508  -42.5146 H         1 UNK         0.0600 
    198 H198       -1.9483  -25.7423  -42.0469 H         1 UNK         0.0600 
    199 H199       -0.6307  -25.9328  -43.1992 H         1 UNK         0.0600 
    200 H200       -0.7659  -25.9134  -45.7715 H         1 UNK         0.3000 
    201 H201       -0.3409  -28.6359  -46.5650 H         1 UNK         0.0600 
    202 H202        1.4954  -26.9962  -46.3652 H         1 UNK         0.0600 
    203 H203        0.8088  -26.0204  -47.6621 H         1 UNK         0.0600 
    204 H204        1.4273  -27.6328  -48.0014 H         1 UNK         0.0600 
    205 H205       -1.7767  -25.8129  -48.2884 H         1 UNK         0.3000 
    206 H206       -2.4020  -27.5749  -50.6396 H         1 UNK         0.0600 
    207 H207       -0.4952  -26.0158  -51.0329 H         1 UNK         0.0600 
    208 H208       -1.8866  -25.5536  -51.9995 H         1 UNK         0.0600 
    209 H209       -1.4922  -24.6473  -50.5434 H         1 UNK         0.0600 
    210 H210       -3.7816  -25.5860  -48.2259 H         1 UNK         0.3000 
    211 H211       -5.7728  -24.6607  -47.8496 H         1 UNK         0.0600 
    212 H212       -6.8855  -26.4070  -50.1007 H         1 UNK         0.0600 
    213 H213       -7.7976  -25.6548  -48.8004 H         1 UNK         0.0600 
    214 H214       -6.6519  -26.9324  -48.4333 H         1 UNK         0.0600 
    215 H215       -3.9314  -23.4168  -49.7159 H         1 UNK         0.3000 
    216 H216       -3.6365  -21.6610  -51.0126 H         1 UNK         0.0600 
    217 H217       -5.2291  -19.8023  -51.0042 H         1 UNK         0.0600 
    218 H218       -5.1672  -20.4993  -49.3936 H         1 UNK         0.0600 
    219 H219       -6.5312  -20.8432  -50.4555 H         1 UNK         0.0600 
    220 H220       -4.9295  -24.2268  -52.1756 H         1 UNK         0.3000 
    221 H221       -6.4473  -23.5302  -54.4513 H         1 UNK         0.0600 
    222 H222       -4.6174  -25.9464  -53.9870 H         1 UNK         0.0600 
    223 H223       -6.3102  -25.8340  -53.5062 H         1 UNK         0.0600 
    224 H224       -5.8771  -25.8331  -55.2098 H         1 UNK         0.0600 
    225 H225       -5.9473  -22.9972  -56.4889 H         1 UNK         0.3000 
    226 H226       -5.0021  -22.2132  -58.2864 H         1 UNK         0.0600 
    227 H227       -3.6987  -24.3286  -58.4086 H         1 UNK         0.0600 
    228 H228       -2.7937  -22.9750  -59.0682 H         1 UNK         0.0600 
    229 H229       -2.3931  -23.5971  -57.4761 H         1 UNK         0.0600 
    230 H230       -2.9578  -21.6822  -55.4409 H         1 UNK         0.3000 
    231 H231       -1.6532  -19.2952  -56.3424 H         1 UNK         0.0600 
    232 H232       -2.1798  -20.3730  -53.5194 H         1 UNK         0.0600 
    233 H233       -1.0553  -19.0741  -53.9147 H         1 UNK         0.0600 
    234 H234       -0.7593  -20.7006  -54.5095 H         1 UNK         0.0600 
    235 H235       -4.6509  -19.8641  -54.4860 H         1 UNK         0.3000 
    236 H236       -6.3757  -18.6518  -53.8741 H         1 UNK         0.0600 
    237 H237       -6.6016  -18.4001  -56.3581 H         1 UNK         0.0600 
    238 H238       -7.2899  -17.0330  -55.4988 H         1 UNK         0.0600 
    239 H239       -5.7233  -16.8735  -56.2832 H         1 UNK         0.0600 
    240 H240       -3.7910  -17.9130  -52.7122 H         1 UNK         0.3000 
    241 H241       -2.8450  -16.5434  -51.2862 H         1 UNK         0.0600 
    242 H242       -2.2323  -14.1472  -54.2162 H         1 UNK         0.3800 
    243 H243       -2.8803  -15.7675  -54.2915 H         1 UNK         0.3800 
    244 H244       -4.1085  -14.9681  -49.8796 H         1 UNK         0.0800 
    245 H245       -5.4426  -14.9661  -50.9984 H         1 UNK         0.0800 
    246 H246       -4.4888  -16.3040  -47.6119 H         1 UNK         0.0800 
    247 H247       -4.6734  -18.0393  -47.6789 H         1 UNK         0.0800 
@<TRIPOS>BOND
     1    1    2 1    
     2    1  127 1    
     3    1  128 1    
     4    1  129 1    
     5    2    3 2    
     6    2    4 am   BACKBONE|DICT|INTERRES
     7    4    5 1    
     8    4  130 1    
     9    5    6 1    
    10    5   65 1    
    11    5  131 1    
    12    6    7 1    
    13    6  132 1    
    14    6  133 1    
    15    7    8 1    
    16    8    9 1    
    17    8  134 1    
    18    8  135 1    
    19    9   10 ar   
    20    9   14 ar   
    21   10   11 ar   
    22   10  136 1    
    23   11   12 ar   
    24   11  126 1    
    25   12   13 ar   
    26   12  137 1    
    27   13   14 ar   
    28   13   15 1    
    29   14  138 1    
    30   15   16 1    
    31   15  139 1    
    32   15  140 1    
    33   16   17 1    
    34   17   18 1    
    35   17  141 1    
    36   17  142 1    
    37   18   19 1    
    38   18   67 1    
    39   18  143 1    
    40   19   20 am   BACKBONE|DICT|INTERRES
    41   19  144 1    
    42   20   21 2    
    43   20   22 1    
    44   22   23 1    
    45   22   24 1    
    46   22  145 1    
    47   23  146 1    
    48   23  147 1    
    49   23  148 1    
    50   24   25 am   BACKBONE|DICT|INTERRES
    51   24  149 1    
    52   25   26 2    
    53   25   27 1    
    54   27   28 1    
    55   27   29 1    
    56   27  150 1    
    57   28  151 1    
    58   28  152 1    
    59   28  153 1    
    60   29   30 am   BACKBONE|DICT|INTERRES
    61   29  154 1    
    62   30   31 2    
    63   30   32 1    
    64   32   33 1    
    65   32   34 1    
    66   32  155 1    
    67   33  156 1    
    68   33  157 1    
    69   33  158 1    
    70   34   35 am   BACKBONE|DICT|INTERRES
    71   34  159 1    
    72   35   36 2    
    73   35   37 1    
    74   37   38 1    
    75   37   39 1    
    76   37  160 1    
    77   38  161 1    
    78   38  162 1    
    79   38  163 1    
    80   39   40 am   BACKBONE|DICT|INTERRES
    81   39  164 1    
    82   40   41 2    
    83   40   42 1    
    84   42   43 1    
    85   42   44 1    
    86   42  165 1    
    87   43  166 1    
    88   43  167 1    
    89   43  168 1    
    90   44   45 am   BACKBONE|DICT|INTERRES
    91   44  169 1    
    92   45   46 2    
    93   45   47 1    
    94   47   48 1    
    95   47   49 1    
    96   47  170 1    
    97   48  171 1    
    98   48  172 1    
    99   48  173 1    
   100   49   50 am   BACKBONE|DICT|INTERRES
   101   49  174 1    
   102   50   51 2    
   103   50   52 1    
   104   52   53 1    
   105   52   54 1    
   106   52  175 1    
   107   53  176 1    
   108   53  177 1    
   109   53  178 1    
   110   54   55 am   BACKBONE|DICT|INTERRES
   111   54  179 1    
   112   55   56 2    
   113   55   57 1    
   114   57   58 1    
   115   57   59 1    
   116   57  180 1    
   117   58  181 1    
   118   58  182 1    
   119   58  183 1    
   120   59   60 am   BACKBONE|DICT|INTERRES
   121   59  184 1    
   122   60   61 2    
   123   60   62 1    
   124   62   63 1    
   125   62   64 1    
   126   62  185 1    
   127   63  186 1    
   128   63  187 1    
   129   63  188 1    
   130   64   65 am   BACKBONE|DICT|INTERRES
   131   64  189 1    
   132   65   66 2    
   133   67   68 2    
   134   67   69 am   BACKBONE|DICT|INTERRES
   135   69   70 1    
   136   69  190 1    
   137   70   71 1    
   138   70   72 1    
   139   70  191 1    
   140   71  192 1    
   141   71  193 1    
   142   71  194 1    
   143   72   73 2    
   144   72   74 am   BACKBONE|DICT|INTERRES
   145   74   75 1    
   146   74  195 1    
   147   75   76 1    
   148   75   77 1    
   149   75  196 1    
   150   76  197 1    
   151   76  198 1    
   152   76  199 1    
   153   77   78 2    
   154   77   79 am   BACKBONE|DICT|INTERRES
   155   79   80 1    
   156   79  200 1    
   157   80   81 1    
   158   80   82 1    
   159   80  201 1    
   160   81  202 1    
   161   81  203 1    
   162   81  204 1    
   163   82   83 2    
   164   82   84 am   BACKBONE|DICT|INTERRES
   165   84   85 1    
   166   84  205 1    
   167   85   86 1    
   168   85   87 1    
   169   85  206 1    
   170   86  207 1    
   171   86  208 1    
   172   86  209 1    
   173   87   88 2    
   174   87   89 am   BACKBONE|DICT|INTERRES
   175   89   90 1    
   176   89  210 1    
   177   90   91 1    
   178   90   92 1    
   179   90  211 1    
   180   91  212 1    
   181   91  213 1    
   182   91  214 1    
   183   92   93 2    
   184   92   94 am   BACKBONE|DICT|INTERRES
   185   94   95 1    
   186   94  215 1    
   187   95   96 1    
   188   95   97 1    
   189   95  216 1    
   190   96  217 1    
   191   96  218 1    
   192   96  219 1    
   193   97   98 2    
   194   97   99 am   BACKBONE|DICT|INTERRES
   195   99  100 1    
   196   99  220 1    
   197  100  101 1    
   198  100  102 1    
   199  100  221 1    
   200  101  222 1    
   201  101  223 1    
   202  101  224 1    
   203  102  103 2    
   204  102  104 am   BACKBONE|DICT|INTERRES
   205  104  105 1    
   206  104  225 1    
   207  105  106 1    
   208  105  107 1    
   209  105  226 1    
   210  106  227 1    
   211  106  228 1    
   212  106  229 1    
   213  107  108 2    
   214  107  109 am   BACKBONE|DICT|INTERRES
   215  109  110 1    
   216  109  230 1    
   217  110  111 1    
   218  110  112 1    
   219  110  231 1    
   220  111  232 1    
   221  111  233 1    
   222  111  234 1    
   223  112  113 2    
   224  112  114 am   BACKBONE|DICT|INTERRES
   225  114  115 1    
   226  114  235 1    
   227  115  116 1    
   228  115  117 1    
   229  115  236 1    
   230  116  237 1    
   231  116  238 1    
   232  116  239 1    
   233  117  118 2    
   234  117  119 am   BACKBONE|DICT|INTERRES
   235  119  120 1    
   236  119  240 1    
   237  120  121 1    
   238  120  124 1    
   239  120  241 1    
   240  121  122 am   BACKBONE|DICT|INTERRES
   241  121  123 2    
   242  122  242 1    
   243  122  243 1    
   244  124  125 1    
   245  124  244 1    
   246  124  245 1    
   247  125  126 1    
   248  126  246 1    
   249  126  247 1    
@<TRIPOS>SUBSTRUCTURE
     1 UNK         1 GROUP             0       ****    0 ROOT    
