@<TRIPOS>MOLECULE
3R540
247   249    1
SMALL
USER_CHARGES


@<TRIPOS>ATOM
      1 CA          0.4418  -12.8084  -51.1067 C.3       0 UNK        -0.1800 
      2 C           1.4066  -12.2312  -50.0808 C.2       0 UNK         0.5000 
      3 O           1.5036  -11.0115  -49.9416 O.2       0 UNK        -0.5000 
      4 N           2.1141  -13.1012  -49.3507 N.am      1 UNK        -0.5000 
      5 CA          3.0904  -12.7823  -48.3019 C.3       1 UNK         0.1400 
      6 C6          4.1397  -13.9184  -48.1325 C.3       23 UNK        -0.0398 
      7 S7          3.4314  -15.5848  -47.8686 S.3       23 UNK        -0.2404 
      8 C8          3.3986  -16.2496  -49.5658 C.3       23 UNK        -0.0205 
      9 C9          2.2183  -17.1885  -49.7627 C.ar      23 UNK        -0.0193 
     10 C10         0.9144  -16.6886  -49.7027 C.ar      23 UNK        -0.1150 
     11 C11        -0.1835  -17.5349  -49.8630 C.ar      23 UNK        -0.0193 
     12 C12         0.0299  -18.8971  -50.0846 C.ar      23 UNK        -0.1150 
     13 C13         1.3278  -19.4117  -50.1657 C.ar      23 UNK        -0.0193 
     14 C14         2.4193  -18.5504  -50.0075 C.ar      23 UNK        -0.1150 
     15 C15         1.5383  -20.9003  -50.4189 C.3       23 UNK        -0.0205 
     16 S16         2.5160  -21.7287  -49.1193 S.3       23 UNK        -0.2404 
     17 C17         1.6149  -21.2689  -47.6001 C.3       23 UNK        -0.0398 
     18 CA          0.6686  -22.3605  -47.0514 C.3       11 UNK         0.1400 
     19 N           0.2274  -22.0231  -45.6978 N.am      11 UNK        -0.5000 
     20 C          -0.4677  -22.8203  -44.8782 C.2       10 UNK         0.5000 
     21 O          -0.7807  -23.9764  -45.1537 O.2       10 UNK        -0.5000 
     22 CA         -0.9308  -22.2074  -43.5439 C.3       10 UNK         0.1400 
     23 CB          0.1922  -22.2637  -42.4984 C.3       10 UNK        -0.1800 
     24 N          -1.4086  -20.8302  -43.6887 N.am      10 UNK        -0.5000 
     25 C          -2.4766  -20.4774  -44.4200 C.2       9 UNK         0.5000 
     26 O          -3.1898  -21.2830  -45.0176 O.2       9 UNK        -0.5000 
     27 CA         -2.7778  -18.9733  -44.5406 C.3       9 UNK         0.1400 
     28 CB         -3.4829  -18.4546  -43.2788 C.3       9 UNK        -0.1800 
     29 N          -1.5797  -18.1755  -44.7985 N.am      9 UNK        -0.5000 
     30 C          -0.8170  -18.2762  -45.8970 C.2       8 UNK         0.5000 
     31 O          -1.0677  -19.0341  -46.8344 O.2       8 UNK        -0.5000 
     32 CA          0.4727  -17.4314  -45.9150 C.3       8 UNK         0.1400 
     33 CB          0.1600  -15.9504  -46.1860 C.3       8 UNK        -0.1800 
     34 N           1.2189  -17.5423  -44.6601 N.am      8 UNK        -0.5000 
     35 C           1.7102  -18.6819  -44.1534 C.2       7 UNK         0.5000 
     36 O           1.6376  -19.7708  -44.7183 O.2       7 UNK        -0.5000 
     37 CA          2.3375  -18.6063  -42.7527 C.3       7 UNK         0.1400 
     38 CB          3.8064  -18.1630  -42.8286 C.3       7 UNK        -0.1800 
     39 N           1.5853  -17.7085  -41.8774 N.am      7 UNK        -0.5000 
     40 C           0.3794  -17.9923  -41.3652 C.2       6 UNK         0.5000 
     41 O          -0.2032  -19.0624  -41.5423 O.2       6 UNK        -0.5000 
     42 CA         -0.3074  -16.8773  -40.5539 C.3       6 UNK         0.1400 
     43 CB          0.2065  -16.8638  -39.1066 C.3       6 UNK        -0.1800 
     44 N          -0.1222  -15.5520  -41.1482 N.am      6 UNK        -0.5000 
     45 C          -0.6417  -15.1778  -42.3255 C.2       5 UNK         0.5000 
     46 O          -1.3743  -15.8971  -43.0035 O.2       5 UNK        -0.5000 
     47 CA         -0.2494  -13.7851  -42.8575 C.3       5 UNK         0.1400 
     48 CB         -1.2470  -12.7289  -42.3598 C.3       5 UNK        -0.1800 
     49 N           1.1167  -13.3568  -42.5331 N.am      5 UNK        -0.5000 
     50 C           2.2369  -14.0445  -42.8016 C.2       4 UNK         0.5000 
     51 O           2.2388  -15.1761  -43.2862 O.2       4 UNK        -0.5000 
     52 CA          3.5621  -13.3259  -42.5015 C.3       4 UNK         0.1400 
     53 CB          4.7998  -14.1738  -42.8466 C.3       4 UNK        -0.1800 
     54 N           3.5892  -12.0982  -43.2852 N.am      4 UNK        -0.5000 
     55 C           3.8578  -10.8708  -42.8229 C.2       3 UNK         0.5000 
     56 O           4.2110  -10.6380  -41.6663 O.2       3 UNK        -0.5000 
     57 CA          3.6808   -9.6963  -43.8112 C.3       3 UNK         0.1400 
     58 CB          5.0373   -9.2829  -44.4022 C.3       3 UNK        -0.1800 
     59 N           2.7582   -9.9972  -44.9094 N.am      3 UNK        -0.5000 
     60 C           1.4503  -10.2535  -44.7664 C.2       2 UNK         0.5000 
     61 O           0.8475  -10.1166  -43.7018 O.2       2 UNK        -0.5000 
     62 CA          0.6926  -10.7929  -45.9976 C.3       2 UNK         0.1400 
     63 CB         -0.2202   -9.7073  -46.5871 C.3       2 UNK        -0.1800 
     64 N           1.5382  -11.3297  -47.0709 N.am      2 UNK        -0.5000 
     65 C           2.3988  -12.3539  -46.9837 C.2       1 UNK         0.5000 
     66 O           2.6507  -12.9284  -45.9250 O.2       1 UNK        -0.5000 
     67 C          -0.5285  -22.6325  -47.9879 C.2       11 UNK         0.5000 
     68 O          -0.5400  -23.6564  -48.6723 O.2       11 UNK        -0.5000 
     69 N          -1.5372  -21.7480  -47.9648 N.am      12 UNK        -0.5000 
     70 CA         -2.7858  -21.9079  -48.7148 C.3       12 UNK         0.1400 
     71 CB         -3.6366  -20.6380  -48.5787 C.3       12 UNK        -0.1800 
     72 C          -3.5894  -23.1485  -48.2798 C.2       12 UNK         0.5000 
     73 O          -4.1187  -23.8584  -49.1360 O.2       12 UNK        -0.5000 
     74 N          -3.6376  -23.4046  -46.9641 N.am      13 UNK        -0.5000 
     75 CA         -4.2699  -24.5799  -46.3652 C.3       13 UNK         0.1400 
     76 CB         -4.3655  -24.4020  -44.8429 C.3       13 UNK        -0.1800 
     77 C          -3.5476  -25.8918  -46.7207 C.2       13 UNK         0.5000 
     78 O          -4.2142  -26.8758  -47.0390 O.2       13 UNK        -0.5000 
     79 N          -2.2068  -25.8808  -46.7100 N.am      14 UNK        -0.5000 
     80 CA         -1.3575  -27.0018  -47.1261 C.3       14 UNK         0.1400 
     81 CB          0.1077  -26.6980  -46.7790 C.3       14 UNK        -0.1800 
     82 C          -1.5054  -27.3380  -48.6222 C.2       14 UNK         0.5000 
     83 O          -1.4815  -28.5131  -48.9889 O.2       14 UNK        -0.5000 
     84 N          -1.7098  -26.3039  -49.4483 N.am      15 UNK        -0.5000 
     85 CA         -2.0494  -26.4097  -50.8683 C.3       15 UNK         0.1400 
     86 CB         -1.6638  -25.0934  -51.5615 C.3       15 UNK        -0.1800 
     87 C          -3.5361  -26.7484  -51.1207 C.2       15 UNK         0.5000 
     88 O          -3.9328  -26.8686  -52.2805 O.2       15 UNK        -0.5000 
     89 N          -4.3419  -26.8625  -50.0516 N.am      16 UNK        -0.5000 
     90 CA         -5.7794  -27.1647  -50.0253 C.3       16 UNK         0.1400 
     91 CB         -6.0225  -28.6205  -50.4733 C.3       16 UNK        -0.1800 
     92 C          -6.6449  -26.1548  -50.8095 C.2       16 UNK         0.5000 
     93 O          -7.7338  -26.5066  -51.2662 O.2       16 UNK        -0.5000 
     94 N          -6.1238  -24.9305  -50.9845 N.am      17 UNK        -0.5000 
     95 CA         -6.6282  -23.8535  -51.8420 C.3       17 UNK         0.1400 
     96 CB         -7.9414  -23.2774  -51.2749 C.3       17 UNK        -0.1800 
     97 C          -6.7408  -24.2302  -53.3400 C.2       17 UNK         0.5000 
     98 O          -7.4225  -23.5291  -54.0891 O.2       17 UNK        -0.5000 
     99 N          -6.0631  -25.3069  -53.7698 N.am      18 UNK        -0.5000 
    100 CA        -5.9948  -25.7382  -55.1695 C.3       18 UNK         0.1400 
    101 CB        -5.6086  -27.2240  -55.2239 C.3       18 UNK        -0.1800 
    102 C         -5.0007  -24.8867  -55.9810 C.2       18 UNK         0.5000 
    103 O         -5.1399  -24.7706  -57.1992 O.2       18 UNK        -0.5000 
    104 N         -4.0351  -24.2896  -55.2786 N.am      19 UNK        -0.5000 
    105 CA        -3.0943  -23.2905  -55.7549 C.3       19 UNK         0.1400 
    106 CB        -1.7990  -23.9788  -56.2153 C.3       19 UNK        -0.1800 
    107 C         -2.8319  -22.3307  -54.5868 C.2       19 UNK         0.5000 
    108 O         -3.0188  -22.7188  -53.4300 O.2       19 UNK        -0.5000 
    109 N         -2.4031  -21.1034  -54.9114 N.am      20 UNK        -0.5000 
    110 CA        -2.0306  -20.0336  -53.9756 C.3       20 UNK         0.1400 
    111 CB        -0.7135  -20.3907  -53.2601 C.3       20 UNK        -0.1800 
    112 C         -3.1620  -19.6458  -52.9961 C.2       20 UNK         0.5000 
    113 O         -2.9125  -19.3842  -51.8189 O.2       20 UNK        -0.5000 
    114 N         -4.4002  -19.6172  -53.5043 N.am      21 UNK        -0.5000 
    115 CA        -5.6010  -19.2343  -52.7653 C.3       21 UNK         0.1400 
    116 CB        -6.8205  -19.8956  -53.4304 C.3       21 UNK        -0.1800 
    117 C         -5.7189  -17.6994  -52.6945 C.2       21 UNK         0.5000 
    118 O         -6.5282  -17.1073  -53.4116 O.2       21 UNK        -0.5000 
    119 N         -4.8633  -17.0858  -51.8686 N.am      22 UNK        -0.5000 
    120 CA        -4.7784  -15.6351  -51.6342 C.3       22 UNK         0.1400 
    121 C         -6.1128  -15.0075  -51.1377 C.2       22 UNK         0.5000 
    122 N         -6.4643  -13.8209  -51.6146 N.am      22 UNK        -0.7600 
    123 O         -6.8055  -15.5652  -50.2891 O.2       22 UNK        -0.5000 
    124 C124       -3.6387  -15.2791  -50.6460 C.3       23 UNK        -0.0398 
    125 S125       -1.9992  -15.8911  -51.1673 S.3       23 UNK        -0.2404 
    126 C126       -1.5942  -16.9763  -49.7639 C.3       23 UNK        -0.0205 
    127 H127       -0.5876  -12.6567  -50.7817 H         1 UNK         0.0600 
    128 H128        0.5988  -13.8769  -51.2554 H         1 UNK         0.0600 
    129 H129        0.5738  -12.3123  -52.0683 H         1 UNK         0.0600 
    130 H130        1.9628  -14.0893  -49.4844 H         1 UNK         0.3000 
    131 H131        3.6484  -11.9031  -48.6313 H         1 UNK         0.0600 
    132 H132        4.7827  -13.9504  -49.0130 H         1 UNK         0.0800 
    133 H133        4.8110  -13.6969  -47.3009 H         1 UNK         0.0800 
    134 H134        4.3422  -16.7608  -49.7622 H         1 UNK         0.0800 
    135 H135        3.3304  -15.4440  -50.2973 H         1 UNK         0.0800 
    136 H136        0.7458  -15.6393  -49.5149 H         1 UNK         0.1150 
    137 H137       -0.8185  -19.5579  -50.1949 H         1 UNK         0.1150 
    138 H138        3.4234  -18.9468  -50.0614 H         1 UNK         0.1150 
    139 H139        0.5810  -21.4148  -50.5131 H         1 UNK         0.0800 
    140 H140        2.0458  -21.0256  -51.3760 H         1 UNK         0.0800 
    141 H141        1.0838  -20.3265  -47.7275 H         1 UNK         0.0800 
    142 H142        2.3859  -21.0621  -46.8575 H         1 UNK         0.0800 
    143 H143        1.2379  -23.2892  -46.9742 H         1 UNK         0.0600 
    144 H144        0.4951  -21.1016  -45.3602 H         1 UNK         0.3000 
    145 H145       -1.7639  -22.8090  -43.1751 H         1 UNK         0.0600 
    146 H146       -0.1503  -21.8955  -41.5313 H         1 UNK         0.0600 
    147 H147        0.5380  -23.2878  -42.3527 H         1 UNK         0.0600 
    148 H148        1.0531  -21.6667  -42.7985 H         1 UNK         0.0600 
    149 H149       -0.8928  -20.1131  -43.1903 H         1 UNK         0.3000 
    150 H150       -3.4541  -18.8386  -45.3873 H         1 UNK         0.0600 
    151 H151       -4.3848  -19.0311  -43.0694 H         1 UNK         0.0600 
    152 H152       -3.7823  -17.4130  -43.3960 H         1 UNK         0.0600 
    153 H153       -2.8387  -18.5194  -42.4013 H         1 UNK         0.0600 
    154 H154       -1.3301  -17.4911  -44.0898 H         1 UNK         0.3000 
    155 H155        1.1154  -17.8018  -46.7166 H         1 UNK         0.0600 
    156 H156       -0.6087  -15.5670  -45.5172 H         1 UNK         0.0600 
    157 H157       -0.1996  -15.8066  -47.2024 H         1 UNK         0.0600 
    158 H158        1.0455  -15.3263  -46.0654 H         1 UNK         0.0600 
    159 H159        1.3831  -16.6821  -44.1447 H         1 UNK         0.3000 
    160 H160        2.3127  -19.6071  -42.3168 H         1 UNK         0.0600 
    161 H161        3.9154  -17.1931  -43.3133 H         1 UNK         0.0600 
    162 H162        4.3955  -18.8791  -43.4028 H         1 UNK         0.0600 
    163 H163        4.2521  -18.0962  -41.8362 H         1 UNK         0.0600 
    164 H164        1.9503  -16.7711  -41.7772 H         1 UNK         0.3000 
    165 H165       -1.3778  -17.0936  -40.5331 H         1 UNK         0.0600 
    166 H166       -0.3301  -16.1303  -38.5046 H         1 UNK         0.0600 
    167 H167        0.0651  -17.8368  -38.6340 H         1 UNK         0.0600 
    168 H168        1.2699  -16.6262  -39.0573 H         1 UNK         0.0600 
    169 H169        0.4699  -14.9020  -40.6527 H         1 UNK         0.3000 
    170 H170       -0.3171  -13.8235  -43.9458 H         1 UNK         0.0600 
    171 H171       -2.2732  -13.0216  -42.5864 H         1 UNK         0.0600 
    172 H172       -1.1767  -12.5862  -41.2808 H         1 UNK         0.0600 
    173 H173       -1.0765  -11.7651  -42.8382 H         1 UNK         0.0600 
    174 H174        1.2112  -12.4208  -42.1646 H         1 UNK         0.3000 
    175 H175        3.5763  -13.1060  -41.4322 H         1 UNK         0.0600 
    176 H176        4.8145  -14.4515  -43.9017 H         1 UNK         0.0600 
    177 H177        5.7203  -13.6316  -42.6305 H         1 UNK         0.0600 
    178 H178        4.8188  -15.0934  -42.2609 H         1 UNK         0.0600 
    179 H179        3.2765  -12.2072  -44.2473 H         1 UNK         0.3000 
    180 H180        3.2760   -8.8513  -43.2505 H         1 UNK         0.0600 
    181 H181        5.4822  -10.0877  -44.9888 H         1 UNK         0.0600 
    182 H182        5.7440   -9.0226  -43.6131 H         1 UNK         0.0600 
    183 H183        4.9376   -8.4103  -45.0480 H         1 UNK         0.0600 
    184 H184        3.1677  -10.1273  -45.8223 H         1 UNK         0.3000 
    185 H185        0.0634  -11.6122  -45.6440 H         1 UNK         0.0600 
    186 H186       -0.8949   -9.3066  -45.8293 H         1 UNK         0.0600 
    187 H187        0.3571   -8.8734  -46.9883 H         1 UNK         0.0600 
    188 H188       -0.8383  -10.1058  -47.3920 H         1 UNK         0.0600 
    189 H189        1.4025  -10.9278  -47.9942 H         1 UNK         0.3000 
    190 H190       -1.4471  -20.9085  -47.3993 H         1 UNK         0.3000 
    191 H191       -2.5270  -22.0301  -49.7690 H         1 UNK         0.0600 
    192 H192       -3.9255  -20.4517  -47.5440 H         1 UNK         0.0600 
    193 H193       -4.5495  -20.7143  -49.1707 H         1 UNK         0.0600 
    194 H194       -3.0920  -19.7657  -48.9342 H         1 UNK         0.0600 
    195 H195       -3.2279  -22.7323  -46.3217 H         1 UNK         0.3000 
    196 H196       -5.2859  -24.6458  -46.7600 H         1 UNK         0.0600 
    197 H197       -4.8644  -25.2546  -44.3807 H         1 UNK         0.0600 
    198 H198       -4.9386  -23.5110  -44.5859 H         1 UNK         0.0600 
    199 H199       -3.3812  -24.3096  -44.3844 H         1 UNK         0.0600 
    200 H200       -1.7261  -25.0519  -46.3684 H         1 UNK         0.3000 
    201 H201       -1.6654  -27.8818  -46.5578 H         1 UNK         0.0600 
    202 H202        0.2344  -26.5439  -45.7073 H         1 UNK         0.0600 
    203 H203        0.4659  -25.8041  -47.2899 H         1 UNK         0.0600 
    204 H204        0.7577  -27.5249  -47.0675 H         1 UNK         0.0600 
    205 H205       -1.6455  -25.3640  -49.0701 H         1 UNK         0.3000 
    206 H206       -1.4562  -27.2118  -51.3117 H         1 UNK         0.0600 
    207 H207       -0.6088  -24.8620  -51.4140 H         1 UNK         0.0600 
    208 H208       -1.8356  -25.1493  -52.6371 H         1 UNK         0.0600 
    209 H209       -2.2449  -24.2532  -51.1799 H         1 UNK         0.0600 
    210 H210       -3.9296  -26.7186  -49.1382 H         1 UNK         0.3000 
    211 H211       -6.0922  -27.0813  -48.9841 H         1 UNK         0.0600 
    212 H212       -5.7938  -28.7611  -51.5303 H         1 UNK         0.0600 
    213 H213       -7.0627  -28.9107  -50.3217 H         1 UNK         0.0600 
    214 H214       -5.4077  -29.3156  -49.9014 H         1 UNK         0.0600 
    215 H215       -5.2514  -24.7242  -50.5043 H         1 UNK         0.3000 
    216 H216       -5.8765  -23.0639  -51.7938 H         1 UNK         0.0600 
    217 H217       -8.2453  -22.3817  -51.8175 H         1 UNK         0.0600 
    218 H218       -7.8273  -22.9962  -50.2280 H         1 UNK         0.0600 
    219 H219       -8.7602  -23.9939  -51.3435 H         1 UNK         0.0600 
    220 H220       -5.5029  -25.8355  -53.1085 H         1 UNK         0.3000 
    221 H221       -6.9821  -25.6266  -55.6225 H         1 UNK         0.0600 
    222 H222       -4.6051  -27.3948  -54.8328 H         1 UNK         0.0600 
    223 H223       -6.3025  -27.8342  -54.6454 H         1 UNK         0.0600 
    224 H224       -5.6263  -27.5928  -56.2501 H         1 UNK         0.0600 
    225 H225       -4.0265  -24.4029  -54.2722 H         1 UNK         0.3000 
    226 H226       -3.5344  -22.7292  -56.5819 H         1 UNK         0.0600 
    227 H227       -1.9917  -24.6748  -57.0319 H         1 UNK         0.0600 
    228 H228       -1.0731  -23.2484  -56.5742 H         1 UNK         0.0600 
    229 H229       -1.3313  -24.5370  -55.4030 H         1 UNK         0.0600 
    230 H230       -2.2931  -20.8784  -55.8905 H         1 UNK         0.3000 
    231 H231       -1.8419  -19.1476  -54.5834 H         1 UNK         0.0600 
    232 H232        0.0507  -20.7102  -53.9683 H         1 UNK         0.0600 
    233 H233       -0.8539  -21.1908  -52.5325 H         1 UNK         0.0600 
    234 H234       -0.3182  -19.5235  -52.7327 H         1 UNK         0.0600 
    235 H235       -4.5221  -19.8254  -54.4841 H         1 UNK         0.3000 
    236 H236       -5.5351  -19.6151  -51.7435 H         1 UNK         0.0600 
    237 H237       -7.7392  -19.6454  -52.8985 H         1 UNK         0.0600 
    238 H238       -6.9416  -19.5783  -54.4668 H         1 UNK         0.0600 
    239 H239       -6.7272  -20.9808  -53.4238 H         1 UNK         0.0600 
    240 H240       -4.1770  -17.6564  -51.3901 H         1 UNK         0.3000 
    241 H241       -4.5370  -15.1840  -52.5986 H         1 UNK         0.0600 
    242 H242       -7.3190  -13.3964  -51.2887 H         1 UNK         0.3800 
    243 H243       -5.9085  -13.3411  -52.3060 H         1 UNK         0.3800 
    244 H244       -3.5583  -14.1957  -50.5400 H         1 UNK         0.0800 
    245 H245       -3.8735  -15.6594  -49.6502 H         1 UNK         0.0800 
    246 H246       -2.3243  -17.7831  -49.7194 H         1 UNK         0.0800 
    247 H247       -1.6961  -16.4205  -48.8322 H         1 UNK         0.0800 
@<TRIPOS>BOND
     1    1    2 1    
     2    1  127 1    
     3    1  128 1    
     4    1  129 1    
     5    2    3 2    
     6    2    4 am   BACKBONE|DICT|INTERRES
     7    4    5 1    
     8    4  130 1    
     9    5    6 1    
    10    5   65 1    
    11    5  131 1    
    12    6    7 1    
    13    6  132 1    
    14    6  133 1    
    15    7    8 1    
    16    8    9 1    
    17    8  134 1    
    18    8  135 1    
    19    9   10 ar   
    20    9   14 ar   
    21   10   11 ar   
    22   10  136 1    
    23   11   12 ar   
    24   11  126 1    
    25   12   13 ar   
    26   12  137 1    
    27   13   14 ar   
    28   13   15 1    
    29   14  138 1    
    30   15   16 1    
    31   15  139 1    
    32   15  140 1    
    33   16   17 1    
    34   17   18 1    
    35   17  141 1    
    36   17  142 1    
    37   18   19 1    
    38   18   67 1    
    39   18  143 1    
    40   19   20 am   BACKBONE|DICT|INTERRES
    41   19  144 1    
    42   20   21 2    
    43   20   22 1    
    44   22   23 1    
    45   22   24 1    
    46   22  145 1    
    47   23  146 1    
    48   23  147 1    
    49   23  148 1    
    50   24   25 am   BACKBONE|DICT|INTERRES
    51   24  149 1    
    52   25   26 2    
    53   25   27 1    
    54   27   28 1    
    55   27   29 1    
    56   27  150 1    
    57   28  151 1    
    58   28  152 1    
    59   28  153 1    
    60   29   30 am   BACKBONE|DICT|INTERRES
    61   29  154 1    
    62   30   31 2    
    63   30   32 1    
    64   32   33 1    
    65   32   34 1    
    66   32  155 1    
    67   33  156 1    
    68   33  157 1    
    69   33  158 1    
    70   34   35 am   BACKBONE|DICT|INTERRES
    71   34  159 1    
    72   35   36 2    
    73   35   37 1    
    74   37   38 1    
    75   37   39 1    
    76   37  160 1    
    77   38  161 1    
    78   38  162 1    
    79   38  163 1    
    80   39   40 am   BACKBONE|DICT|INTERRES
    81   39  164 1    
    82   40   41 2    
    83   40   42 1    
    84   42   43 1    
    85   42   44 1    
    86   42  165 1    
    87   43  166 1    
    88   43  167 1    
    89   43  168 1    
    90   44   45 am   BACKBONE|DICT|INTERRES
    91   44  169 1    
    92   45   46 2    
    93   45   47 1    
    94   47   48 1    
    95   47   49 1    
    96   47  170 1    
    97   48  171 1    
    98   48  172 1    
    99   48  173 1    
   100   49   50 am   BACKBONE|DICT|INTERRES
   101   49  174 1    
   102   50   51 2    
   103   50   52 1    
   104   52   53 1    
   105   52   54 1    
   106   52  175 1    
   107   53  176 1    
   108   53  177 1    
   109   53  178 1    
   110   54   55 am   BACKBONE|DICT|INTERRES
   111   54  179 1    
   112   55   56 2    
   113   55   57 1    
   114   57   58 1    
   115   57   59 1    
   116   57  180 1    
   117   58  181 1    
   118   58  182 1    
   119   58  183 1    
   120   59   60 am   BACKBONE|DICT|INTERRES
   121   59  184 1    
   122   60   61 2    
   123   60   62 1    
   124   62   63 1    
   125   62   64 1    
   126   62  185 1    
   127   63  186 1    
   128   63  187 1    
   129   63  188 1    
   130   64   65 am   BACKBONE|DICT|INTERRES
   131   64  189 1    
   132   65   66 2    
   133   67   68 2    
   134   67   69 am   BACKBONE|DICT|INTERRES
   135   69   70 1    
   136   69  190 1    
   137   70   71 1    
   138   70   72 1    
   139   70  191 1    
   140   71  192 1    
   141   71  193 1    
   142   71  194 1    
   143   72   73 2    
   144   72   74 am   BACKBONE|DICT|INTERRES
   145   74   75 1    
   146   74  195 1    
   147   75   76 1    
   148   75   77 1    
   149   75  196 1    
   150   76  197 1    
   151   76  198 1    
   152   76  199 1    
   153   77   78 2    
   154   77   79 am   BACKBONE|DICT|INTERRES
   155   79   80 1    
   156   79  200 1    
   157   80   81 1    
   158   80   82 1    
   159   80  201 1    
   160   81  202 1    
   161   81  203 1    
   162   81  204 1    
   163   82   83 2    
   164   82   84 am   BACKBONE|DICT|INTERRES
   165   84   85 1    
   166   84  205 1    
   167   85   86 1    
   168   85   87 1    
   169   85  206 1    
   170   86  207 1    
   171   86  208 1    
   172   86  209 1    
   173   87   88 2    
   174   87   89 am   BACKBONE|DICT|INTERRES
   175   89   90 1    
   176   89  210 1    
   177   90   91 1    
   178   90   92 1    
   179   90  211 1    
   180   91  212 1    
   181   91  213 1    
   182   91  214 1    
   183   92   93 2    
   184   92   94 am   BACKBONE|DICT|INTERRES
   185   94   95 1    
   186   94  215 1    
   187   95   96 1    
   188   95   97 1    
   189   95  216 1    
   190   96  217 1    
   191   96  218 1    
   192   96  219 1    
   193   97   98 2    
   194   97   99 am   BACKBONE|DICT|INTERRES
   195   99  100 1    
   196   99  220 1    
   197  100  101 1    
   198  100  102 1    
   199  100  221 1    
   200  101  222 1    
   201  101  223 1    
   202  101  224 1    
   203  102  103 2    
   204  102  104 am   BACKBONE|DICT|INTERRES
   205  104  105 1    
   206  104  225 1    
   207  105  106 1    
   208  105  107 1    
   209  105  226 1    
   210  106  227 1    
   211  106  228 1    
   212  106  229 1    
   213  107  108 2    
   214  107  109 am   BACKBONE|DICT|INTERRES
   215  109  110 1    
   216  109  230 1    
   217  110  111 1    
   218  110  112 1    
   219  110  231 1    
   220  111  232 1    
   221  111  233 1    
   222  111  234 1    
   223  112  113 2    
   224  112  114 am   BACKBONE|DICT|INTERRES
   225  114  115 1    
   226  114  235 1    
   227  115  116 1    
   228  115  117 1    
   229  115  236 1    
   230  116  237 1    
   231  116  238 1    
   232  116  239 1    
   233  117  118 2    
   234  117  119 am   BACKBONE|DICT|INTERRES
   235  119  120 1    
   236  119  240 1    
   237  120  121 1    
   238  120  124 1    
   239  120  241 1    
   240  121  122 am   BACKBONE|DICT|INTERRES
   241  121  123 2    
   242  122  242 1    
   243  122  243 1    
   244  124  125 1    
   245  124  244 1    
   246  124  245 1    
   247  125  126 1    
   248  126  246 1    
   249  126  247 1    
@<TRIPOS>SUBSTRUCTURE
     1 UNK         1 GROUP             0       ****    0 ROOT    
