@<TRIPOS>MOLECULE
3R540
247   249    1
SMALL
USER_CHARGES


@<TRIPOS>ATOM
      1 CA          6.3693  -12.0533  -48.2142 C.3       0 UNK        -0.1800 
      2 C           5.3060  -12.7791  -47.4031 C.2       0 UNK         0.5000 
      3 O           5.0963  -12.4525  -46.2368 O.2       0 UNK        -0.5000 
      4 N           4.6209  -13.7502  -48.0194 N.am      1 UNK        -0.5000 
      5 CA          3.5596  -14.5717  -47.4168 C.3       1 UNK         0.1400 
      6 C6          3.1522  -15.7393  -48.3534 C.3       23 UNK        -0.0398 
      7 S7          2.5807  -15.1798  -49.9997 S.3       23 UNK        -0.2404 
      8 C8          3.0110  -16.5971  -51.0611 C.3       23 UNK        -0.0205 
      9 C9          2.1057  -17.8002  -50.8316 C.ar      23 UNK        -0.0193 
     10 C10         0.7170  -17.6651  -50.9246 C.ar      23 UNK        -0.1150 
     11 C11        -0.1214  -18.7635  -50.7225 C.ar      23 UNK        -0.0193 
     12 C12         0.4408  -20.0111  -50.4395 C.ar      23 UNK        -0.1150 
     13 C13         1.8283  -20.1681  -50.3705 C.ar      23 UNK        -0.0193 
     14 C14         2.6556  -19.0572  -50.5615 C.ar      23 UNK        -0.1150 
     15 C15         2.4279  -21.5439  -50.1106 C.3       23 UNK        -0.0205 
     16 S16         3.2790  -21.6681  -48.5021 S.3       23 UNK        -0.2404 
     17 C17         1.9821  -21.1657  -47.3211 C.3       23 UNK        -0.0398 
     18 CA          1.2036  -22.3410  -46.6851 C.3       11 UNK         0.1400 
     19 N           0.4737  -21.9058  -45.4930 N.am      11 UNK        -0.5000 
     20 C          -0.1956  -22.7089  -44.6551 C.2       10 UNK         0.5000 
     21 O          -0.2192  -23.9356  -44.7533 O.2       10 UNK        -0.5000 
     22 CA         -1.0141  -22.0192  -43.5489 C.3       10 UNK         0.1400 
     23 CB         -0.1133  -21.6255  -42.3690 C.3       10 UNK        -0.1800 
     24 N          -1.7325  -20.8397  -44.0360 N.am      10 UNK        -0.5000 
     25 C          -2.7174  -20.8730  -44.9451 C.2       9 UNK         0.5000 
     26 O          -3.1605  -21.9139  -45.4299 O.2       9 UNK        -0.5000 
     27 CA         -3.2677  -19.5181  -45.4319 C.3       9 UNK         0.1400 
     28 CB         -4.2660  -18.9303  -44.4248 C.3       9 UNK        -0.1800 
     29 N          -2.2124  -18.5429  -45.7137 N.am      9 UNK        -0.5000 
     30 C          -1.2792  -18.7022  -46.6628 C.2       8 UNK         0.5000 
     31 O          -1.2320  -19.6727  -47.4150 O.2       8 UNK        -0.5000 
     32 CA         -0.1836  -17.6274  -46.7537 C.3       8 UNK         0.1400 
     33 CB         -0.6824  -16.4123  -47.5526 C.3       8 UNK        -0.1800 
     34 N           0.2954  -17.2139  -45.4317 N.am      8 UNK        -0.5000 
     35 C           0.9250  -18.0280  -44.5699 C.2       7 UNK         0.5000 
     36 O           1.2186  -19.1944  -44.8264 O.2       7 UNK        -0.5000 
     37 CA          1.2291  -17.4717  -43.1677 C.3       7 UNK         0.1400 
     38 CB          2.4574  -16.5501  -43.2004 C.3       7 UNK        -0.1800 
     39 N           0.0894  -16.7574  -42.5940 N.am      7 UNK        -0.5000 
     40 C          -1.0905  -17.3196  -42.2856 C.2       6 UNK         0.5000 
     41 O          -1.3093  -18.5269  -42.3693 O.2       6 UNK        -0.5000 
     42 CA         -2.2396  -16.3748  -41.8690 C.3       6 UNK         0.1400 
     43 CB         -2.2719  -16.2076  -40.3431 C.3       6 UNK        -0.1800 
     44 N          -2.1460  -15.0549  -42.4943 N.am      6 UNK        -0.5000 
     45 C          -2.1126  -14.8378  -43.8156 C.2       5 UNK         0.5000 
     46 O          -2.3840  -15.7089  -44.6428 O.2       5 UNK        -0.5000 
     47 CA         -1.6318  -13.4544  -44.3061 C.3       5 UNK         0.1400 
     48 CB         -2.7724  -12.7029  -45.0085 C.3       5 UNK        -0.1800 
     49 N          -1.0324  -12.5678  -43.2969 N.am      5 UNK        -0.5000 
     50 C           0.0120  -12.8301  -42.4959 C.2       4 UNK         0.5000 
     51 O           0.5616  -13.9289  -42.4170 O.2       4 UNK        -0.5000 
     52 CA          0.5318  -11.6350  -41.6745 C.3       4 UNK         0.1400 
     53 CB          1.3292  -12.0524  -40.4202 C.3       4 UNK        -0.1800 
     54 N           1.2950  -10.7378  -42.5467 N.am      4 UNK        -0.5000 
     55 C           2.4491  -11.0080  -43.1742 C.2       3 UNK         0.5000 
     56 O           3.1691  -11.9793  -42.9384 O.2       3 UNK        -0.5000 
     57 CA          2.8136  -10.0620  -44.3297 C.3       3 UNK         0.1400 
     58 CB          4.3059   -9.6908  -44.3320 C.3       3 UNK        -0.1800 
     59 N           2.4644  -10.7162  -45.5898 N.am      3 UNK        -0.5000 
     60 C           1.2103  -10.8401  -46.0516 C.2       2 UNK         0.5000 
     61 O           0.2369  -10.3094  -45.5144 O.2       2 UNK        -0.5000 
     62 CA          0.9885  -11.6887  -47.3184 C.3       2 UNK         0.1400 
     63 CB          0.7687  -10.7837  -48.5399 C.3       2 UNK        -0.1800 
     64 N           2.0884  -12.6072  -47.6070 N.am      2 UNK        -0.5000 
     65 C           2.3260  -13.7561  -46.9583 C.2       1 UNK         0.5000 
     66 O           1.6239  -14.1777  -46.0392 O.2       1 UNK        -0.5000 
     67 C           0.2666  -23.0332  -47.6965 C.2       11 UNK         0.5000 
     68 O           0.5870  -24.1233  -48.1692 O.2       11 UNK        -0.5000 
     69 N          -0.8931  -22.4184  -47.9715 N.am      12 UNK        -0.5000 
     70 CA         -1.9408  -22.9651  -48.8324 C.3       12 UNK         0.1400 
     71 CB         -3.0605  -21.9336  -49.0153 C.3       12 UNK        -0.1800 
     72 C          -2.5067  -24.2902  -48.3012 C.2       12 UNK         0.5000 
     73 O          -2.6309  -25.2386  -49.0729 O.2       12 UNK        -0.5000 
     74 N          -2.7855  -24.3539  -46.9915 N.am      13 UNK        -0.5000 
     75 CA         -3.2481  -25.5595  -46.3032 C.3       13 UNK         0.1400 
     76 CB         -3.6024  -25.2225  -44.8472 C.3       13 UNK        -0.1800 
     77 C          -2.2332  -26.7165  -46.3714 C.2       13 UNK         0.5000 
     78 O          -2.6316  -27.8527  -46.6291 O.2       13 UNK        -0.5000 
     79 N          -0.9425  -26.4039  -46.1864 N.am      14 UNK        -0.5000 
     80 CA          0.1688  -27.3491  -46.3154 C.3       14 UNK         0.1400 
     81 CB          1.4549  -26.7034  -45.7774 C.3       14 UNK        -0.1800 
     82 C           0.3687  -27.8474  -47.7603 C.2       14 UNK         0.5000 
     83 O           0.6409  -29.0313  -47.9627 O.2       14 UNK        -0.5000 
     84 N           0.2074  -26.9445  -48.7367 N.am      15 UNK        -0.5000 
     85 CA          0.2836  -27.2317  -50.1713 C.3       15 UNK         0.1400 
     86 CB          0.4947  -25.9088  -50.9264 C.3       15 UNK        -0.1800 
     87 C          -0.9538  -27.9680  -50.7267 C.2       15 UNK         0.5000 
     88 O          -0.8877  -28.4858  -51.8424 O.2       15 UNK        -0.5000 
     89 N          -2.0539  -27.9778  -49.9593 N.am      16 UNK        -0.5000 
     90 CA         -3.3976  -28.4436  -50.3189 C.3       16 UNK         0.1400 
     91 CB         -3.4127  -29.9626  -50.5898 C.3       16 UNK        -0.1800 
     92 C          -4.0175  -27.6059  -51.4598 C.2       16 UNK         0.5000 
     93 O          -4.6666  -28.1498  -52.3556 O.2       16 UNK        -0.5000 
     94 N          -3.7934  -26.2895  -51.3979 N.am      17 UNK        -0.5000 
     95 CA         -4.2950  -25.2791  -52.3223 C.3       17 UNK         0.1400 
     96 CB         -3.1087  -24.4041  -52.7626 C.3       17 UNK        -0.1800 
     97 C          -5.3586  -24.4135  -51.6272 C.2       17 UNK         0.5000 
     98 O          -5.4413  -24.3932  -50.3965 O.2       17 UNK        -0.5000 
     99 N          -6.1398  -23.6827  -52.4295 N.am      18 UNK        -0.5000 
    100 CA        -7.0623  -22.6579  -51.9492 C.3       18 UNK         0.1400 
    101 CB        -8.1730  -22.4440  -52.9900 C.3       18 UNK        -0.1800 
    102 C         -6.2877  -21.3535  -51.7073 C.2       18 UNK         0.5000 
    103 O         -5.6551  -20.8496  -52.6376 O.2       18 UNK        -0.5000 
    104 N         -6.3735  -20.8096  -50.4858 N.am      19 UNK        -0.5000 
    105 CA        -5.6960  -19.5721  -50.0789 C.3       19 UNK         0.1400 
    106 CB        -5.9300  -19.3317  -48.5801 C.3       19 UNK        -0.1800 
    107 C         -6.1206  -18.3407  -50.9028 C.2       19 UNK         0.5000 
    108 O         -5.3008  -17.4590  -51.1576 O.2       19 UNK        -0.5000 
    109 N         -7.3855  -18.3299  -51.3434 N.am      20 UNK        -0.5000 
    110 CA        -7.9628  -17.3034  -52.2095 C.3       20 UNK         0.1400 
    111 CB        -9.4899  -17.4736  -52.2247 C.3       20 UNK        -0.1800 
    112 C         -7.4068  -17.3170  -53.6480 C.2       20 UNK         0.5000 
    113 O         -7.4904  -16.2913  -54.3247 O.2       20 UNK        -0.5000 
    114 N         -6.8656  -18.4591  -54.0996 N.am      21 UNK        -0.5000 
    115 CA        -6.2742  -18.6048  -55.4290 C.3       21 UNK         0.1400 
    116 CB        -6.3201  -20.0770  -55.8691 C.3       21 UNK        -0.1800 
    117 C         -4.8385  -18.0576  -55.4671 C.2       21 UNK         0.5000 
    118 O         -4.5001  -17.3163  -56.3912 O.2       21 UNK        -0.5000 
    119 N         -4.0259  -18.4245  -54.4674 N.am      22 UNK        -0.5000 
    120 CA        -2.6406  -17.9488  -54.3184 C.3       22 UNK         0.1400 
    121 C         -2.5085  -16.5310  -53.6936 C.2       22 UNK         0.5000 
    122 N         -3.4568  -16.0603  -52.8934 N.am      22 UNK        -0.7600 
    123 O         -1.5310  -15.8359  -53.9556 O.2       22 UNK        -0.5000 
    124 C124       -1.7265  -18.9843  -53.6138 C.3       23 UNK        -0.0398 
    125 S125       -2.3999  -19.6636  -52.0589 S.3       23 UNK        -0.2404 
    126 C126       -1.6320  -18.5938  -50.8000 C.3       23 UNK        -0.0205 
    127 H127        6.1409  -10.9886  -48.2638 H         1 UNK         0.0600 
    128 H128        6.4336  -12.4357  -49.2332 H         1 UNK         0.0600 
    129 H129        7.3452  -12.1722  -47.7436 H         1 UNK         0.0600 
    130 H130        4.8247  -13.9588  -48.9869 H         1 UNK         0.3000 
    131 H131        3.9808  -15.0138  -46.5113 H         1 UNK         0.0600 
    132 H132        4.0076  -16.4026  -48.4876 H         1 UNK         0.0800 
    133 H133        2.3776  -16.3554  -47.8959 H         1 UNK         0.0800 
    134 H134        2.9182  -16.2910  -52.1039 H         1 UNK         0.0800 
    135 H135        4.0599  -16.8571  -50.9104 H         1 UNK         0.0800 
    136 H136        0.2895  -16.6976  -51.1486 H         1 UNK         0.1150 
    137 H137       -0.2079  -20.8612  -50.2855 H         1 UNK         0.1150 
    138 H138        3.7284  -19.1775  -50.5050 H         1 UNK         0.1150 
    139 H139        1.6619  -22.3180  -50.1733 H         1 UNK         0.0800 
    140 H140        3.1447  -21.7701  -50.9010 H         1 UNK         0.0800 
    141 H141        1.3053  -20.4393  -47.7684 H         1 UNK         0.0800 
    142 H142        2.5078  -20.6218  -46.5363 H         1 UNK         0.0800 
    143 H143        1.9296  -23.0853  -46.3511 H         1 UNK         0.0600 
    144 H144        0.4818  -20.9074  -45.3037 H         1 UNK         0.3000 
    145 H145       -1.7538  -22.7360  -43.1869 H         1 UNK         0.0600 
    146 H146        0.4260  -22.4912  -41.9827 H         1 UNK         0.0600 
    147 H147        0.6262  -20.8780  -42.6579 H         1 UNK         0.0600 
    148 H148       -0.6996  -21.2138  -41.5473 H         1 UNK         0.0600 
    149 H149       -1.4593  -19.9450  -43.6381 H         1 UNK         0.3000 
    150 H150       -3.8009  -19.6979  -46.3670 H         1 UNK         0.0600 
    151 H151       -5.1093  -19.6058  -44.2765 H         1 UNK         0.0600 
    152 H152       -4.6673  -17.9787  -44.7744 H         1 UNK         0.0600 
    153 H153       -3.8065  -18.7643  -43.4512 H         1 UNK         0.0600 
    154 H154       -2.2018  -17.6923  -45.1607 H         1 UNK         0.3000 
    155 H155        0.6597  -18.0614  -47.2949 H         1 UNK         0.0600 
    156 H156        0.1009  -15.6689  -47.6857 H         1 UNK         0.0600 
    157 H157       -1.0085  -16.7118  -48.5486 H         1 UNK         0.0600 
    158 H158       -1.5275  -15.9225  -47.0708 H         1 UNK         0.0600 
    159 H159        0.0810  -16.2699  -45.1443 H         1 UNK         0.3000 
    160 H160        1.4563  -18.3175  -42.5153 H         1 UNK         0.0600 
    161 H161        2.2837  -15.6671  -43.8166 H         1 UNK         0.0600 
    162 H162        3.3260  -17.0695  -43.6068 H         1 UNK         0.0600 
    163 H163        2.7197  -16.2084  -42.1991 H         1 UNK         0.0600 
    164 H164        0.1954  -15.7492  -42.4978 H         1 UNK         0.3000 
    165 H165       -3.1796  -16.8287  -42.1867 H         1 UNK         0.0600 
    166 H166       -3.1219  -15.6011  -40.0300 H         1 UNK         0.0600 
    167 H167       -2.3633  -17.1748  -39.8469 H         1 UNK         0.0600 
    168 H168       -1.3633  -15.7319  -39.9715 H         1 UNK         0.0600 
    169 H169       -1.8966  -14.2875  -41.8887 H         1 UNK         0.3000 
    170 H170       -0.8562  -13.6504  -45.0483 H         1 UNK         0.0600 
    171 H171       -3.2173  -13.3107  -45.7978 H         1 UNK         0.0600 
    172 H172       -3.5669  -12.4374  -44.3102 H         1 UNK         0.0600 
    173 H173       -2.4117  -11.7855  -45.4747 H         1 UNK         0.0600 
    174 H174       -1.3970  -11.6261  -43.2917 H         1 UNK         0.3000 
    175 H175       -0.3374  -11.0722  -41.3303 H         1 UNK         0.0600 
    176 H176        2.1870  -12.6810  -40.6595 H         1 UNK         0.0600 
    177 H177        1.6941  -11.1805  -39.8777 H         1 UNK         0.0600 
    178 H178        0.6977  -12.6208  -39.7367 H         1 UNK         0.0600 
    179 H179        0.7840   -9.9252  -42.8642 H         1 UNK         0.3000 
    180 H180        2.2419   -9.1360  -44.2358 H         1 UNK         0.0600 
    181 H181        4.9471  -10.5700  -44.3952 H         1 UNK         0.0600 
    182 H182        4.5725   -9.1592  -43.4180 H         1 UNK         0.0600 
    183 H183        4.5490   -9.0390  -45.1713 H         1 UNK         0.0600 
    184 H184        3.2039  -11.2448  -46.0357 H         1 UNK         0.3000 
    185 H185        0.0809  -12.2760  -47.1624 H         1 UNK         0.0600 
    186 H186       -0.0694  -10.1045  -48.3779 H         1 UNK         0.0600 
    187 H187        1.6483  -10.1751  -48.7534 H         1 UNK         0.0600 
    188 H188        0.5414  -11.3710  -49.4299 H         1 UNK         0.0600 
    189 H189        2.7132  -12.3480  -48.3564 H         1 UNK         0.3000 
    190 H190       -1.0682  -21.4954  -47.5790 H         1 UNK         0.3000 
    191 H191       -1.4937  -23.1572  -49.8094 H         1 UNK         0.0600 
    192 H192       -2.6669  -20.9979  -49.4033 H         1 UNK         0.0600 
    193 H193       -3.5711  -21.7156  -48.0779 H         1 UNK         0.0600 
    194 H194       -3.8080  -22.2899  -49.7240 H         1 UNK         0.0600 
    195 H195       -2.6952  -23.5118  -46.4297 H         1 UNK         0.3000 
    196 H196       -4.1598  -25.8913  -46.8043 H         1 UNK         0.0600 
    197 H197       -3.9794  -26.1018  -44.3236 H         1 UNK         0.0600 
    198 H198       -4.3769  -24.4570  -44.7977 H         1 UNK         0.0600 
    199 H199       -2.7367  -24.8573  -44.2949 H         1 UNK         0.0600 
    200 H200       -0.7022  -25.4498  -45.9330 H         1 UNK         0.3000 
    201 H201       -0.0579  -28.2181  -45.6942 H         1 UNK         0.0600 
    202 H202        1.3440  -26.4181  -44.7311 H         1 UNK         0.0600 
    203 H203        1.7232  -25.8087  -46.3398 H         1 UNK         0.0600 
    204 H204        2.2955  -27.3955  -45.8393 H         1 UNK         0.0600 
    205 H205        0.0549  -25.9728  -48.4798 H         1 UNK         0.3000 
    206 H206        1.1519  -27.8690  -50.3500 H         1 UNK         0.0600 
    207 H207        1.3988  -25.4011  -50.5897 H         1 UNK         0.0600 
    208 H208        0.5982  -26.0796  -51.9986 H         1 UNK         0.0600 
    209 H209       -0.3448  -25.2276  -50.7827 H         1 UNK         0.0600 
    210 H210       -1.9983  -27.4712  -49.0850 H         1 UNK         0.3000 
    211 H211       -4.0197  -28.2627  -49.4411 H         1 UNK         0.0600 
    212 H212       -2.8691  -30.2211  -51.4987 H         1 UNK         0.0600 
    213 H213       -4.4341  -30.3260  -50.7077 H         1 UNK         0.0600 
    214 H214       -2.9660  -30.5140  -49.7625 H         1 UNK         0.0600 
    215 H215       -3.3271  -25.9222  -50.5686 H         1 UNK         0.3000 
    216 H216       -4.7417  -25.7472  -53.2018 H         1 UNK         0.0600 
    217 H217       -2.3352  -25.0033  -53.2435 H         1 UNK         0.0600 
    218 H218       -2.6527  -23.8896  -51.9158 H         1 UNK         0.0600 
    219 H219       -3.4220  -23.6423  -53.4776 H         1 UNK         0.0600 
    220 H220       -5.9854  -23.7100  -53.4270 H         1 UNK         0.3000 
    221 H221       -7.5276  -22.9863  -51.0172 H         1 UNK         0.0600 
    222 H222       -7.7708  -22.1330  -53.9549 H         1 UNK         0.0600 
    223 H223       -8.7458  -23.3582  -53.1464 H         1 UNK         0.0600 
    224 H224       -8.8727  -21.6740  -52.6625 H         1 UNK         0.0600 
    225 H225       -6.9098  -21.2842  -49.7738 H         1 UNK         0.3000 
    226 H226       -4.6268  -19.7151  -50.2323 H         1 UNK         0.0600 
    227 H227       -5.5909  -20.1805  -47.9867 H         1 UNK         0.0600 
    228 H228       -5.3803  -18.4544  -48.2360 H         1 UNK         0.0600 
    229 H229       -6.9851  -19.1678  -48.3579 H         1 UNK         0.0600 
    230 H230       -7.9869  -19.0989  -51.0878 H         1 UNK         0.3000 
    231 H231       -7.7314  -16.3269  -51.7787 H         1 UNK         0.0600 
    232 H232       -9.9632  -16.7048  -52.8371 H         1 UNK         0.0600 
    233 H233       -9.9070  -17.3889  -51.2210 H         1 UNK         0.0600 
    234 H234       -9.7825  -18.4428  -52.6308 H         1 UNK         0.0600 
    235 H235       -6.7698  -19.2484  -53.4725 H         1 UNK         0.3000 
    236 H236       -6.8699  -18.0334  -56.1444 H         1 UNK         0.0600 
    237 H237       -7.3397  -20.4616  -55.8526 H         1 UNK         0.0600 
    238 H238       -5.9484  -20.1865  -56.8885 H         1 UNK         0.0600 
    239 H239       -5.7087  -20.7157  -55.2320 H         1 UNK         0.0600 
    240 H240       -4.3698  -19.0399  -53.7413 H         1 UNK         0.3000 
    241 H241       -2.2309  -17.8446  -55.3253 H         1 UNK         0.0600 
    242 H242       -4.2122  -16.6518  -52.5621 H         1 UNK         0.3800 
    243 H243       -3.3582  -15.1334  -52.5131 H         1 UNK         0.3800 
    244 H244       -1.5795  -19.8317  -54.2844 H         1 UNK         0.0800 
    245 H245       -0.7274  -18.5787  -53.4467 H         1 UNK         0.0800 
    246 H246       -1.8989  -17.5560  -51.0000 H         1 UNK         0.0800 
    247 H247       -2.0625  -18.8257  -49.8267 H         1 UNK         0.0800 
@<TRIPOS>BOND
     1    1    2 1    
     2    1  127 1    
     3    1  128 1    
     4    1  129 1    
     5    2    3 2    
     6    2    4 am   BACKBONE|DICT|INTERRES
     7    4    5 1    
     8    4  130 1    
     9    5    6 1    
    10    5   65 1    
    11    5  131 1    
    12    6    7 1    
    13    6  132 1    
    14    6  133 1    
    15    7    8 1    
    16    8    9 1    
    17    8  134 1    
    18    8  135 1    
    19    9   10 ar   
    20    9   14 ar   
    21   10   11 ar   
    22   10  136 1    
    23   11   12 ar   
    24   11  126 1    
    25   12   13 ar   
    26   12  137 1    
    27   13   14 ar   
    28   13   15 1    
    29   14  138 1    
    30   15   16 1    
    31   15  139 1    
    32   15  140 1    
    33   16   17 1    
    34   17   18 1    
    35   17  141 1    
    36   17  142 1    
    37   18   19 1    
    38   18   67 1    
    39   18  143 1    
    40   19   20 am   BACKBONE|DICT|INTERRES
    41   19  144 1    
    42   20   21 2    
    43   20   22 1    
    44   22   23 1    
    45   22   24 1    
    46   22  145 1    
    47   23  146 1    
    48   23  147 1    
    49   23  148 1    
    50   24   25 am   BACKBONE|DICT|INTERRES
    51   24  149 1    
    52   25   26 2    
    53   25   27 1    
    54   27   28 1    
    55   27   29 1    
    56   27  150 1    
    57   28  151 1    
    58   28  152 1    
    59   28  153 1    
    60   29   30 am   BACKBONE|DICT|INTERRES
    61   29  154 1    
    62   30   31 2    
    63   30   32 1    
    64   32   33 1    
    65   32   34 1    
    66   32  155 1    
    67   33  156 1    
    68   33  157 1    
    69   33  158 1    
    70   34   35 am   BACKBONE|DICT|INTERRES
    71   34  159 1    
    72   35   36 2    
    73   35   37 1    
    74   37   38 1    
    75   37   39 1    
    76   37  160 1    
    77   38  161 1    
    78   38  162 1    
    79   38  163 1    
    80   39   40 am   BACKBONE|DICT|INTERRES
    81   39  164 1    
    82   40   41 2    
    83   40   42 1    
    84   42   43 1    
    85   42   44 1    
    86   42  165 1    
    87   43  166 1    
    88   43  167 1    
    89   43  168 1    
    90   44   45 am   BACKBONE|DICT|INTERRES
    91   44  169 1    
    92   45   46 2    
    93   45   47 1    
    94   47   48 1    
    95   47   49 1    
    96   47  170 1    
    97   48  171 1    
    98   48  172 1    
    99   48  173 1    
   100   49   50 am   BACKBONE|DICT|INTERRES
   101   49  174 1    
   102   50   51 2    
   103   50   52 1    
   104   52   53 1    
   105   52   54 1    
   106   52  175 1    
   107   53  176 1    
   108   53  177 1    
   109   53  178 1    
   110   54   55 am   BACKBONE|DICT|INTERRES
   111   54  179 1    
   112   55   56 2    
   113   55   57 1    
   114   57   58 1    
   115   57   59 1    
   116   57  180 1    
   117   58  181 1    
   118   58  182 1    
   119   58  183 1    
   120   59   60 am   BACKBONE|DICT|INTERRES
   121   59  184 1    
   122   60   61 2    
   123   60   62 1    
   124   62   63 1    
   125   62   64 1    
   126   62  185 1    
   127   63  186 1    
   128   63  187 1    
   129   63  188 1    
   130   64   65 am   BACKBONE|DICT|INTERRES
   131   64  189 1    
   132   65   66 2    
   133   67   68 2    
   134   67   69 am   BACKBONE|DICT|INTERRES
   135   69   70 1    
   136   69  190 1    
   137   70   71 1    
   138   70   72 1    
   139   70  191 1    
   140   71  192 1    
   141   71  193 1    
   142   71  194 1    
   143   72   73 2    
   144   72   74 am   BACKBONE|DICT|INTERRES
   145   74   75 1    
   146   74  195 1    
   147   75   76 1    
   148   75   77 1    
   149   75  196 1    
   150   76  197 1    
   151   76  198 1    
   152   76  199 1    
   153   77   78 2    
   154   77   79 am   BACKBONE|DICT|INTERRES
   155   79   80 1    
   156   79  200 1    
   157   80   81 1    
   158   80   82 1    
   159   80  201 1    
   160   81  202 1    
   161   81  203 1    
   162   81  204 1    
   163   82   83 2    
   164   82   84 am   BACKBONE|DICT|INTERRES
   165   84   85 1    
   166   84  205 1    
   167   85   86 1    
   168   85   87 1    
   169   85  206 1    
   170   86  207 1    
   171   86  208 1    
   172   86  209 1    
   173   87   88 2    
   174   87   89 am   BACKBONE|DICT|INTERRES
   175   89   90 1    
   176   89  210 1    
   177   90   91 1    
   178   90   92 1    
   179   90  211 1    
   180   91  212 1    
   181   91  213 1    
   182   91  214 1    
   183   92   93 2    
   184   92   94 am   BACKBONE|DICT|INTERRES
   185   94   95 1    
   186   94  215 1    
   187   95   96 1    
   188   95   97 1    
   189   95  216 1    
   190   96  217 1    
   191   96  218 1    
   192   96  219 1    
   193   97   98 2    
   194   97   99 am   BACKBONE|DICT|INTERRES
   195   99  100 1    
   196   99  220 1    
   197  100  101 1    
   198  100  102 1    
   199  100  221 1    
   200  101  222 1    
   201  101  223 1    
   202  101  224 1    
   203  102  103 2    
   204  102  104 am   BACKBONE|DICT|INTERRES
   205  104  105 1    
   206  104  225 1    
   207  105  106 1    
   208  105  107 1    
   209  105  226 1    
   210  106  227 1    
   211  106  228 1    
   212  106  229 1    
   213  107  108 2    
   214  107  109 am   BACKBONE|DICT|INTERRES
   215  109  110 1    
   216  109  230 1    
   217  110  111 1    
   218  110  112 1    
   219  110  231 1    
   220  111  232 1    
   221  111  233 1    
   222  111  234 1    
   223  112  113 2    
   224  112  114 am   BACKBONE|DICT|INTERRES
   225  114  115 1    
   226  114  235 1    
   227  115  116 1    
   228  115  117 1    
   229  115  236 1    
   230  116  237 1    
   231  116  238 1    
   232  116  239 1    
   233  117  118 2    
   234  117  119 am   BACKBONE|DICT|INTERRES
   235  119  120 1    
   236  119  240 1    
   237  120  121 1    
   238  120  124 1    
   239  120  241 1    
   240  121  122 am   BACKBONE|DICT|INTERRES
   241  121  123 2    
   242  122  242 1    
   243  122  243 1    
   244  124  125 1    
   245  124  244 1    
   246  124  245 1    
   247  125  126 1    
   248  126  246 1    
   249  126  247 1    
@<TRIPOS>SUBSTRUCTURE
     1 UNK         1 GROUP             0       ****    0 ROOT    
