@<TRIPOS>MOLECULE
3R540
247   249    1
SMALL
USER_CHARGES


@<TRIPOS>ATOM
      1 CA         -4.7686  -14.8641  -53.4041 C.3       0 UNK        -0.1800 
      2 C          -4.0430  -14.7957  -52.0676 C.2       0 UNK         0.5000 
      3 O          -2.8737  -15.1677  -51.9846 O.2       0 UNK        -0.5000 
      4 N          -4.7253  -14.3176  -51.0206 N.am      1 UNK        -0.5000 
      5 CA         -4.1642  -14.1017  -49.6856 C.3       1 UNK         0.1400 
      6 C6         -5.2700  -13.9137  -48.6156 C.3       23 UNK        -0.0398 
      7 S7         -6.2519  -15.4247  -48.3215 S.3       23 UNK        -0.2404 
      8 C8         -5.7641  -15.8685  -46.6209 C.3       23 UNK        -0.0205 
      9 C9         -4.4933  -16.7041  -46.5973 C.ar      23 UNK        -0.0193 
     10 C10        -3.2389  -16.0946  -46.6933 C.ar      23 UNK        -0.1150 
     11 C11        -2.0749  -16.8676  -46.7128 C.ar      23 UNK        -0.0193 
     12 C12        -2.1705  -18.2580  -46.6157 C.ar      23 UNK        -0.1150 
     13 C13        -3.4152  -18.8763  -46.4871 C.ar      23 UNK        -0.0193 
     14 C14        -4.5735  -18.0948  -46.4792 C.ar      23 UNK        -0.1150 
     15 C15        -3.5038  -20.3886  -46.3802 C.3       23 UNK        -0.0205 
     16 S16        -3.1320  -20.9641  -44.6946 S.3       23 UNK        -0.2404 
     17 C17        -3.3263  -22.7582  -44.9363 C.3       23 UNK        -0.0398 
     18 CA         -2.0083  -23.4327  -45.3844 C.3       11 UNK         0.1400 
     19 N          -0.9953  -23.4417  -44.3165 N.am      11 UNK        -0.5000 
     20 C           0.2683  -23.8747  -44.4439 C.2       10 UNK         0.5000 
     21 O           0.6992  -24.4118  -45.4655 O.2       10 UNK        -0.5000 
     22 CA          1.1892  -23.6925  -43.2255 C.3       10 UNK         0.1400 
     23 CB          2.6824  -23.8530  -43.5725 C.3       10 UNK        -0.1800 
     24 N           0.9745  -22.3919  -42.5910 N.am      10 UNK        -0.5000 
     25 C           1.0803  -22.1596  -41.2745 C.2       9 UNK         0.5000 
     26 O           1.2593  -23.0554  -40.4477 O.2       9 UNK        -0.5000 
     27 CA          1.0021  -20.6993  -40.7806 C.3       9 UNK         0.1400 
     28 CB          2.2575  -20.3287  -39.9724 C.3       9 UNK        -0.1800 
     29 N           0.8655  -19.7430  -41.8782 N.am      9 UNK        -0.5000 
     30 C          -0.2922  -19.2129  -42.2957 C.2       8 UNK         0.5000 
     31 O          -1.3743  -19.4272  -41.7491 O.2       8 UNK        -0.5000 
     32 CA         -0.2411  -18.2998  -43.5396 C.3       8 UNK         0.1400 
     33 CB         -0.2325  -16.8235  -43.1141 C.3       8 UNK        -0.1800 
     34 N           0.9088  -18.5495  -44.4164 N.am      8 UNK        -0.5000 
     35 C           1.1667  -19.7140  -45.0333 C.2       7 UNK         0.5000 
     36 O           0.4011  -20.6736  -45.0021 O.2       7 UNK        -0.5000 
     37 CA          2.5257  -19.8758  -45.7454 C.3       7 UNK         0.1400 
     38 CB          2.3581  -19.7482  -47.2659 C.3       7 UNK        -0.1800 
     39 N           3.5545  -18.9319  -45.3088 N.am      7 UNK        -0.5000 
     40 C           3.9977  -18.7522  -44.0561 C.2       6 UNK         0.5000 
     41 O           3.6417  -19.4426  -43.1005 O.2       6 UNK        -0.5000 
     42 CA          4.9461  -17.5571  -43.8270 C.3       6 UNK         0.1400 
     43 CB          6.3973  -18.0420  -43.6933 C.3       6 UNK        -0.1800 
     44 N           4.8773  -16.5335  -44.8796 N.am      6 UNK        -0.5000 
     45 C           3.7949  -15.8013  -45.1808 C.2       5 UNK         0.5000 
     46 O           2.7090  -15.9140  -44.6067 O.2       5 UNK        -0.5000 
     47 CA          3.9315  -14.8561  -46.3876 C.3       5 UNK         0.1400 
     48 CB          3.4201  -15.5499  -47.6596 C.3       5 UNK        -0.1800 
     49 N           3.1932  -13.6094  -46.1972 N.am      5 UNK        -0.5000 
     50 C           3.5492  -12.6370  -45.3472 C.2       4 UNK         0.5000 
     51 O           4.5564  -12.6868  -44.6392 O.2       4 UNK        -0.5000 
     52 CA          2.6566  -11.3815  -45.2957 C.3       4 UNK         0.1400 
     53 CB          3.3030  -10.2335  -46.0867 C.3       4 UNK        -0.1800 
     54 N           1.3036  -11.5963  -45.8110 N.am      4 UNK        -0.5000 
     55 C           0.3240  -12.2370  -45.1654 C.2       3 UNK         0.5000 
     56 O           0.4675  -12.7546  -44.0581 O.2       3 UNK        -0.5000 
     57 CA         -1.0499  -12.3208  -45.8604 C.3       3 UNK         0.1400 
     58 CB         -1.9359  -11.1214  -45.4756 C.3       3 UNK        -0.1800 
     59 N          -1.0165  -12.5030  -47.3199 N.am      3 UNK        -0.5000 
     60 C          -0.6121  -11.6615  -48.2853 C.2       2 UNK         0.5000 
     61 O          -0.0661  -10.5793  -48.0707 O.2       2 UNK        -0.5000 
     62 CA         -0.8622  -12.1078  -49.7414 C.3       2 UNK         0.1400 
     63 CB          0.4324  -12.6325  -50.3832 C.3       2 UNK        -0.1800 
     64 N          -1.9096  -13.1300  -49.8433 N.am      2 UNK        -0.5000 
     65 C          -3.2195  -12.8818  -49.7097 C.2       1 UNK         0.5000 
     66 O          -3.6890  -11.7472  -49.6022 O.2       1 UNK        -0.5000 
     67 C          -2.3046  -24.8201  -45.9931 C.2       11 UNK         0.5000 
     68 O          -2.7401  -24.8881  -47.1436 O.2       11 UNK        -0.5000 
     69 N          -2.0248  -25.8990  -45.2482 N.am      12 UNK        -0.5000 
     70 CA         -2.1010  -27.2863  -45.7100 C.3       12 UNK         0.1400 
     71 CB         -1.7856  -28.2242  -44.5358 C.3       12 UNK        -0.1800 
     72 C          -1.1787  -27.5928  -46.9085 C.2       12 UNK         0.5000 
     73 O          -1.5300  -28.4377  -47.7319 O.2       12 UNK        -0.5000 
     74 N          -0.0531  -26.8703  -47.0285 N.am      13 UNK        -0.5000 
     75 CA          0.8681  -26.9561  -48.1670 C.3       13 UNK         0.1400 
     76 CB          2.1793  -26.2371  -47.8150 C.3       13 UNK        -0.1800 
     77 C           0.2727  -26.3838  -49.4703 C.2       13 UNK         0.5000 
     78 O           0.6974  -26.7808  -50.5555 O.2       13 UNK        -0.5000 
     79 N          -0.7141  -25.4881  -49.3381 N.am      14 UNK        -0.5000 
     80 CA         -1.5007  -24.9119  -50.4282 C.3       14 UNK         0.1400 
     81 CB         -1.6285  -23.3978  -50.1855 C.3       14 UNK        -0.1800 
     82 C          -2.8901  -25.5734  -50.5325 C.2       14 UNK         0.5000 
     83 O          -3.7670  -25.0254  -51.2016 O.2       14 UNK        -0.5000 
     84 N          -3.0942  -26.7017  -49.8304 N.am      15 UNK        -0.5000 
     85 CA         -4.3395  -27.4737  -49.7151 C.3       15 UNK         0.1400 
     86 CB         -4.6624  -28.1643  -51.0560 C.3       15 UNK        -0.1800 
     87 C          -5.5322  -26.6533  -49.1719 C.2       15 UNK         0.5000 
     88 O          -6.6836  -26.9713  -49.4728 O.2       15 UNK        -0.5000 
     89 N          -5.2270  -25.5907  -48.4106 N.am      16 UNK        -0.5000 
     90 CA         -6.1295  -24.5529  -47.9042 C.3       16 UNK         0.1400 
     91 CB         -7.1236  -25.1403  -46.8818 C.3       16 UNK        -0.1800 
     92 C          -6.8263  -23.7166  -49.0034 C.2       16 UNK         0.5000 
     93 O          -7.7844  -23.0051  -48.6972 O.2       16 UNK        -0.5000 
     94 N          -6.3403  -23.7878  -50.2529 N.am      17 UNK        -0.5000 
     95 CA         -6.8832  -23.0379  -51.3874 C.3       17 UNK         0.1400 
     96 CB         -6.4849  -23.7306  -52.7000 C.3       17 UNK        -0.1800 
     97 C          -6.4182  -21.5718  -51.3886 C.2       17 UNK         0.5000 
     98 O          -7.1895  -20.6967  -51.7827 O.2       17 UNK        -0.5000 
     99 N          -5.1711  -21.3432  -50.9432 N.am      18 UNK        -0.5000 
    100 CA        -4.4963  -20.0441  -50.8154 C.3       18 UNK         0.1400 
    101 CB        -5.1433  -19.2162  -49.6876 C.3       18 UNK        -0.1800 
    102 C         -4.4133  -19.2609  -52.1444 C.2       18 UNK         0.5000 
    103 O         -4.5747  -18.0416  -52.1534 O.2       18 UNK        -0.5000 
    104 N         -4.2002  -19.9828  -53.2516 N.am      19 UNK        -0.5000 
    105 CA        -4.2014  -19.4413  -54.6088 C.3       19 UNK         0.1400 
    106 CB        -4.2487  -20.6124  -55.6019 C.3       19 UNK        -0.1800 
    107 C         -2.9851  -18.5429  -54.9004 C.2       19 UNK         0.5000 
    108 O         -1.8847  -18.8272  -54.4190 O.2       19 UNK        -0.5000 
    109 N         -3.2112  -17.5163  -55.7330 N.am      20 UNK        -0.5000 
    110 CA        -2.2597  -16.5652  -56.3257 C.3       20 UNK         0.1400 
    111 CB        -1.2911  -17.2863  -57.2836 C.3       20 UNK        -0.1800 
    112 C         -1.4927  -15.6781  -55.3247 C.2       20 UNK         0.5000 
    113 O         -1.5849  -14.4526  -55.4045 O.2       20 UNK        -0.5000 
    114 N         -0.7394  -16.3111  -54.4256 N.am      21 UNK        -0.5000 
    115 CA         0.0932  -15.6977  -53.4020 C.3       21 UNK         0.1400 
    116 CB         1.4165  -15.1998  -54.0168 C.3       21 UNK        -0.1800 
    117 C          0.2933  -16.7316  -52.2855 C.2       21 UNK         0.5000 
    118 O          1.3878  -17.2775  -52.1361 O.2       21 UNK        -0.5000 
    119 N         -0.7902  -17.0023  -51.5484 N.am      22 UNK        -0.5000 
    120 CA        -0.8516  -17.9128  -50.3911 C.3       22 UNK         0.1400 
    121 C         -0.6731  -19.4261  -50.7258 C.2       22 UNK         0.5000 
    122 N         -0.8490  -19.8715  -51.9632 N.am      22 UNK        -0.7600 
    123 O         -0.4063  -20.2297  -49.8381 O.2       22 UNK        -0.5000 
    124 C124        0.0781  -17.4636  -49.2285 C.3       23 UNK        -0.0398 
    125 S125       -0.3372  -15.8118  -48.5770 S.3       23 UNK        -0.2404 
    126 C126       -0.7179  -16.1984  -46.8441 C.3       23 UNK        -0.0205 
    127 H127       -5.8064  -14.5414  -53.3195 H         1 UNK         0.0600 
    128 H128       -4.7600  -15.8851  -53.7836 H         1 UNK         0.0600 
    129 H129       -4.2693  -14.2257  -54.1329 H         1 UNK         0.0600 
    130 H130       -5.6844  -14.0277  -51.1436 H         1 UNK         0.3000 
    131 H131       -3.5782  -14.9823  -49.4116 H         1 UNK         0.0600 
    132 H132       -5.9583  -13.1212  -48.9146 H         1 UNK         0.0800 
    133 H133       -4.8376  -13.5806  -47.6710 H         1 UNK         0.0800 
    134 H134       -6.5824  -16.4287  -46.1661 H         1 UNK         0.0800 
    135 H135       -5.6426  -14.9741  -46.0084 H         1 UNK         0.0800 
    136 H136       -3.1677  -15.0200  -46.7684 H         1 UNK         0.1150 
    137 H137       -1.2776  -18.8665  -46.6253 H         1 UNK         0.1150 
    138 H138       -5.5402  -18.5711  -46.3957 H         1 UNK         0.1150 
    139 H139       -4.5000  -20.7297  -46.6651 H         1 UNK         0.0800 
    140 H140       -2.8058  -20.8431  -47.0853 H         1 UNK         0.0800 
    141 H141       -4.1241  -22.9152  -45.6636 H         1 UNK         0.0800 
    142 H142       -3.6837  -23.1993  -44.0044 H         1 UNK         0.0800 
    143 H143       -1.5867  -22.8425  -46.2011 H         1 UNK         0.0600 
    144 H144       -1.2610  -22.9924  -43.4522 H         1 UNK         0.3000 
    145 H145        0.9153  -24.4887  -42.5306 H         1 UNK         0.0600 
    146 H146        3.3070  -23.7646  -42.6835 H         1 UNK         0.0600 
    147 H147        2.8834  -24.8313  -44.0109 H         1 UNK         0.0600 
    148 H148        3.0088  -23.0969  -44.2872 H         1 UNK         0.0600 
    149 H149        0.7735  -21.6241  -43.2242 H         1 UNK         0.3000 
    150 H150        0.1416  -20.6308  -40.1123 H         1 UNK         0.0600 
    151 H151        2.3656  -20.9695  -39.0965 H         1 UNK         0.0600 
    152 H152        2.2070  -19.3001  -39.6151 H         1 UNK         0.0600 
    153 H153        3.1648  -20.4323  -40.5687 H         1 UNK         0.0600 
    154 H154        1.7194  -19.5247  -42.3821 H         1 UNK         0.3000 
    155 H155       -1.1506  -18.4894  -44.1096 H         1 UNK         0.0600 
    156 H156        0.6642  -16.5766  -42.5442 H         1 UNK         0.0600 
    157 H157       -1.0953  -16.5911  -42.4887 H         1 UNK         0.0600 
    158 H158       -0.2702  -16.1580  -43.9754 H         1 UNK         0.0600 
    159 H159        1.5903  -17.8021  -44.4808 H         1 UNK         0.3000 
    160 H160        2.8838  -20.8825  -45.5218 H         1 UNK         0.0600 
    161 H161        3.2651  -20.0528  -47.7882 H         1 UNK         0.0600 
    162 H162        1.5468  -20.3798  -47.6319 H         1 UNK         0.0600 
    163 H163        2.1370  -18.7214  -47.5550 H         1 UNK         0.0600 
    164 H164        3.9171  -18.3131  -46.0178 H         1 UNK         0.3000 
    165 H165        4.6519  -17.0877  -42.8860 H         1 UNK         0.0600 
    166 H166        7.0677  -17.2188  -43.4453 H         1 UNK         0.0600 
    167 H167        6.4899  -18.7843  -42.8992 H         1 UNK         0.0600 
    168 H168        6.7547  -18.5018  -44.6156 H         1 UNK         0.0600 
    169 H169        5.7244  -16.3887  -45.4105 H         1 UNK         0.3000 
    170 H170        4.9856  -14.6078  -46.5287 H         1 UNK         0.0600 
    171 H171        2.3847  -15.8702  -47.5493 H         1 UNK         0.0600 
    172 H172        3.4775  -14.8899  -48.5254 H         1 UNK         0.0600 
    173 H173        4.0124  -16.4366  -47.8882 H         1 UNK         0.0600 
    174 H174        2.3326  -13.5031  -46.7118 H         1 UNK         0.3000 
    175 H175        2.5831  -11.0756  -44.2499 H         1 UNK         0.0600 
    176 H176        3.3883  -10.4749  -47.1470 H         1 UNK         0.0600 
    177 H177        2.7203   -9.3164  -45.9977 H         1 UNK         0.0600 
    178 H178        4.3060  -10.0173  -45.7164 H         1 UNK         0.0600 
    179 H179        1.0688  -11.1628  -46.7001 H         1 UNK         0.3000 
    180 H180       -1.5376  -13.2127  -45.4648 H         1 UNK         0.0600 
    181 H181       -1.5127  -10.1759  -45.8159 H         1 UNK         0.0600 
    182 H182       -2.0512  -11.0544  -44.3930 H         1 UNK         0.0600 
    183 H183       -2.9341  -11.2157  -45.9035 H         1 UNK         0.0600 
    184 H184       -1.3853  -13.3851  -47.6422 H         1 UNK         0.3000 
    185 H185       -1.1822  -11.2279  -50.3035 H         1 UNK         0.0600 
    186 H186        0.8433  -13.4841  -49.8420 H         1 UNK         0.0600 
    187 H187        0.2654  -12.9386  -51.4159 H         1 UNK         0.0600 
    188 H188        1.1997  -11.8573  -50.3960 H         1 UNK         0.0600 
    189 H189       -1.6024  -14.0835  -49.9857 H         1 UNK         0.3000 
    190 H190       -1.6670  -25.7526  -44.3160 H         1 UNK         0.3000 
    191 H191       -3.1280  -27.4715  -46.0322 H         1 UNK         0.0600 
    192 H192       -0.7773  -28.0630  -44.1520 H         1 UNK         0.0600 
    193 H193       -1.8581  -29.2694  -44.8400 H         1 UNK         0.0600 
    194 H194       -2.4864  -28.0775  -43.7138 H         1 UNK         0.0600 
    195 H195        0.1557  -26.1556  -46.3377 H         1 UNK         0.3000 
    196 H196        1.0943  -28.0101  -48.3413 H         1 UNK         0.0600 
    197 H197        2.9165  -26.3606  -48.6092 H         1 UNK         0.0600 
    198 H198        2.6167  -26.6356  -46.8994 H         1 UNK         0.0600 
    199 H199        2.0262  -25.1663  -47.6756 H         1 UNK         0.0600 
    200 H200       -1.0255  -25.2471  -48.4053 H         1 UNK         0.3000 
    201 H201       -0.9963  -25.0639  -51.3841 H         1 UNK         0.0600 
    202 H202       -0.6464  -22.9344  -50.0929 H         1 UNK         0.0600 
    203 H203       -2.1868  -23.1780  -49.2747 H         1 UNK         0.0600 
    204 H204       -2.1395  -22.9045  -51.0131 H         1 UNK         0.0600 
    205 H205       -2.3179  -27.0670  -49.2936 H         1 UNK         0.3000 
    206 H206       -4.1482  -28.2534  -48.9767 H         1 UNK         0.0600 
    207 H207       -3.8116  -28.7428  -51.4159 H         1 UNK         0.0600 
    208 H208       -5.5001  -28.8547  -50.9514 H         1 UNK         0.0600 
    209 H209       -4.9280  -27.4419  -51.8285 H         1 UNK         0.0600 
    210 H210       -4.2458  -25.4323  -48.1957 H         1 UNK         0.3000 
    211 H211       -5.4919  -23.8495  -47.3691 H         1 UNK         0.0600 
    212 H212       -7.8481  -25.8032  -47.3552 H         1 UNK         0.0600 
    213 H213       -7.6841  -24.3504  -46.3807 H         1 UNK         0.0600 
    214 H214       -6.6042  -25.7066  -46.1087 H         1 UNK         0.0600 
    215 H215       -5.5408  -24.3834  -50.4437 H         1 UNK         0.3000 
    216 H216       -7.9735  -23.0456  -51.3227 H         1 UNK         0.0600 
    217 H217       -6.9440  -23.2342  -53.5559 H         1 UNK         0.0600 
    218 H218       -6.8112  -24.7707  -52.7123 H         1 UNK         0.0600 
    219 H219       -5.4059  -23.7162  -52.8558 H         1 UNK         0.0600 
    220 H220       -4.6311  -22.1480  -50.6597 H         1 UNK         0.3000 
    221 H221       -3.4712  -20.2632  -50.5172 H         1 UNK         0.0600 
    222 H222       -4.5437  -18.3349  -49.4550 H         1 UNK         0.0600 
    223 H223       -6.1403  -18.8688  -49.9605 H         1 UNK         0.0600 
    224 H224       -5.2363  -19.8014  -48.7746 H         1 UNK         0.0600 
    225 H225       -4.0528  -20.9762  -53.1604 H         1 UNK         0.3000 
    226 H226       -5.1112  -18.8494  -54.7306 H         1 UNK         0.0600 
    227 H227       -5.1335  -21.2295  -55.4436 H         1 UNK         0.0600 
    228 H228       -4.2845  -20.2527  -56.6311 H         1 UNK         0.0600 
    229 H229       -3.3706  -21.2531  -55.5091 H         1 UNK         0.0600 
    230 H230       -4.1645  -17.3801  -56.0390 H         1 UNK         0.3000 
    231 H231       -2.8645  -15.8890  -56.9322 H         1 UNK         0.0600 
    232 H232       -1.8343  -17.8110  -58.0696 H         1 UNK         0.0600 
    233 H233       -0.6685  -18.0159  -56.7649 H         1 UNK         0.0600 
    234 H234       -0.6226  -16.5751  -57.7703 H         1 UNK         0.0600 
    235 H235       -0.8139  -17.3254  -54.3932 H         1 UNK         0.3000 
    236 H236       -0.4302  -14.8415  -52.9725 H         1 UNK         0.0600 
    237 H237        2.0664  -14.7769  -53.2498 H         1 UNK         0.0600 
    238 H238        1.9623  -16.0078  -54.5053 H         1 UNK         0.0600 
    239 H239        1.2405  -14.4198  -54.7574 H         1 UNK         0.0600 
    240 H240       -1.6458  -16.4883  -51.7556 H         1 UNK         0.3000 
    241 H241       -1.8767  -17.8404  -50.0255 H         1 UNK         0.0600 
    242 H242       -0.7105  -20.8509  -52.1456 H         1 UNK         0.3800 
    243 H243       -1.1136  -19.2604  -52.7294 H         1 UNK         0.3800 
    244 H244        1.1219  -17.4585  -49.5432 H         1 UNK         0.0800 
    245 H245        0.0276  -18.1780  -48.4088 H         1 UNK         0.0800 
    246 H246        0.0704  -16.8266  -46.4289 H         1 UNK         0.0800 
    247 H247       -0.7017  -15.2797  -46.2597 H         1 UNK         0.0800 
@<TRIPOS>BOND
     1    1    2 1    
     2    1  127 1    
     3    1  128 1    
     4    1  129 1    
     5    2    3 2    
     6    2    4 am   BACKBONE|DICT|INTERRES
     7    4    5 1    
     8    4  130 1    
     9    5    6 1    
    10    5   65 1    
    11    5  131 1    
    12    6    7 1    
    13    6  132 1    
    14    6  133 1    
    15    7    8 1    
    16    8    9 1    
    17    8  134 1    
    18    8  135 1    
    19    9   10 ar   
    20    9   14 ar   
    21   10   11 ar   
    22   10  136 1    
    23   11   12 ar   
    24   11  126 1    
    25   12   13 ar   
    26   12  137 1    
    27   13   14 ar   
    28   13   15 1    
    29   14  138 1    
    30   15   16 1    
    31   15  139 1    
    32   15  140 1    
    33   16   17 1    
    34   17   18 1    
    35   17  141 1    
    36   17  142 1    
    37   18   19 1    
    38   18   67 1    
    39   18  143 1    
    40   19   20 am   BACKBONE|DICT|INTERRES
    41   19  144 1    
    42   20   21 2    
    43   20   22 1    
    44   22   23 1    
    45   22   24 1    
    46   22  145 1    
    47   23  146 1    
    48   23  147 1    
    49   23  148 1    
    50   24   25 am   BACKBONE|DICT|INTERRES
    51   24  149 1    
    52   25   26 2    
    53   25   27 1    
    54   27   28 1    
    55   27   29 1    
    56   27  150 1    
    57   28  151 1    
    58   28  152 1    
    59   28  153 1    
    60   29   30 am   BACKBONE|DICT|INTERRES
    61   29  154 1    
    62   30   31 2    
    63   30   32 1    
    64   32   33 1    
    65   32   34 1    
    66   32  155 1    
    67   33  156 1    
    68   33  157 1    
    69   33  158 1    
    70   34   35 am   BACKBONE|DICT|INTERRES
    71   34  159 1    
    72   35   36 2    
    73   35   37 1    
    74   37   38 1    
    75   37   39 1    
    76   37  160 1    
    77   38  161 1    
    78   38  162 1    
    79   38  163 1    
    80   39   40 am   BACKBONE|DICT|INTERRES
    81   39  164 1    
    82   40   41 2    
    83   40   42 1    
    84   42   43 1    
    85   42   44 1    
    86   42  165 1    
    87   43  166 1    
    88   43  167 1    
    89   43  168 1    
    90   44   45 am   BACKBONE|DICT|INTERRES
    91   44  169 1    
    92   45   46 2    
    93   45   47 1    
    94   47   48 1    
    95   47   49 1    
    96   47  170 1    
    97   48  171 1    
    98   48  172 1    
    99   48  173 1    
   100   49   50 am   BACKBONE|DICT|INTERRES
   101   49  174 1    
   102   50   51 2    
   103   50   52 1    
   104   52   53 1    
   105   52   54 1    
   106   52  175 1    
   107   53  176 1    
   108   53  177 1    
   109   53  178 1    
   110   54   55 am   BACKBONE|DICT|INTERRES
   111   54  179 1    
   112   55   56 2    
   113   55   57 1    
   114   57   58 1    
   115   57   59 1    
   116   57  180 1    
   117   58  181 1    
   118   58  182 1    
   119   58  183 1    
   120   59   60 am   BACKBONE|DICT|INTERRES
   121   59  184 1    
   122   60   61 2    
   123   60   62 1    
   124   62   63 1    
   125   62   64 1    
   126   62  185 1    
   127   63  186 1    
   128   63  187 1    
   129   63  188 1    
   130   64   65 am   BACKBONE|DICT|INTERRES
   131   64  189 1    
   132   65   66 2    
   133   67   68 2    
   134   67   69 am   BACKBONE|DICT|INTERRES
   135   69   70 1    
   136   69  190 1    
   137   70   71 1    
   138   70   72 1    
   139   70  191 1    
   140   71  192 1    
   141   71  193 1    
   142   71  194 1    
   143   72   73 2    
   144   72   74 am   BACKBONE|DICT|INTERRES
   145   74   75 1    
   146   74  195 1    
   147   75   76 1    
   148   75   77 1    
   149   75  196 1    
   150   76  197 1    
   151   76  198 1    
   152   76  199 1    
   153   77   78 2    
   154   77   79 am   BACKBONE|DICT|INTERRES
   155   79   80 1    
   156   79  200 1    
   157   80   81 1    
   158   80   82 1    
   159   80  201 1    
   160   81  202 1    
   161   81  203 1    
   162   81  204 1    
   163   82   83 2    
   164   82   84 am   BACKBONE|DICT|INTERRES
   165   84   85 1    
   166   84  205 1    
   167   85   86 1    
   168   85   87 1    
   169   85  206 1    
   170   86  207 1    
   171   86  208 1    
   172   86  209 1    
   173   87   88 2    
   174   87   89 am   BACKBONE|DICT|INTERRES
   175   89   90 1    
   176   89  210 1    
   177   90   91 1    
   178   90   92 1    
   179   90  211 1    
   180   91  212 1    
   181   91  213 1    
   182   91  214 1    
   183   92   93 2    
   184   92   94 am   BACKBONE|DICT|INTERRES
   185   94   95 1    
   186   94  215 1    
   187   95   96 1    
   188   95   97 1    
   189   95  216 1    
   190   96  217 1    
   191   96  218 1    
   192   96  219 1    
   193   97   98 2    
   194   97   99 am   BACKBONE|DICT|INTERRES
   195   99  100 1    
   196   99  220 1    
   197  100  101 1    
   198  100  102 1    
   199  100  221 1    
   200  101  222 1    
   201  101  223 1    
   202  101  224 1    
   203  102  103 2    
   204  102  104 am   BACKBONE|DICT|INTERRES
   205  104  105 1    
   206  104  225 1    
   207  105  106 1    
   208  105  107 1    
   209  105  226 1    
   210  106  227 1    
   211  106  228 1    
   212  106  229 1    
   213  107  108 2    
   214  107  109 am   BACKBONE|DICT|INTERRES
   215  109  110 1    
   216  109  230 1    
   217  110  111 1    
   218  110  112 1    
   219  110  231 1    
   220  111  232 1    
   221  111  233 1    
   222  111  234 1    
   223  112  113 2    
   224  112  114 am   BACKBONE|DICT|INTERRES
   225  114  115 1    
   226  114  235 1    
   227  115  116 1    
   228  115  117 1    
   229  115  236 1    
   230  116  237 1    
   231  116  238 1    
   232  116  239 1    
   233  117  118 2    
   234  117  119 am   BACKBONE|DICT|INTERRES
   235  119  120 1    
   236  119  240 1    
   237  120  121 1    
   238  120  124 1    
   239  120  241 1    
   240  121  122 am   BACKBONE|DICT|INTERRES
   241  121  123 2    
   242  122  242 1    
   243  122  243 1    
   244  124  125 1    
   245  124  244 1    
   246  124  245 1    
   247  125  126 1    
   248  126  246 1    
   249  126  247 1    
@<TRIPOS>SUBSTRUCTURE
     1 UNK         1 GROUP             0       ****    0 ROOT    
