@<TRIPOS>MOLECULE
3R540
247   249    1
SMALL
USER_CHARGES


@<TRIPOS>ATOM
      1 CA         -1.3090  -11.1943  -48.8079 C.3       0 UNK        -0.1800 
      2 C          -0.5032  -12.3379  -48.2103 C.2       0 UNK         0.5000 
      3 O          -1.0391  -13.1165  -47.4228 O.2       0 UNK        -0.5000 
      4 N           0.7742  -12.4556  -48.5987 N.am      1 UNK        -0.5000 
      5 CA          1.7420  -13.4645  -48.1364 C.3       1 UNK         0.1400 
      6 C6          3.1571  -13.2213  -48.7195 C.3       23 UNK        -0.0398 
      7 S7          3.1954  -13.0502  -50.5414 S.3       23 UNK        -0.2404 
      8 C8          4.4469  -14.2804  -51.0244 C.3       23 UNK        -0.0205 
      9 C9          3.9158  -15.7052  -50.9709 C.ar      23 UNK        -0.0193 
     10 C10         3.0488  -16.1663  -51.9641 C.ar      23 UNK        -0.1150 
     11 C11         2.5866  -17.4845  -51.9458 C.ar      23 UNK        -0.0193 
     12 C12         3.0085  -18.3470  -50.9311 C.ar      23 UNK        -0.1150 
     13 C13         3.8695  -17.8993  -49.9194 C.ar      23 UNK        -0.0193 
     14 C14         4.3144  -16.5735  -49.9513 C.ar      23 UNK        -0.1150 
     15 C15         4.3728  -18.7949  -48.7846 C.3       23 UNK        -0.0205 
     16 S16         3.6746  -20.4808  -48.6952 S.3       23 UNK        -0.2404 
     17 C17         1.9555  -20.1543  -48.1796 C.3       23 UNK        -0.0398 
     18 CA          1.2439  -21.4564  -47.7439 C.3       11 UNK         0.1400 
     19 N           1.8238  -22.0353  -46.5294 N.am      11 UNK        -0.5000 
     20 C           1.7980  -23.3392  -46.2244 C.2       10 UNK         0.5000 
     21 O           1.3226  -24.2047  -46.9592 O.2       10 UNK        -0.5000 
     22 CA          2.3979  -23.7509  -44.8657 C.3       10 UNK         0.1400 
     23 CB          3.8855  -24.1013  -45.0206 C.3       10 UNK        -0.1800 
     24 N           2.2546  -22.7233  -43.8327 N.am      10 UNK        -0.5000 
     25 C           1.0888  -22.3547  -43.2839 C.2       9 UNK         0.5000 
     26 O           0.0046  -22.8547  -43.5791 O.2       9 UNK        -0.5000 
     27 CA          1.1379  -21.2036  -42.2616 C.3       9 UNK         0.1400 
     28 CB          1.4232  -21.7508  -40.8554 C.3       9 UNK        -0.1800 
     29 N           2.1159  -20.1568  -42.5773 N.am      9 UNK        -0.5000 
     30 C           2.1761  -19.4573  -43.7191 C.2       8 UNK         0.5000 
     31 O           1.4267  -19.6597  -44.6762 O.2       8 UNK        -0.5000 
     32 CA          3.2503  -18.3577  -43.7962 C.3       8 UNK         0.1400 
     33 CB          3.0221  -17.4076  -44.9839 C.3       8 UNK        -0.1800 
     34 N           3.2644  -17.5628  -42.5713 N.am      8 UNK        -0.5000 
     35 C           4.1377  -17.6810  -41.5656 C.2       7 UNK         0.5000 
     36 O           5.0163  -18.5425  -41.5288 O.2       7 UNK        -0.5000 
     37 CA          4.0025  -16.6883  -40.4000 C.3       7 UNK         0.1400 
     38 CB          4.7240  -15.3696  -40.7227 C.3       7 UNK        -0.1800 
     39 N           2.6031  -16.4086  -40.0696 N.am      7 UNK        -0.5000 
     40 C           2.1179  -16.3388  -38.8216 C.2       6 UNK         0.5000 
     41 O           2.8064  -16.4962  -37.8121 O.2       6 UNK        -0.5000 
     42 CA          0.6131  -16.0355  -38.6536 C.3       6 UNK         0.1400 
     43 CB          0.4016  -14.5496  -38.3243 C.3       6 UNK        -0.1800 
     44 N          -0.1959  -16.3755  -39.8241 N.am      6 UNK        -0.5000 
     45 C          -0.4014  -17.6154  -40.2857 C.2       5 UNK         0.5000 
     46 O           0.0039  -18.6281  -39.7160 O.2       5 UNK        -0.5000 
     47 CA         -1.1727  -17.7589  -41.6134 C.3       5 UNK         0.1400 
     48 CB         -2.6141  -18.2109  -41.3327 C.3       5 UNK        -0.1800 
     49 N          -1.2127  -16.5733  -42.4794 N.am      5 UNK        -0.5000 
     50 C          -0.1725  -15.8614  -42.9321 C.2       4 UNK         0.5000 
     51 O           0.9870  -16.0373  -42.5554 O.2       4 UNK        -0.5000 
     52 CA         -0.4899  -14.7790  -43.9830 C.3       4 UNK         0.1400 
     53 CB          0.7425  -13.9317  -44.3457 C.3       4 UNK        -0.1800 
     54 N          -1.0467  -15.3514  -45.2107 N.am      4 UNK        -0.5000 
     55 C          -2.3124  -15.7610  -45.3762 C.2       3 UNK         0.5000 
     56 O          -3.1412  -15.7571  -44.4642 O.2       3 UNK        -0.5000 
     57 CA         -2.7312  -16.2612  -46.7726 C.3       3 UNK         0.1400 
     58 CB         -4.0458  -15.6081  -47.2326 C.3       3 UNK        -0.1800 
     59 N          -1.7068  -16.0019  -47.7848 N.am      3 UNK        -0.5000 
     60 C          -1.1860  -16.9208  -48.6098 C.2       2 UNK         0.5000 
     61 O          -1.4876  -18.1119  -48.5835 O.2       2 UNK        -0.5000 
     62 CA         -0.1761  -16.4399  -49.6706 C.3       2 UNK         0.1400 
     63 CB         -0.8716  -16.3269  -51.0349 C.3       2 UNK        -0.1800 
     64 N           0.4495  -15.1557  -49.3644 N.am      2 UNK        -0.5000 
     65 C           1.2834  -14.9248  -48.3425 C.2       1 UNK         0.5000 
     66 O           1.6431  -15.7907  -47.5460 O.2       1 UNK        -0.5000 
     67 C          -0.2616  -21.2128  -47.5519 C.2       11 UNK         0.5000 
     68 O          -1.0425  -21.5212  -48.4510 O.2       11 UNK        -0.5000 
     69 N          -0.6343  -20.6860  -46.3768 N.am      12 UNK        -0.5000 
     70 CA         -2.0050  -20.3380  -46.0061 C.3       12 UNK         0.1400 
     71 CB         -1.9658  -19.4750  -44.7390 C.3       12 UNK        -0.1800 
     72 C          -2.9326  -21.5495  -45.8043 C.2       12 UNK         0.5000 
     73 O          -4.1523  -21.3753  -45.8501 O.2       12 UNK        -0.5000 
     74 N          -2.3484  -22.7375  -45.5909 N.am      13 UNK        -0.5000 
     75 CA         -3.0155  -24.0284  -45.4181 C.3       13 UNK         0.1400 
     76 CB         -1.9538  -25.1387  -45.3931 C.3       13 UNK        -0.1800 
     77 C          -4.0662  -24.3285  -46.5039 C.2       13 UNK         0.5000 
     78 O          -3.8388  -24.0393  -47.6817 O.2       13 UNK        -0.5000 
     79 N          -5.2021  -24.8931  -46.0706 N.am      14 UNK        -0.5000 
     80 CA         -6.3847  -25.2139  -46.8783 C.3       14 UNK         0.1400 
     81 CB         -6.0803  -26.3731  -47.8515 C.3       14 UNK        -0.1800 
     82 C          -6.9847  -23.9786  -47.5848 C.2       14 UNK         0.5000 
     83 O          -7.4447  -24.0904  -48.7202 O.2       14 UNK        -0.5000 
     84 N          -6.9474  -22.8222  -46.9039 N.am      15 UNK        -0.5000 
     85 CA         -7.3852  -21.5034  -47.3739 C.3       15 UNK         0.1400 
     86 CB         -8.9161  -21.4699  -47.5683 C.3       15 UNK        -0.1800 
     87 C          -6.6088  -21.0582  -48.6288 C.2       15 UNK         0.5000 
     88 O          -7.1971  -20.8916  -49.6977 O.2       15 UNK        -0.5000 
     89 N          -5.2859  -20.9161  -48.4719 N.am      16 UNK        -0.5000 
     90 CA         -4.3104  -20.5557  -49.5089 C.3       16 UNK         0.1400 
     91 CB         -4.5209  -19.1022  -49.9840 C.3       16 UNK        -0.1800 
     92 C          -4.2805  -21.5748  -50.6682 C.2       16 UNK         0.5000 
     93 O          -4.2970  -21.1853  -51.8399 O.2       16 UNK        -0.5000 
     94 N          -4.2656  -22.8665  -50.3030 N.am      17 UNK        -0.5000 
     95 CA         -4.2988  -24.0397  -51.1789 C.3       17 UNK         0.1400 
     96 CB         -2.9834  -24.1536  -51.9775 C.3       17 UNK        -0.1800 
     97 C          -5.5573  -24.0684  -52.0699 C.2       17 UNK         0.5000 
     98 O          -5.4468  -24.1125  -53.2947 O.2       17 UNK        -0.5000 
     99 N          -6.7351  -24.0105  -51.4316 N.am      18 UNK        -0.5000 
    100 CA        -8.0701  -23.9509  -52.0374 C.3       18 UNK         0.1400 
    101 CB        -8.4035  -25.2684  -52.7682 C.3       18 UNK        -0.1800 
    102 C         -8.2584  -22.6972  -52.9158 C.2       18 UNK         0.5000 
    103 O         -8.7934  -22.7840  -54.0227 O.2       18 UNK        -0.5000 
    104 N         -7.7879  -21.5546  -52.3958 N.am      19 UNK        -0.5000 
    105 CA        -7.7779  -20.2228  -53.0041 C.3       19 UNK         0.1400 
    106 CB        -9.2161  -19.6907  -53.1745 C.3       19 UNK        -0.1800 
    107 C         -6.9436  -20.1227  -54.2994 C.2       19 UNK         0.5000 
    108 O         -7.1768  -19.2146  -55.0996 O.2       19 UNK        -0.5000 
    109 N         -5.9774  -21.0343  -54.4874 N.am      20 UNK        -0.5000 
    110 CA        -5.0431  -21.0147  -55.6124 C.3       20 UNK         0.1400 
    111 CB        -4.3249  -22.3661  -55.7297 C.3       20 UNK        -0.1800 
    112 C         -4.0241  -19.8721  -55.4864 C.2       20 UNK         0.5000 
    113 O         -3.7449  -19.2072  -56.4842 O.2       20 UNK        -0.5000 
    114 N         -3.5039  -19.6637  -54.2650 N.am      21 UNK        -0.5000 
    115 CA        -2.6132  -18.5705  -53.8550 C.3       21 UNK         0.1400 
    116 CB        -3.4409  -17.2844  -53.6580 C.3       21 UNK        -0.1800 
    117 C         -1.3930  -18.3635  -54.7840 C.2       21 UNK         0.5000 
    118 O         -1.0843  -17.2312  -55.1583 O.2       21 UNK        -0.5000 
    119 N         -0.7422  -19.4752  -55.1546 N.am      22 UNK        -0.5000 
    120 CA         0.3717  -19.5671  -56.1215 C.3       22 UNK         0.1400 
    121 C         -0.0264  -19.3292  -57.6130 C.2       22 UNK         0.5000 
    122 N         -1.2973  -19.1869  -57.9671 N.am      22 UNK        -0.7600 
    123 O          0.8377  -19.3094  -58.4858 O.2       22 UNK        -0.5000 
    124 C124        1.6274  -18.7326  -55.7291 C.3       23 UNK        -0.0398 
    125 S125        2.3599  -19.1939  -54.1217 S.3       23 UNK        -0.2404 
    126 C126        1.6095  -17.9689  -53.0050 C.3       23 UNK        -0.0205 
    127 H127       -1.6735  -10.5401  -48.0159 H         1 UNK         0.0600 
    128 H128       -2.1691  -11.5862  -49.3508 H         1 UNK         0.0600 
    129 H129       -0.7139  -10.5955  -49.4979 H         1 UNK         0.0600 
    130 H130        1.1414  -11.7976  -49.2720 H         1 UNK         0.3000 
    131 H131        1.8209  -13.3310  -47.0565 H         1 UNK         0.0600 
    132 H132        3.5598  -12.2980  -48.3012 H         1 UNK         0.0800 
    133 H133        3.8458  -14.0046  -48.3980 H         1 UNK         0.0800 
    134 H134        4.7714  -14.0633  -52.0431 H         1 UNK         0.0800 
    135 H135        5.3330  -14.1685  -50.3975 H         1 UNK         0.0800 
    136 H136        2.7332  -15.4938  -52.7495 H         1 UNK         0.1150 
    137 H137        2.6580  -19.3676  -50.9498 H         1 UNK         0.1150 
    138 H138        4.9873  -16.2199  -49.1826 H         1 UNK         0.1150 
    139 H139        5.4542  -18.8923  -48.8891 H         1 UNK         0.0800 
    140 H140        4.2060  -18.2919  -47.8333 H         1 UNK         0.0800 
    141 H141        1.4253  -19.6937  -49.0143 H         1 UNK         0.0800 
    142 H142        1.9489  -19.4192  -47.3742 H         1 UNK         0.0800 
    143 H143        1.3472  -22.1758  -48.5598 H         1 UNK         0.0600 
    144 H144        2.1842  -21.3805  -45.8491 H         1 UNK         0.3000 
    145 H145        1.8691  -24.6455  -44.5296 H         1 UNK         0.0600 
    146 H146        4.3050  -24.4669  -44.0832 H         1 UNK         0.0600 
    147 H147        4.0261  -24.8855  -45.7658 H         1 UNK         0.0600 
    148 H148        4.4717  -23.2381  -45.3385 H         1 UNK         0.0600 
    149 H149        3.0973  -22.2570  -43.5309 H         1 UNK         0.3000 
    150 H150        0.1510  -20.7395  -42.2503 H         1 UNK         0.0600 
    151 H151        0.6906  -22.5087  -40.5749 H         1 UNK         0.0600 
    152 H152        1.3738  -20.9613  -40.1056 H         1 UNK         0.0600 
    153 H153        2.4110  -22.2092  -40.7942 H         1 UNK         0.0600 
    154 H154        2.7761  -19.9251  -41.8490 H         1 UNK         0.3000 
    155 H155        4.2128  -18.8521  -43.9409 H         1 UNK         0.0600 
    156 H156        3.0668  -17.9451  -45.9283 H         1 UNK         0.0600 
    157 H157        3.7789  -16.6241  -45.0201 H         1 UNK         0.0600 
    158 H158        2.0445  -16.9279  -44.9351 H         1 UNK         0.0600 
    159 H159        2.5236  -16.8663  -42.5156 H         1 UNK         0.3000 
    160 H160        4.5027  -17.1490  -39.5455 H         1 UNK         0.0600 
    161 H161        4.2568  -14.8514  -41.5612 H         1 UNK         0.0600 
    162 H162        5.7679  -15.5474  -40.9842 H         1 UNK         0.0600 
    163 H163        4.7137  -14.6963  -39.8655 H         1 UNK         0.0600 
    164 H164        1.9644  -16.2730  -40.8463 H         1 UNK         0.3000 
    165 H165        0.2520  -16.6285  -37.8108 H         1 UNK         0.0600 
    166 H166       -0.6484  -14.3344  -38.1252 H         1 UNK         0.0600 
    167 H167        0.9648  -14.2617  -37.4355 H         1 UNK         0.0600 
    168 H168        0.7285  -13.9065  -39.1425 H         1 UNK         0.0600 
    169 H169       -0.5628  -15.6042  -40.3615 H         1 UNK         0.3000 
    170 H170       -0.6695  -18.5404  -42.1830 H         1 UNK         0.0600 
    171 H171       -2.6300  -19.1406  -40.7622 H         1 UNK         0.0600 
    172 H172       -3.1612  -17.4628  -40.7576 H         1 UNK         0.0600 
    173 H173       -3.1666  -18.3884  -42.2543 H         1 UNK         0.0600 
    174 H174       -2.1177  -16.3480  -42.8817 H         1 UNK         0.3000 
    175 H175       -1.2299  -14.1085  -43.5411 H         1 UNK         0.0600 
    176 H176        1.5143  -14.5280  -44.8333 H         1 UNK         0.0600 
    177 H177        0.4718  -13.1162  -45.0162 H         1 UNK         0.0600 
    178 H178        1.1864  -13.4824  -43.4564 H         1 UNK         0.0600 
    179 H179       -0.4151  -15.4262  -45.9955 H         1 UNK         0.3000 
    180 H180       -2.9049  -17.3334  -46.6712 H         1 UNK         0.0600 
    181 H181       -3.9463  -14.5248  -47.3119 H         1 UNK         0.0600 
    182 H182       -4.8571  -15.8159  -46.5340 H         1 UNK         0.0600 
    183 H183       -4.3541  -15.9881  -48.2067 H         1 UNK         0.0600 
    184 H184       -1.4029  -15.0352  -47.8611 H         1 UNK         0.3000 
    185 H185        0.6123  -17.1913  -49.7384 H         1 UNK         0.0600 
    186 H186       -1.2787  -17.2906  -51.3397 H         1 UNK         0.0600 
    187 H187       -1.6981  -15.6157  -51.0066 H         1 UNK         0.0600 
    188 H188       -0.1795  -16.0020  -51.8112 H         1 UNK         0.0600 
    189 H189        0.2068  -14.3785  -49.9607 H         1 UNK         0.3000 
    190 H190        0.0886  -20.4300  -45.7085 H         1 UNK         0.3000 
    191 H191       -2.4313  -19.7424  -46.8136 H         1 UNK         0.0600 
    192 H192       -1.3037  -18.6177  -44.8621 H         1 UNK         0.0600 
    193 H193       -2.9586  -19.0913  -44.5030 H         1 UNK         0.0600 
    194 H194       -1.6163  -20.0477  -43.8797 H         1 UNK         0.0600 
    195 H195       -1.3399  -22.7519  -45.5267 H         1 UNK         0.3000 
    196 H196       -3.5127  -24.0013  -44.4468 H         1 UNK         0.0600 
    197 H197       -2.4135  -26.1202  -45.2704 H         1 UNK         0.0600 
    198 H198       -1.2566  -25.0043  -44.5665 H         1 UNK         0.0600 
    199 H199       -1.3761  -25.1594  -46.3184 H         1 UNK         0.0600 
    200 H200       -5.2902  -25.0921  -45.0835 H         1 UNK         0.3000 
    201 H201       -7.1491  -25.5620  -46.1823 H         1 UNK         0.0600 
    202 H202       -5.6810  -27.2374  -47.3210 H         1 UNK         0.0600 
    203 H203       -5.3564  -26.0850  -48.6134 H         1 UNK         0.0600 
    204 H204       -6.9840  -26.7003  -48.3670 H         1 UNK         0.0600 
    205 H205       -6.4978  -22.8287  -45.9989 H         1 UNK         0.3000 
    206 H206       -7.1381  -20.7918  -46.5845 H         1 UNK         0.0600 
    207 H207       -9.4354  -21.7531  -46.6529 H         1 UNK         0.0600 
    208 H208       -9.2508  -20.4669  -47.8351 H         1 UNK         0.0600 
    209 H209       -9.2443  -22.1427  -48.3612 H         1 UNK         0.0600 
    210 H210       -4.8981  -21.1196  -47.5536 H         1 UNK         0.3000 
    211 H211       -3.3317  -20.5989  -49.0353 H         1 UNK         0.0600 
    212 H212       -5.4634  -18.9778  -50.5174 H         1 UNK         0.0600 
    213 H213       -3.7199  -18.7949  -50.6571 H         1 UNK         0.0600 
    214 H214       -4.5146  -18.4100  -49.1421 H         1 UNK         0.0600 
    215 H215       -4.2263  -23.0840  -49.3098 H         1 UNK         0.3000 
    216 H216       -4.3618  -24.9108  -50.5259 H         1 UNK         0.0600 
    217 H217       -2.9675  -25.0658  -52.5750 H         1 UNK         0.0600 
    218 H218       -2.1222  -24.1870  -51.3101 H         1 UNK         0.0600 
    219 H219       -2.8447  -23.3141  -52.6587 H         1 UNK         0.0600 
    220 H220       -6.7439  -23.9668  -50.4143 H         1 UNK         0.3000 
    221 H221       -8.7739  -23.8484  -51.2102 H         1 UNK         0.0600 
    222 H222       -7.7730  -25.4188  -53.6449 H         1 UNK         0.0600 
    223 H223       -8.2735  -26.1270  -52.1095 H         1 UNK         0.0600 
    224 H224       -9.4400  -25.2740  -53.1072 H         1 UNK         0.0600 
    225 H225       -7.4029  -21.5799  -51.4541 H         1 UNK         0.3000 
    226 H226       -7.2754  -19.5770  -52.2828 H         1 UNK         0.0600 
    227 H227       -9.7732  -19.7574  -52.2400 H         1 UNK         0.0600 
    228 H228       -9.2141  -18.6420  -53.4736 H         1 UNK         0.0600 
    229 H229       -9.7660  -20.2461  -53.9347 H         1 UNK         0.0600 
    230 H230       -5.8316  -21.7455  -53.7820 H         1 UNK         0.3000 
    231 H231       -5.6139  -20.8572  -56.5300 H         1 UNK         0.0600 
    232 H232       -3.7424  -22.5918  -54.8362 H         1 UNK         0.0600 
    233 H233       -3.6401  -22.3723  -56.5787 H         1 UNK         0.0600 
    234 H234       -5.0367  -23.1778  -55.8804 H         1 UNK         0.0600 
    235 H235       -3.8085  -20.2770  -53.5122 H         1 UNK         0.3000 
    236 H236       -2.2092  -18.8583  -52.8839 H         1 UNK         0.0600 
    237 H237       -4.2465  -17.4419  -52.9406 H         1 UNK         0.0600 
    238 H238       -2.8244  -16.4692  -53.2783 H         1 UNK         0.0600 
    239 H239       -3.8879  -16.9486  -54.5944 H         1 UNK         0.0600 
    240 H240       -1.0864  -20.3595  -54.8099 H         1 UNK         0.3000 
    241 H241        0.6718  -20.6151  -56.0950 H         1 UNK         0.0600 
    242 H242       -1.5186  -19.0484  -58.9400 H         1 UNK         0.3800 
    243 H243       -2.0511  -19.1846  -57.2848 H         1 UNK         0.3800 
    244 H244        2.4184  -18.8844  -56.4652 H         1 UNK         0.0800 
    245 H245        1.4151  -17.6638  -55.7593 H         1 UNK         0.0800 
    246 H246        1.2298  -17.1191  -53.5729 H         1 UNK         0.0800 
    247 H247        0.7455  -18.4221  -52.5183 H         1 UNK         0.0800 
@<TRIPOS>BOND
     1    1    2 1    
     2    1  127 1    
     3    1  128 1    
     4    1  129 1    
     5    2    3 2    
     6    2    4 am   BACKBONE|DICT|INTERRES
     7    4    5 1    
     8    4  130 1    
     9    5    6 1    
    10    5   65 1    
    11    5  131 1    
    12    6    7 1    
    13    6  132 1    
    14    6  133 1    
    15    7    8 1    
    16    8    9 1    
    17    8  134 1    
    18    8  135 1    
    19    9   10 ar   
    20    9   14 ar   
    21   10   11 ar   
    22   10  136 1    
    23   11   12 ar   
    24   11  126 1    
    25   12   13 ar   
    26   12  137 1    
    27   13   14 ar   
    28   13   15 1    
    29   14  138 1    
    30   15   16 1    
    31   15  139 1    
    32   15  140 1    
    33   16   17 1    
    34   17   18 1    
    35   17  141 1    
    36   17  142 1    
    37   18   19 1    
    38   18   67 1    
    39   18  143 1    
    40   19   20 am   BACKBONE|DICT|INTERRES
    41   19  144 1    
    42   20   21 2    
    43   20   22 1    
    44   22   23 1    
    45   22   24 1    
    46   22  145 1    
    47   23  146 1    
    48   23  147 1    
    49   23  148 1    
    50   24   25 am   BACKBONE|DICT|INTERRES
    51   24  149 1    
    52   25   26 2    
    53   25   27 1    
    54   27   28 1    
    55   27   29 1    
    56   27  150 1    
    57   28  151 1    
    58   28  152 1    
    59   28  153 1    
    60   29   30 am   BACKBONE|DICT|INTERRES
    61   29  154 1    
    62   30   31 2    
    63   30   32 1    
    64   32   33 1    
    65   32   34 1    
    66   32  155 1    
    67   33  156 1    
    68   33  157 1    
    69   33  158 1    
    70   34   35 am   BACKBONE|DICT|INTERRES
    71   34  159 1    
    72   35   36 2    
    73   35   37 1    
    74   37   38 1    
    75   37   39 1    
    76   37  160 1    
    77   38  161 1    
    78   38  162 1    
    79   38  163 1    
    80   39   40 am   BACKBONE|DICT|INTERRES
    81   39  164 1    
    82   40   41 2    
    83   40   42 1    
    84   42   43 1    
    85   42   44 1    
    86   42  165 1    
    87   43  166 1    
    88   43  167 1    
    89   43  168 1    
    90   44   45 am   BACKBONE|DICT|INTERRES
    91   44  169 1    
    92   45   46 2    
    93   45   47 1    
    94   47   48 1    
    95   47   49 1    
    96   47  170 1    
    97   48  171 1    
    98   48  172 1    
    99   48  173 1    
   100   49   50 am   BACKBONE|DICT|INTERRES
   101   49  174 1    
   102   50   51 2    
   103   50   52 1    
   104   52   53 1    
   105   52   54 1    
   106   52  175 1    
   107   53  176 1    
   108   53  177 1    
   109   53  178 1    
   110   54   55 am   BACKBONE|DICT|INTERRES
   111   54  179 1    
   112   55   56 2    
   113   55   57 1    
   114   57   58 1    
   115   57   59 1    
   116   57  180 1    
   117   58  181 1    
   118   58  182 1    
   119   58  183 1    
   120   59   60 am   BACKBONE|DICT|INTERRES
   121   59  184 1    
   122   60   61 2    
   123   60   62 1    
   124   62   63 1    
   125   62   64 1    
   126   62  185 1    
   127   63  186 1    
   128   63  187 1    
   129   63  188 1    
   130   64   65 am   BACKBONE|DICT|INTERRES
   131   64  189 1    
   132   65   66 2    
   133   67   68 2    
   134   67   69 am   BACKBONE|DICT|INTERRES
   135   69   70 1    
   136   69  190 1    
   137   70   71 1    
   138   70   72 1    
   139   70  191 1    
   140   71  192 1    
   141   71  193 1    
   142   71  194 1    
   143   72   73 2    
   144   72   74 am   BACKBONE|DICT|INTERRES
   145   74   75 1    
   146   74  195 1    
   147   75   76 1    
   148   75   77 1    
   149   75  196 1    
   150   76  197 1    
   151   76  198 1    
   152   76  199 1    
   153   77   78 2    
   154   77   79 am   BACKBONE|DICT|INTERRES
   155   79   80 1    
   156   79  200 1    
   157   80   81 1    
   158   80   82 1    
   159   80  201 1    
   160   81  202 1    
   161   81  203 1    
   162   81  204 1    
   163   82   83 2    
   164   82   84 am   BACKBONE|DICT|INTERRES
   165   84   85 1    
   166   84  205 1    
   167   85   86 1    
   168   85   87 1    
   169   85  206 1    
   170   86  207 1    
   171   86  208 1    
   172   86  209 1    
   173   87   88 2    
   174   87   89 am   BACKBONE|DICT|INTERRES
   175   89   90 1    
   176   89  210 1    
   177   90   91 1    
   178   90   92 1    
   179   90  211 1    
   180   91  212 1    
   181   91  213 1    
   182   91  214 1    
   183   92   93 2    
   184   92   94 am   BACKBONE|DICT|INTERRES
   185   94   95 1    
   186   94  215 1    
   187   95   96 1    
   188   95   97 1    
   189   95  216 1    
   190   96  217 1    
   191   96  218 1    
   192   96  219 1    
   193   97   98 2    
   194   97   99 am   BACKBONE|DICT|INTERRES
   195   99  100 1    
   196   99  220 1    
   197  100  101 1    
   198  100  102 1    
   199  100  221 1    
   200  101  222 1    
   201  101  223 1    
   202  101  224 1    
   203  102  103 2    
   204  102  104 am   BACKBONE|DICT|INTERRES
   205  104  105 1    
   206  104  225 1    
   207  105  106 1    
   208  105  107 1    
   209  105  226 1    
   210  106  227 1    
   211  106  228 1    
   212  106  229 1    
   213  107  108 2    
   214  107  109 am   BACKBONE|DICT|INTERRES
   215  109  110 1    
   216  109  230 1    
   217  110  111 1    
   218  110  112 1    
   219  110  231 1    
   220  111  232 1    
   221  111  233 1    
   222  111  234 1    
   223  112  113 2    
   224  112  114 am   BACKBONE|DICT|INTERRES
   225  114  115 1    
   226  114  235 1    
   227  115  116 1    
   228  115  117 1    
   229  115  236 1    
   230  116  237 1    
   231  116  238 1    
   232  116  239 1    
   233  117  118 2    
   234  117  119 am   BACKBONE|DICT|INTERRES
   235  119  120 1    
   236  119  240 1    
   237  120  121 1    
   238  120  124 1    
   239  120  241 1    
   240  121  122 am   BACKBONE|DICT|INTERRES
   241  121  123 2    
   242  122  242 1    
   243  122  243 1    
   244  124  125 1    
   245  124  244 1    
   246  124  245 1    
   247  125  126 1    
   248  126  246 1    
   249  126  247 1    
@<TRIPOS>SUBSTRUCTURE
     1 UNK         1 GROUP             0       ****    0 ROOT    
