@<TRIPOS>MOLECULE
3R540
247   249    1
SMALL
USER_CHARGES


@<TRIPOS>ATOM
      1 CA          1.5067  -16.5372  -51.6625 C.3       0 UNK        -0.1800 
      2 C           2.3343  -15.5741  -50.8257 C.2       0 UNK         0.5000 
      3 O           3.4859  -15.2970  -51.1626 O.2       0 UNK        -0.5000 
      4 N           1.7521  -15.0724  -49.7324 N.am      1 UNK        -0.5000 
      5 CA          2.3531  -14.0873  -48.8333 C.3       1 UNK         0.1400 
      6 C6          1.6415  -14.0723  -47.4567 C.3       23 UNK        -0.0398 
      7 S7         -0.1471  -13.6808  -47.5364 S.3       23 UNK        -0.2404 
      8 C8         -0.8993  -15.1726  -46.8212 C.3       23 UNK        -0.0205 
      9 C9         -0.8476  -16.3575  -47.7750 C.ar      23 UNK        -0.0193 
     10 C10        -1.8273  -16.5094  -48.7599 C.ar      23 UNK        -0.1150 
     11 C11        -1.8048  -17.6079  -49.6248 C.ar      23 UNK        -0.0193 
     12 C12        -0.7894  -18.5621  -49.4969 C.ar      23 UNK        -0.1150 
     13 C13         0.2049  -18.4113  -48.5261 C.ar      23 UNK        -0.0193 
     14 C14         0.1675  -17.3112  -47.6663 C.ar      23 UNK        -0.1150 
     15 C15         1.3298  -19.4247  -48.4052 C.3       23 UNK        -0.0205 
     16 S16         0.8707  -20.7874  -47.2924 S.3       23 UNK        -0.2404 
     17 C17         0.6412  -22.1578  -48.4712 C.3       23 UNK        -0.0398 
     18 CA          0.6504  -23.5680  -47.8295 C.3       11 UNK         0.1400 
     19 N           1.8129  -23.8197  -46.9716 N.am      11 UNK        -0.5000 
     20 C           2.2407  -25.0458  -46.6384 C.2       10 UNK         0.5000 
     21 O           1.6930  -26.0838  -47.0112 O.2       10 UNK        -0.5000 
     22 CA          3.4619  -25.1251  -45.7062 C.3       10 UNK         0.1400 
     23 CB          4.7375  -24.6590  -46.4253 C.3       10 UNK        -0.1800 
     24 N           3.2851  -24.3547  -44.4758 N.am      10 UNK        -0.5000 
     25 C           2.3644  -24.6163  -43.5371 C.2       9 UNK         0.5000 
     26 O           1.5481  -25.5328  -43.6132 O.2       9 UNK        -0.5000 
     27 CA          2.3254  -23.6740  -42.3194 C.3       9 UNK         0.1400 
     28 CB          3.2983  -24.1574  -41.2336 C.3       9 UNK        -0.1800 
     29 N           2.6143  -22.2738  -42.6416 N.am      9 UNK        -0.5000 
     30 C           1.9044  -21.5311  -43.5001 C.2       8 UNK         0.5000 
     31 O           0.9660  -21.9718  -44.1682 O.2       8 UNK        -0.5000 
     32 CA          2.3469  -20.0661  -43.6612 C.3       8 UNK         0.1400 
     33 CB          3.5262  -19.9615  -44.6417 C.3       8 UNK        -0.1800 
     34 N           1.2443  -19.2435  -44.1534 N.am      8 UNK        -0.5000 
     35 C           0.2283  -18.8146  -43.3963 C.2       7 UNK         0.5000 
     36 O           0.1660  -18.9721  -42.1737 O.2       7 UNK        -0.5000 
     37 CA         -0.9220  -18.1225  -44.1490 C.3       7 UNK         0.1400 
     38 CB         -1.8535  -19.1609  -44.7906 C.3       7 UNK        -0.1800 
     39 N          -1.7135  -17.2548  -43.2784 N.am      7 UNK        -0.5000 
     40 C          -1.3165  -16.0596  -42.8282 C.2       6 UNK         0.5000 
     41 O          -0.2567  -15.5148  -43.1497 O.2       6 UNK        -0.5000 
     42 CA         -2.2674  -15.3626  -41.8461 C.3       6 UNK         0.1400 
     43 CB         -2.1031  -15.9232  -40.4221 C.3       6 UNK        -0.1800 
     44 N          -1.9910  -13.9305  -41.8449 N.am      6 UNK        -0.5000 
     45 C          -2.8805  -12.9685  -41.5752 C.2       5 UNK         0.5000 
     46 O          -4.0515  -13.1940  -41.2654 O.2       5 UNK        -0.5000 
     47 CA         -2.3933  -11.5065  -41.6501 C.3       5 UNK         0.1400 
     48 CB         -2.1785  -10.9423  -40.2366 C.3       5 UNK        -0.1800 
     49 N          -1.1606  -11.3218  -42.4214 N.am      5 UNK        -0.5000 
     50 C          -1.0732  -11.4092  -43.7543 C.2       4 UNK         0.5000 
     51 O          -2.0250  -11.6937  -44.4858 O.2       4 UNK        -0.5000 
     52 CA          0.3248  -11.1599  -44.3524 C.3       4 UNK         0.1400 
     53 CB          1.2154  -12.3994  -44.1724 C.3       4 UNK        -0.1800 
     54 N           0.2573  -10.8200  -45.7741 N.am      4 UNK        -0.5000 
     55 C          -0.1481   -9.6375  -46.2550 C.2       3 UNK         0.5000 
     56 O          -0.4249   -8.6714  -45.5402 O.2       3 UNK        -0.5000 
     57 CA         -0.2459   -9.5277  -47.7932 C.3       3 UNK         0.1400 
     58 CB         -0.5861   -8.1030  -48.2791 C.3       3 UNK        -0.1800 
     59 N           0.9452  -10.0368  -48.4849 N.am      3 UNK        -0.5000 
     60 C           2.2119   -9.6123  -48.3579 C.2       2 UNK         0.5000 
     61 O           2.5570   -8.6961  -47.6097 O.2       2 UNK        -0.5000 
     62 CA          3.2689  -10.3687  -49.1951 C.3       2 UNK         0.1400 
     63 CB          4.7005   -9.8548  -48.9556 C.3       2 UNK        -0.1800 
     64 N           3.2324  -11.8048  -48.9110 N.am      2 UNK        -0.5000 
     65 C           2.3728  -12.6744  -49.4555 C.2       1 UNK         0.5000 
     66 O           1.5680  -12.3652  -50.3389 O.2       1 UNK        -0.5000 
     67 C          -0.6797  -23.9135  -47.1334 C.2       11 UNK         0.5000 
     68 O          -1.6177  -24.3203  -47.8201 O.2       11 UNK        -0.5000 
     69 N          -0.7388  -23.7921  -45.7994 N.am      12 UNK        -0.5000 
     70 CA         -1.8692  -24.2426  -44.9890 C.3       12 UNK         0.1400 
     71 CB         -1.7270  -23.7190  -43.5527 C.3       12 UNK        -0.1800 
     72 C          -2.0273  -25.7745  -45.0128 C.2       12 UNK         0.5000 
     73 O          -3.1332  -26.2606  -45.2496 O.2       12 UNK        -0.5000 
     74 N          -0.9212  -26.5069  -44.8110 N.am      13 UNK        -0.5000 
     75 CA         -0.8777  -27.9720  -44.8404 C.3       13 UNK         0.1400 
     76 CB          0.4784  -28.4623  -44.3116 C.3       13 UNK        -0.1800 
     77 C          -1.1528  -28.5563  -46.2373 C.2       13 UNK         0.5000 
     78 O          -1.8480  -29.5669  -46.3465 O.2       13 UNK        -0.5000 
     79 N          -0.6273  -27.8986  -47.2801 N.am      14 UNK        -0.5000 
     80 CA         -0.8501  -28.2542  -48.6840 C.3       14 UNK         0.1400 
     81 CB          0.2153  -27.5570  -49.5448 C.3       14 UNK        -0.1800 
     82 C          -2.2602  -27.8955  -49.1970 C.2       14 UNK         0.5000 
     83 O          -2.6403  -28.3591  -50.2723 O.2       14 UNK        -0.5000 
     84 N          -2.9844  -27.0502  -48.4470 N.am      15 UNK        -0.5000 
     85 CA         -4.2831  -26.4419  -48.7627 C.3       15 UNK         0.1400 
     86 CB         -5.3800  -27.5087  -48.9545 C.3       15 UNK        -0.1800 
     87 C          -4.2246  -25.4309  -49.9289 C.2       15 UNK         0.5000 
     88 O          -5.2671  -25.0200  -50.4392 O.2       15 UNK        -0.5000 
     89 N          -3.0105  -24.9999  -50.2958 N.am      16 UNK        -0.5000 
     90 CA         -2.7396  -23.9514  -51.2773 C.3       16 UNK         0.1400 
     91 CB         -1.2465  -23.9722  -51.6348 C.3       16 UNK        -0.1800 
     92 C          -3.1597  -22.5611  -50.7702 C.2       16 UNK         0.5000 
     93 O          -3.5265  -21.7097  -51.5761 O.2       16 UNK        -0.5000 
     94 N          -3.1555  -22.3724  -49.4422 N.am      17 UNK        -0.5000 
     95 CA         -3.6188  -21.1641  -48.7560 C.3       17 UNK         0.1400 
     96 CB         -3.3492  -21.3121  -47.2528 C.3       17 UNK        -0.1800 
     97 C          -5.1054  -20.8298  -48.9997 C.2       17 UNK         0.5000 
     98 O          -5.4890  -19.6660  -48.8835 O.2       17 UNK        -0.5000 
     99 N          -5.9123  -21.8486  -49.3284 N.am      18 UNK        -0.5000 
    100 CA        -7.3352  -21.7138  -49.6352 C.3       18 UNK         0.1400 
    101 CB        -8.0291  -23.0578  -49.3624 C.3       18 UNK        -0.1800 
    102 C         -7.6055  -21.2509  -51.0807 C.2       18 UNK         0.5000 
    103 O         -8.7186  -20.8032  -51.3614 O.2       18 UNK        -0.5000 
    104 N         -6.6158  -21.3733  -51.9773 N.am      19 UNK        -0.5000 
    105 CA        -6.7211  -20.9442  -53.3701 C.3       19 UNK         0.1400 
    106 CB        -5.7004  -21.7173  -54.2211 C.3       19 UNK        -0.1800 
    107 C         -6.4761  -19.4322  -53.4846 C.2       19 UNK         0.5000 
    108 O         -5.5612  -18.9146  -52.8428 O.2       19 UNK        -0.5000 
    109 N         -7.2536  -18.7581  -54.3419 N.am      20 UNK        -0.5000 
    110 CA        -7.1316  -17.3207  -54.6142 C.3       20 UNK         0.1400 
    111 CB        -8.3497  -16.8564  -55.4272 C.3       20 UNK        -0.1800 
    112 C         -5.8227  -16.9468  -55.3386 C.2       20 UNK         0.5000 
    113 O         -5.3119  -15.8434  -55.1453 O.2       20 UNK        -0.5000 
    114 N         -5.2984  -17.8821  -56.1424 N.am      21 UNK        -0.5000 
    115 CA        -4.0034  -17.7775  -56.8178 C.3       21 UNK         0.1400 
    116 CB        -4.0353  -18.6662  -58.0718 C.3       21 UNK        -0.1800 
    117 C         -2.8189  -18.1703  -55.9097 C.2       21 UNK         0.5000 
    118 O         -1.6713  -17.9275  -56.2842 O.2       21 UNK        -0.5000 
    119 N         -3.1118  -18.7830  -54.7539 N.am      22 UNK        -0.5000 
    120 CA        -2.1577  -19.2650  -53.7407 C.3       22 UNK         0.1400 
    121 C         -1.2337  -20.4355  -54.1981 C.2       22 UNK         0.5000 
    122 N         -1.5572  -21.1543  -55.2665 N.am      22 UNK        -0.7600 
    123 O         -0.2221  -20.7207  -53.5632 O.2       22 UNK        -0.5000 
    124 C124       -1.3784  -18.1181  -53.0384 C.3       23 UNK        -0.0398 
    125 S125       -2.4797  -16.9047  -52.2316 S.3       23 UNK        -0.2404 
    126 C126       -2.8921  -17.7637  -50.6790 C.3       23 UNK        -0.0205 
    127 H127        0.4661  -16.5423  -51.3403 H         1 UNK         0.0600 
    128 H128        1.8983  -17.5503  -51.5723 H         1 UNK         0.0600 
    129 H129        1.5336  -16.2479  -52.7130 H         1 UNK         0.0600 
    130 H130        0.7938  -15.3150  -49.5213 H         1 UNK         0.3000 
    131 H131        3.3911  -14.3828  -48.6657 H         1 UNK         0.0600 
    132 H132        1.7862  -15.0340  -46.9660 H         1 UNK         0.0800 
    133 H133        2.1194  -13.3499  -46.7946 H         1 UNK         0.0800 
    134 H134       -0.4020  -15.4052  -45.8800 H         1 UNK         0.0800 
    135 H135       -1.9376  -14.9548  -46.5666 H         1 UNK         0.0800 
    136 H136       -2.6122  -15.7717  -48.8512 H         1 UNK         0.1150 
    137 H137       -0.7692  -19.4211  -50.1525 H         1 UNK         0.1150 
    138 H138        0.9319  -17.2007  -46.9111 H         1 UNK         0.1150 
    139 H139        1.6023  -19.7985  -49.3930 H         1 UNK         0.0800 
    140 H140        2.2255  -18.9406  -48.0129 H         1 UNK         0.0800 
    141 H141        1.4476  -22.1119  -49.2041 H         1 UNK         0.0800 
    142 H142       -0.2779  -21.9851  -49.0335 H         1 UNK         0.0800 
    143 H143        0.7259  -24.2691  -48.6630 H         1 UNK         0.0600 
    144 H144        2.2709  -23.0069  -46.5858 H         1 UNK         0.3000 
    145 H145        3.5951  -26.1728  -45.4277 H         1 UNK         0.0600 
    146 H146        5.6187  -24.8155  -45.8029 H         1 UNK         0.0600 
    147 H147        4.8908  -25.2181  -47.3493 H         1 UNK         0.0600 
    148 H148        4.6949  -23.6005  -46.6848 H         1 UNK         0.0600 
    149 H149        3.9045  -23.5712  -44.3329 H         1 UNK         0.3000 
    150 H150        1.3146  -23.7133  -41.9090 H         1 UNK         0.0600 
    151 H151        4.3350  -24.1056  -41.5688 H         1 UNK         0.0600 
    152 H152        3.0935  -25.1932  -40.9591 H         1 UNK         0.0600 
    153 H153        3.2074  -23.5591  -40.3269 H         1 UNK         0.0600 
    154 H154        3.3800  -21.8469  -42.1405 H         1 UNK         0.3000 
    155 H155        2.6666  -19.6855  -42.6887 H         1 UNK         0.0600 
    156 H156        3.2784  -20.3675  -45.6224 H         1 UNK         0.0600 
    157 H157        4.3928  -20.5105  -44.2718 H         1 UNK         0.0600 
    158 H158        3.8349  -18.9249  -44.7774 H         1 UNK         0.0600 
    159 H159        1.1701  -19.1674  -45.1575 H         1 UNK         0.3000 
    160 H160       -0.4873  -17.5136  -44.9401 H         1 UNK         0.0600 
    161 H161       -1.3015  -19.8202  -45.4603 H         1 UNK         0.0600 
    162 H162       -2.6302  -18.6764  -45.3825 H         1 UNK         0.0600 
    163 H163       -2.3375  -19.7889  -44.0418 H         1 UNK         0.0600 
    164 H164       -2.5766  -17.6454  -42.9302 H         1 UNK         0.3000 
    165 H165       -3.2901  -15.5340  -42.1892 H         1 UNK         0.0600 
    166 H166       -2.8008  -15.4536  -39.7286 H         1 UNK         0.0600 
    167 H167       -2.2947  -16.9966  -40.3971 H         1 UNK         0.0600 
    168 H168       -1.0934  -15.7610  -40.0430 H         1 UNK         0.0600 
    169 H169       -1.0590  -13.6812  -42.1496 H         1 UNK         0.3000 
    170 H170       -3.1846  -10.9264  -42.1297 H         1 UNK         0.0600 
    171 H171       -1.9121   -9.8856  -40.2690 H         1 UNK         0.0600 
    172 H172       -3.0867  -11.0278  -39.6384 H         1 UNK         0.0600 
    173 H173       -1.3864  -11.4737  -39.7076 H         1 UNK         0.0600 
    174 H174       -0.3320  -11.0963  -41.8897 H         1 UNK         0.3000 
    175 H175        0.7845  -10.3244  -43.8201 H         1 UNK         0.0600 
    176 H176        1.3518  -12.6356  -43.1165 H         1 UNK         0.0600 
    177 H177        0.7811  -13.2807  -44.6450 H         1 UNK         0.0600 
    178 H178        2.2071  -12.2389  -44.5952 H         1 UNK         0.0600 
    179 H179        0.3954  -11.5803  -46.4243 H         1 UNK         0.3000 
    180 H180       -1.0707  -10.1782  -48.0884 H         1 UNK         0.0600 
    181 H181        0.1793   -7.3818  -47.9909 H         1 UNK         0.0600 
    182 H182       -1.5321   -7.7619  -47.8570 H         1 UNK         0.0600 
    183 H183       -0.6859   -8.0702  -49.3640 H         1 UNK         0.0600 
    184 H184        0.7854  -10.8088  -49.1231 H         1 UNK         0.3000 
    185 H185        3.0302  -10.2000  -50.2473 H         1 UNK         0.0600 
    186 H186        4.7802   -8.7932  -49.1934 H         1 UNK         0.0600 
    187 H187        5.0081   -9.9841  -47.9172 H         1 UNK         0.0600 
    188 H188        5.4179  -10.3808  -49.5858 H         1 UNK         0.0600 
    189 H189        3.8465  -12.1192  -48.1733 H         1 UNK         0.3000 
    190 H190        0.0418  -23.3723  -45.3038 H         1 UNK         0.3000 
    191 H191       -2.7784  -23.8109  -45.4112 H         1 UNK         0.0600 
    192 H192       -1.6896  -22.6294  -43.5342 H         1 UNK         0.0600 
    193 H193       -2.5742  -24.0267  -42.9389 H         1 UNK         0.0600 
    194 H194       -0.8216  -24.0926  -43.0752 H         1 UNK         0.0600 
    195 H195       -0.0474  -26.0375  -44.5887 H         1 UNK         0.3000 
    196 H196       -1.6552  -28.3426  -44.1692 H         1 UNK         0.0600 
    197 H197        0.5347  -29.5515  -44.3251 H         1 UNK         0.0600 
    198 H198        0.6379  -28.1423  -43.2818 H         1 UNK         0.0600 
    199 H199        1.3054  -28.0817  -44.9125 H         1 UNK         0.0600 
    200 H200       -0.0013  -27.1186  -47.1012 H         1 UNK         0.3000 
    201 H201       -0.7253  -29.3335  -48.7925 H         1 UNK         0.0600 
    202 H202        0.1149  -27.8328  -50.5953 H         1 UNK         0.0600 
    203 H203        1.2212  -27.8370  -49.2314 H         1 UNK         0.0600 
    204 H204        0.1345  -26.4718  -49.4816 H         1 UNK         0.0600 
    205 H205       -2.5647  -26.7240  -47.5861 H         1 UNK         0.3000 
    206 H206       -4.5502  -25.8569  -47.8815 H         1 UNK         0.0600 
    207 H207       -5.3980  -28.2097  -48.1200 H         1 UNK         0.0600 
    208 H208       -6.3666  -27.0471  -49.0105 H         1 UNK         0.0600 
    209 H209       -5.2379  -28.0798  -49.8720 H         1 UNK         0.0600 
    210 H210       -2.2237  -25.3265  -49.7523 H         1 UNK         0.3000 
    211 H211       -3.3157  -24.1656  -52.1800 H         1 UNK         0.0600 
    212 H212       -0.6195  -23.7872  -50.7631 H         1 UNK         0.0600 
    213 H213       -1.0125  -23.2078  -52.3769 H         1 UNK         0.0600 
    214 H214       -0.9565  -24.9344  -52.0574 H         1 UNK         0.0600 
    215 H215       -2.8183  -23.1282  -48.8543 H         1 UNK         0.3000 
    216 H216       -3.0285  -20.3258  -49.1234 H         1 UNK         0.0600 
    217 H217       -3.7095  -20.4417  -46.7042 H         1 UNK         0.0600 
    218 H218       -2.2826  -21.4025  -47.0511 H         1 UNK         0.0600 
    219 H219       -3.8493  -22.1888  -46.8408 H         1 UNK         0.0600 
    220 H220       -5.5159  -22.7729  -49.4274 H         1 UNK         0.3000 
    221 H221       -7.7710  -20.9691  -48.9657 H         1 UNK         0.0600 
    222 H222       -7.6640  -23.8419  -50.0265 H         1 UNK         0.0600 
    223 H223       -7.8689  -23.3853  -48.3351 H         1 UNK         0.0600 
    224 H224       -9.1064  -22.9782  -49.5131 H         1 UNK         0.0600 
    225 H225       -5.6947  -21.6541  -51.6637 H         1 UNK         0.3000 
    226 H226       -7.7212  -21.1781  -53.7418 H         1 UNK         0.0600 
    227 H227       -5.8108  -21.4745  -55.2785 H         1 UNK         0.0600 
    228 H228       -4.6738  -21.4822  -53.9390 H         1 UNK         0.0600 
    229 H229       -5.8362  -22.7941  -54.1190 H         1 UNK         0.0600 
    230 H230       -7.9842  -19.2494  -54.8370 H         1 UNK         0.3000 
    231 H231       -7.1388  -16.7939  -53.6575 H         1 UNK         0.0600 
    232 H232       -8.4099  -17.3655  -56.3899 H         1 UNK         0.0600 
    233 H233       -8.3012  -15.7847  -55.6252 H         1 UNK         0.0600 
    234 H234       -9.2787  -17.0437  -54.8884 H         1 UNK         0.0600 
    235 H235       -5.8010  -18.7497  -56.2575 H         1 UNK         0.3000 
    236 H236       -3.8458  -16.7446  -57.1355 H         1 UNK         0.0600 
    237 H237       -4.8345  -18.3637  -58.7488 H         1 UNK         0.0600 
    238 H238       -3.0986  -18.5953  -58.6265 H         1 UNK         0.0600 
    239 H239       -4.1883  -19.7160  -57.8188 H         1 UNK         0.0600 
    240 H240       -4.0839  -18.8763  -54.4929 H         1 UNK         0.3000 
    241 H241       -2.7872  -19.7238  -52.9820 H         1 UNK         0.0600 
    242 H242       -2.3832  -20.9396  -55.7998 H         1 UNK         0.3800 
    243 H243       -0.9579  -21.9124  -55.5514 H         1 UNK         0.3800 
    244 H244       -0.6952  -18.5147  -52.2889 H         1 UNK         0.0800 
    245 H245       -0.7518  -17.5893  -53.7572 H         1 UNK         0.0800 
    246 H246       -3.8307  -17.3589  -50.2974 H         1 UNK         0.0800 
    247 H247       -3.0890  -18.8165  -50.8805 H         1 UNK         0.0800 
@<TRIPOS>BOND
     1    1    2 1    
     2    1  127 1    
     3    1  128 1    
     4    1  129 1    
     5    2    3 2    
     6    2    4 am   BACKBONE|DICT|INTERRES
     7    4    5 1    
     8    4  130 1    
     9    5    6 1    
    10    5   65 1    
    11    5  131 1    
    12    6    7 1    
    13    6  132 1    
    14    6  133 1    
    15    7    8 1    
    16    8    9 1    
    17    8  134 1    
    18    8  135 1    
    19    9   10 ar   
    20    9   14 ar   
    21   10   11 ar   
    22   10  136 1    
    23   11   12 ar   
    24   11  126 1    
    25   12   13 ar   
    26   12  137 1    
    27   13   14 ar   
    28   13   15 1    
    29   14  138 1    
    30   15   16 1    
    31   15  139 1    
    32   15  140 1    
    33   16   17 1    
    34   17   18 1    
    35   17  141 1    
    36   17  142 1    
    37   18   19 1    
    38   18   67 1    
    39   18  143 1    
    40   19   20 am   BACKBONE|DICT|INTERRES
    41   19  144 1    
    42   20   21 2    
    43   20   22 1    
    44   22   23 1    
    45   22   24 1    
    46   22  145 1    
    47   23  146 1    
    48   23  147 1    
    49   23  148 1    
    50   24   25 am   BACKBONE|DICT|INTERRES
    51   24  149 1    
    52   25   26 2    
    53   25   27 1    
    54   27   28 1    
    55   27   29 1    
    56   27  150 1    
    57   28  151 1    
    58   28  152 1    
    59   28  153 1    
    60   29   30 am   BACKBONE|DICT|INTERRES
    61   29  154 1    
    62   30   31 2    
    63   30   32 1    
    64   32   33 1    
    65   32   34 1    
    66   32  155 1    
    67   33  156 1    
    68   33  157 1    
    69   33  158 1    
    70   34   35 am   BACKBONE|DICT|INTERRES
    71   34  159 1    
    72   35   36 2    
    73   35   37 1    
    74   37   38 1    
    75   37   39 1    
    76   37  160 1    
    77   38  161 1    
    78   38  162 1    
    79   38  163 1    
    80   39   40 am   BACKBONE|DICT|INTERRES
    81   39  164 1    
    82   40   41 2    
    83   40   42 1    
    84   42   43 1    
    85   42   44 1    
    86   42  165 1    
    87   43  166 1    
    88   43  167 1    
    89   43  168 1    
    90   44   45 am   BACKBONE|DICT|INTERRES
    91   44  169 1    
    92   45   46 2    
    93   45   47 1    
    94   47   48 1    
    95   47   49 1    
    96   47  170 1    
    97   48  171 1    
    98   48  172 1    
    99   48  173 1    
   100   49   50 am   BACKBONE|DICT|INTERRES
   101   49  174 1    
   102   50   51 2    
   103   50   52 1    
   104   52   53 1    
   105   52   54 1    
   106   52  175 1    
   107   53  176 1    
   108   53  177 1    
   109   53  178 1    
   110   54   55 am   BACKBONE|DICT|INTERRES
   111   54  179 1    
   112   55   56 2    
   113   55   57 1    
   114   57   58 1    
   115   57   59 1    
   116   57  180 1    
   117   58  181 1    
   118   58  182 1    
   119   58  183 1    
   120   59   60 am   BACKBONE|DICT|INTERRES
   121   59  184 1    
   122   60   61 2    
   123   60   62 1    
   124   62   63 1    
   125   62   64 1    
   126   62  185 1    
   127   63  186 1    
   128   63  187 1    
   129   63  188 1    
   130   64   65 am   BACKBONE|DICT|INTERRES
   131   64  189 1    
   132   65   66 2    
   133   67   68 2    
   134   67   69 am   BACKBONE|DICT|INTERRES
   135   69   70 1    
   136   69  190 1    
   137   70   71 1    
   138   70   72 1    
   139   70  191 1    
   140   71  192 1    
   141   71  193 1    
   142   71  194 1    
   143   72   73 2    
   144   72   74 am   BACKBONE|DICT|INTERRES
   145   74   75 1    
   146   74  195 1    
   147   75   76 1    
   148   75   77 1    
   149   75  196 1    
   150   76  197 1    
   151   76  198 1    
   152   76  199 1    
   153   77   78 2    
   154   77   79 am   BACKBONE|DICT|INTERRES
   155   79   80 1    
   156   79  200 1    
   157   80   81 1    
   158   80   82 1    
   159   80  201 1    
   160   81  202 1    
   161   81  203 1    
   162   81  204 1    
   163   82   83 2    
   164   82   84 am   BACKBONE|DICT|INTERRES
   165   84   85 1    
   166   84  205 1    
   167   85   86 1    
   168   85   87 1    
   169   85  206 1    
   170   86  207 1    
   171   86  208 1    
   172   86  209 1    
   173   87   88 2    
   174   87   89 am   BACKBONE|DICT|INTERRES
   175   89   90 1    
   176   89  210 1    
   177   90   91 1    
   178   90   92 1    
   179   90  211 1    
   180   91  212 1    
   181   91  213 1    
   182   91  214 1    
   183   92   93 2    
   184   92   94 am   BACKBONE|DICT|INTERRES
   185   94   95 1    
   186   94  215 1    
   187   95   96 1    
   188   95   97 1    
   189   95  216 1    
   190   96  217 1    
   191   96  218 1    
   192   96  219 1    
   193   97   98 2    
   194   97   99 am   BACKBONE|DICT|INTERRES
   195   99  100 1    
   196   99  220 1    
   197  100  101 1    
   198  100  102 1    
   199  100  221 1    
   200  101  222 1    
   201  101  223 1    
   202  101  224 1    
   203  102  103 2    
   204  102  104 am   BACKBONE|DICT|INTERRES
   205  104  105 1    
   206  104  225 1    
   207  105  106 1    
   208  105  107 1    
   209  105  226 1    
   210  106  227 1    
   211  106  228 1    
   212  106  229 1    
   213  107  108 2    
   214  107  109 am   BACKBONE|DICT|INTERRES
   215  109  110 1    
   216  109  230 1    
   217  110  111 1    
   218  110  112 1    
   219  110  231 1    
   220  111  232 1    
   221  111  233 1    
   222  111  234 1    
   223  112  113 2    
   224  112  114 am   BACKBONE|DICT|INTERRES
   225  114  115 1    
   226  114  235 1    
   227  115  116 1    
   228  115  117 1    
   229  115  236 1    
   230  116  237 1    
   231  116  238 1    
   232  116  239 1    
   233  117  118 2    
   234  117  119 am   BACKBONE|DICT|INTERRES
   235  119  120 1    
   236  119  240 1    
   237  120  121 1    
   238  120  124 1    
   239  120  241 1    
   240  121  122 am   BACKBONE|DICT|INTERRES
   241  121  123 2    
   242  122  242 1    
   243  122  243 1    
   244  124  125 1    
   245  124  244 1    
   246  124  245 1    
   247  125  126 1    
   248  126  246 1    
   249  126  247 1    
@<TRIPOS>SUBSTRUCTURE
     1 UNK         1 GROUP             0       ****    0 ROOT    
