@<TRIPOS>MOLECULE
3R540
247   249    1
SMALL
USER_CHARGES


@<TRIPOS>ATOM
      1 CA          5.4660  -10.6913  -50.8673 C.3       0 UNK        -0.1800 
      2 C           4.4361  -11.7914  -51.0849 C.2       0 UNK         0.5000 
      3 O           3.7851  -11.8132  -52.1287 O.2       0 UNK        -0.5000 
      4 N           4.3027  -12.6954  -50.1049 N.am      1 UNK        -0.5000 
      5 CA          3.3690  -13.8259  -50.0516 C.3       1 UNK         0.1400 
      6 C6          3.6183  -14.9176  -51.1326 C.3       23 UNK        -0.0398 
      7 S7          5.0450  -15.9987  -50.7647 S.3       23 UNK        -0.2404 
      8 C8          4.5393  -16.9026  -49.2553 C.3       23 UNK        -0.0205 
      9 C9          3.2536  -17.7063  -49.4152 C.ar      23 UNK        -0.0193 
     10 C10         2.0127  -17.0937  -49.2180 C.ar      23 UNK        -0.1150 
     11 C11         0.8274  -17.8205  -49.3327 C.ar      23 UNK        -0.0193 
     12 C12         0.8896  -19.1903  -49.5998 C.ar      23 UNK        -0.1150 
     13 C13         2.1225  -19.8254  -49.7758 C.ar      23 UNK        -0.0193 
     14 C14         3.3007  -19.0738  -49.7038 C.ar      23 UNK        -0.1150 
     15 C15         2.1742  -21.3293  -50.0113 C.3       23 UNK        -0.0205 
     16 S16         3.0225  -22.2327  -48.6682 S.3       23 UNK        -0.2404 
     17 C17         2.1771  -21.6330  -47.1617 C.3       23 UNK        -0.0398 
     18 CA          1.0869  -22.5845  -46.6185 C.3       11 UNK         0.1400 
     19 N           0.7020  -22.2348  -45.2493 N.am      11 UNK        -0.5000 
     20 C          -0.1162  -22.9546  -44.4693 C.2       10 UNK         0.5000 
     21 O          -0.5889  -24.0431  -44.7958 O.2       10 UNK        -0.5000 
     22 CA         -0.5105  -22.3320  -43.1170 C.3       10 UNK         0.1400 
     23 CB          0.5795  -22.5767  -42.0634 C.3       10 UNK        -0.1800 
     24 N          -0.7885  -20.8977  -43.2169 N.am      10 UNK        -0.5000 
     25 C          -1.7963  -20.3678  -43.9258 C.2       9 UNK         0.5000 
     26 O          -2.6351  -21.0414  -44.5242 O.2       9 UNK        -0.5000 
     27 CA         -1.8428  -18.8306  -44.0321 C.3       9 UNK         0.1400 
     28 CB         -2.4604  -18.2047  -42.7738 C.3       9 UNK        -0.1800 
     29 N          -0.5245  -18.2440  -44.2783 N.am      9 UNK        -0.5000 
     30 C           0.2094  -18.4813  -45.3744 C.2       8 UNK         0.5000 
     31 O          -0.1800  -19.1693  -46.3163 O.2       8 UNK        -0.5000 
     32 CA          1.6351  -17.9049  -45.3978 C.3       8 UNK         0.1400 
     33 CB          1.6358  -16.4317  -45.8213 C.3       8 UNK        -0.1800 
     34 N           2.3014  -18.0366  -44.1038 N.am      8 UNK        -0.5000 
     35 C           2.6923  -19.2009  -43.5692 C.2       7 UNK         0.5000 
     36 O           2.5683  -20.2872  -44.1324 O.2       7 UNK        -0.5000 
     37 CA          3.2771  -19.1421  -42.1469 C.3       7 UNK         0.1400 
     38 CB          4.7641  -18.7599  -42.1868 C.3       7 UNK        -0.1800 
     39 N           2.5557  -18.2035  -41.2857 N.am      7 UNK        -0.5000 
     40 C           1.2838  -18.3632  -40.8931 C.2       6 UNK         0.5000 
     41 O           0.5953  -19.3390  -41.1890 O.2       6 UNK        -0.5000 
     42 CA          0.6641  -17.2182  -40.0712 C.3       6 UNK         0.1400 
     43 CB          0.9585  -17.4063  -38.5757 C.3       6 UNK        -0.1800 
     44 N           1.1163  -15.8891  -40.4940 N.am      6 UNK        -0.5000 
     45 C           0.8776  -15.3563  -41.6991 C.2       5 UNK         0.5000 
     46 O           0.2883  -15.9512  -42.6054 O.2       5 UNK        -0.5000 
     47 CA          1.4353  -13.9460  -41.9503 C.3       5 UNK         0.1400 
     48 CB          2.7782  -14.0238  -42.6929 C.3       5 UNK        -0.1800 
     49 N           0.4916  -13.1733  -42.7518 N.am      5 UNK        -0.5000 
     50 C          -0.5597  -12.5059  -42.2540 C.2       4 UNK         0.5000 
     51 O          -0.7655  -12.3510  -41.0495 O.2       4 UNK        -0.5000 
     52 CA         -1.5637  -11.9357  -43.2760 C.3       4 UNK         0.1400 
     53 CB         -1.1739  -10.5066  -43.6826 C.3       4 UNK        -0.1800 
     54 N          -1.6387  -12.7692  -44.4744 N.am      4 UNK        -0.5000 
     55 C          -2.1983  -13.9840  -44.5245 C.2       3 UNK         0.5000 
     56 O          -2.8980  -14.4339  -43.6163 O.2       3 UNK        -0.5000 
     57 CA         -1.9069  -14.8508  -45.7725 C.3       3 UNK         0.1400 
     58 CB         -3.0962  -15.7490  -46.1531 C.3       3 UNK        -0.1800 
     59 N          -1.4553  -14.1198  -46.9661 N.am      3 UNK        -0.5000 
     60 C          -0.2734  -13.5147  -47.1321 C.2       2 UNK         0.5000 
     61 O           0.5785  -13.4252  -46.2445 O.2       2 UNK        -0.5000 
     62 CA         -0.0024  -12.8755  -48.4997 C.3       2 UNK         0.1400 
     63 CB         -0.3258  -11.3734  -48.4819 C.3       2 UNK        -0.1800 
     64 N           1.4078  -13.0775  -48.8085 N.am      2 UNK        -0.5000 
     65 C           1.8962  -13.3645  -50.0197 C.2       1 UNK         0.5000 
     66 O           1.2315  -13.3165  -51.0560 O.2       1 UNK        -0.5000 
     67 C          -0.1411  -22.6550  -47.5490 C.2       11 UNK         0.5000 
     68 O          -0.2951  -23.6459  -48.2604 O.2       11 UNK        -0.5000 
     69 N          -1.0197  -21.6429  -47.4903 N.am      12 UNK        -0.5000 
     70 CA         -2.2825  -21.6037  -48.2309 C.3       12 UNK         0.1400 
     71 CB         -2.9607  -20.2402  -48.0481 C.3       12 UNK        -0.1800 
     72 C          -3.2407  -22.7459  -47.8533 C.2       12 UNK         0.5000 
     73 O          -3.8377  -23.3499  -48.7428 O.2       12 UNK        -0.5000 
     74 N          -3.3409  -23.0546  -46.5530 N.am      13 UNK        -0.5000 
     75 CA         -4.1288  -24.1733  -46.0326 C.3       13 UNK         0.1400 
     76 CB         -4.1739  -24.1051  -44.4987 C.3       13 UNK        -0.1800 
     77 C          -3.6135  -25.5455  -46.5097 C.2       13 UNK         0.5000 
     78 O          -4.4230  -26.4109  -46.8446 O.2       13 UNK        -0.5000 
     79 N          -2.2843  -25.7115  -46.5541 N.am      14 UNK        -0.5000 
     80 CA         -1.6144  -26.9109  -47.0572 C.3       14 UNK         0.1400 
     81 CB         -0.1400  -26.8914  -46.6244 C.3       14 UNK        -0.1800 
     82 C          -1.7355  -27.0626  -48.5855 C.2       14 UNK         0.5000 
     83 O          -2.0027  -28.1642  -49.0674 O.2       14 UNK        -0.5000 
     84 N          -1.5380  -25.9574  -49.3165 N.am      15 UNK        -0.5000 
     85 CA         -1.6251  -25.8833  -50.7761 C.3       15 UNK         0.1400 
     86 CB         -1.0222  -24.5489  -51.2373 C.3       15 UNK        -0.1800 
     87 C          -3.0605  -26.0354  -51.3122 C.2       15 UNK         0.5000 
     88 O          -3.2416  -26.5562  -52.4143 O.2       15 UNK        -0.5000 
     89 N          -4.0474  -25.5759  -50.5301 N.am      16 UNK        -0.5000 
     90 CA         -5.4809  -25.5759  -50.8178 C.3       16 UNK         0.1400 
     91 CB         -6.0383  -27.0170  -50.7978 C.3       16 UNK        -0.1800 
     92 C          -5.7829  -24.7880  -52.1076 C.2       16 UNK         0.5000 
     93 O          -5.5025  -23.5907  -52.1569 O.2       16 UNK        -0.5000 
     94 N          -6.3127  -25.4620  -53.1368 N.am      17 UNK        -0.5000 
     95 CA         -6.6614  -24.8852  -54.4376 C.3       17 UNK         0.1400 
     96 CB         -7.3639  -25.9575  -55.2840 C.3       17 UNK        -0.1800 
     97 C          -5.4707  -24.2831  -55.2125 C.2       17 UNK         0.5000 
     98 O          -5.6837  -23.3987  -56.0425 O.2       17 UNK        -0.5000 
     99 N          -4.2449  -24.7475  -54.9262 N.am      18 UNK        -0.5000 
    100 CA        -3.0112  -24.2530  -55.5431 C.3       18 UNK         0.1400 
    101 CB        -1.8916  -25.2850  -55.3389 C.3       18 UNK        -0.1800 
    102 C         -2.5808  -22.8556  -55.0470 C.2       18 UNK         0.5000 
    103 O         -1.7548  -22.2203  -55.7037 O.2       18 UNK        -0.5000 
    104 N         -3.1465  -22.3882  -53.9267 N.am      19 UNK        -0.5000 
    105 CA        -2.9500  -21.0448  -53.3857 C.3       19 UNK         0.1400 
    106 CB        -1.7284  -21.0124  -52.4480 C.3       19 UNK        -0.1800 
    107 C         -4.2551  -20.5990  -52.7106 C.2       19 UNK         0.5000 
    108 O         -4.2661  -20.2825  -51.5203 O.2       19 UNK        -0.5000 
    109 N         -5.3480  -20.6342  -53.4864 N.am      20 UNK        -0.5000 
    110 CA        -6.6999  -20.2925  -53.0466 C.3       20 UNK         0.1400 
    111 CB        -7.6887  -20.5941  -54.1829 C.3       20 UNK        -0.1800 
    112 C         -6.8105  -18.8211  -52.6060 C.2       20 UNK         0.5000 
    113 O         -6.3040  -17.9371  -53.3028 O.2       20 UNK        -0.5000 
    114 N         -7.4731  -18.5985  -51.4624 N.am      21 UNK        -0.5000 
    115 CA        -7.6567  -17.3323  -50.7406 C.3       21 UNK         0.1400 
    116 CB        -8.4242  -16.2927  -51.5822 C.3       21 UNK        -0.1800 
    117 C         -6.3408  -16.7632  -50.1748 C.2       21 UNK         0.5000 
    118 O         -6.1999  -16.6687  -48.9553 O.2       21 UNK        -0.5000 
    119 N         -5.4003  -16.4261  -51.0658 N.am      22 UNK        -0.5000 
    120 CA        -4.0408  -15.9495  -50.7629 C.3       22 UNK         0.1400 
    121 C         -3.9807  -14.5782  -50.0196 C.2       22 UNK         0.5000 
    122 N         -4.9729  -13.7106  -50.1754 N.am      22 UNK        -0.7600 
    123 O         -3.0304  -14.2844  -49.3008 O.2       22 UNK        -0.5000 
    124 C124       -3.1808  -17.0629  -50.0998 C.3       23 UNK        -0.0398 
    125 S125       -1.4583  -17.0940  -50.7009 S.3       23 UNK        -0.2404 
    126 C126       -0.5178  -17.1360  -49.1438 C.3       23 UNK        -0.0205 
    127 H127        6.2188  -10.7212  -51.6551 H         1 UNK         0.0600 
    128 H128        5.9744  -10.7933  -49.9082 H         1 UNK         0.0600 
    129 H129        4.9827   -9.7146  -50.8932 H         1 UNK         0.0600 
    130 H130        4.8826  -12.5918  -49.2840 H         1 UNK         0.3000 
    131 H131        3.5476  -14.2797  -49.0782 H         1 UNK         0.0600 
    132 H132        2.7476  -15.5590  -51.2711 H         1 UNK         0.0800 
    133 H133        3.7793  -14.4611  -52.1095 H         1 UNK         0.0800 
    134 H134        4.4438  -16.2132  -48.4165 H         1 UNK         0.0800 
    135 H135        5.3533  -17.5744  -48.9790 H         1 UNK         0.0800 
    136 H136        1.9651  -16.0462  -48.9700 H         1 UNK         0.1150 
    137 H137       -0.0268  -19.7605  -49.6598 H         1 UNK         0.1150 
    138 H138        4.2550  -19.5635  -49.8377 H         1 UNK         0.1150 
    139 H139        1.1693  -21.7374  -50.1318 H         1 UNK         0.0800 
    140 H140        2.6945  -21.5235  -50.9500 H         1 UNK         0.0800 
    141 H141        1.7810  -20.6296  -47.3061 H         1 UNK         0.0800 
    142 H142        2.9601  -21.5246  -46.4110 H         1 UNK         0.0800 
    143 H143        1.5151  -23.5881  -46.5721 H         1 UNK         0.0600 
    144 H144        1.0968  -21.3772  -44.8764 H         1 UNK         0.3000 
    145 H145       -1.4240  -22.8254  -42.7791 H         1 UNK         0.0600 
    146 H146        1.5147  -22.0826  -42.3273 H         1 UNK         0.0600 
    147 H147        0.2714  -22.2065  -41.0854 H         1 UNK         0.0600 
    148 H148        0.7884  -23.6419  -41.9575 H         1 UNK         0.0600 
    149 H149       -0.1729  -20.2769  -42.6992 H         1 UNK         0.3000 
    150 H150       -2.4797  -18.5788  -44.8823 H         1 UNK         0.0600 
    151 H151       -3.4713  -18.5791  -42.6091 H         1 UNK         0.0600 
    152 H152       -2.5245  -17.1201  -42.8639 H         1 UNK         0.0600 
    153 H153       -1.8772  -18.4311  -41.8816 H         1 UNK         0.0600 
    154 H154       -0.1541  -17.6249  -43.5636 H         1 UNK         0.3000 
    155 H155        2.2048  -18.4673  -46.1408 H         1 UNK         0.0600 
    156 H156        1.2161  -15.7895  -45.0492 H         1 UNK         0.0600 
    157 H157        2.6458  -16.0818  -46.0343 H         1 UNK         0.0600 
    158 H158        1.0408  -16.2813  -46.7202 H         1 UNK         0.0600 
    159 H159        2.3920  -17.1970  -43.5524 H         1 UNK         0.3000 
    160 H160        3.1917  -20.1394  -41.7100 H         1 UNK         0.0600 
    161 H161        5.3280  -19.4536  -42.8119 H         1 UNK         0.0600 
    162 H162        4.9140  -17.7578  -42.5905 H         1 UNK         0.0600 
    163 H163        5.2055  -18.7902  -41.1904 H         1 UNK         0.0600 
    164 H164        3.0503  -17.3737  -40.9939 H         1 UNK         0.3000 
    165 H165       -0.4179  -17.2613  -40.2122 H         1 UNK         0.0600 
    166 H166        0.4493  -16.6521  -37.9755 H         1 UNK         0.0600 
    167 H167        0.6134  -18.3818  -38.2300 H         1 UNK         0.0600 
    168 H168        2.0262  -17.3415  -38.3629 H         1 UNK         0.0600 
    169 H169        1.6156  -15.3443  -39.8055 H         1 UNK         0.3000 
    170 H170        1.5975  -13.4461  -40.9930 H         1 UNK         0.0600 
    171 H171        3.5083  -14.6020  -42.1252 H         1 UNK         0.0600 
    172 H172        2.6758  -14.4924  -43.6718 H         1 UNK         0.0600 
    173 H173        3.1994  -13.0298  -42.8442 H         1 UNK         0.0600 
    174 H174        0.5566  -13.2909  -43.7539 H         1 UNK         0.3000 
    175 H175       -2.5485  -11.9056  -42.8050 H         1 UNK         0.0600 
    176 H176       -0.1988  -10.4779  -44.1708 H         1 UNK         0.0600 
    177 H177       -1.9053  -10.0788  -44.3685 H         1 UNK         0.0600 
    178 H178       -1.1248   -9.8529  -42.8108 H         1 UNK         0.0600 
    179 H179       -1.0405  -12.5070  -45.2463 H         1 UNK         0.3000 
    180 H180       -1.0972  -15.5152  -45.4704 H         1 UNK         0.0600 
    181 H181       -3.9138  -15.1732  -46.5881 H         1 UNK         0.0600 
    182 H182       -3.4923  -16.2866  -45.2911 H         1 UNK         0.0600 
    183 H183       -2.7900  -16.5042  -46.8739 H         1 UNK         0.0600 
    184 H184       -2.1001  -14.1268  -47.7567 H         1 UNK         0.3000 
    185 H185       -0.6195  -13.3725  -49.2500 H         1 UNK         0.0600 
    186 H186       -0.1277  -10.9178  -49.4522 H         1 UNK         0.0600 
    187 H187       -1.3786  -11.2049  -48.2517 H         1 UNK         0.0600 
    188 H188        0.2659  -10.8424  -47.7351 H         1 UNK         0.0600 
    189 H189        1.9988  -13.1479  -47.9893 H         1 UNK         0.3000 
    190 H190       -0.8060  -20.8363  -46.9080 H         1 UNK         0.3000 
    191 H191       -2.0441  -21.7172  -49.2887 H         1 UNK         0.0600 
    192 H192       -3.1380  -20.0088  -46.9980 H         1 UNK         0.0600 
    193 H193       -3.9218  -20.2077  -48.5635 H         1 UNK         0.0600 
    194 H194       -2.3467  -19.4497  -48.4701 H         1 UNK         0.0600 
    195 H195       -2.8599  -22.4740  -45.8723 H         1 UNK         0.3000 
    196 H196       -5.1492  -24.0578  -46.4040 H         1 UNK         0.0600 
    197 H197       -4.7912  -24.9063  -44.0908 H         1 UNK         0.0600 
    198 H198       -4.5990  -23.1607  -44.1584 H         1 UNK         0.0600 
    199 H199       -3.1807  -24.2012  -44.0605 H         1 UNK         0.0600 
    200 H200       -1.6877  -24.9664  -46.2076 H         1 UNK         0.3000 
    201 H201       -2.0876  -27.7813  -46.5979 H         1 UNK         0.0600 
    202 H202       -0.0495  -26.8611  -45.5385 H         1 UNK         0.0600 
    203 H203        0.3878  -26.0260  -47.0263 H         1 UNK         0.0600 
    204 H204        0.3810  -27.7849  -46.9705 H         1 UNK         0.0600 
    205 H205       -1.2582  -25.1018  -48.8406 H         1 UNK         0.3000 
    206 H206       -1.0276  -26.6942  -51.1972 H         1 UNK         0.0600 
    207 H207        0.0342  -24.4816  -50.9767 H         1 UNK         0.0600 
    208 H208       -1.1014  -24.4183  -52.3158 H         1 UNK         0.0600 
    209 H209       -1.5346  -23.7116  -50.7659 H         1 UNK         0.0600 
    210 H210       -3.7857  -25.0501  -49.7013 H         1 UNK         0.3000 
    211 H211       -5.9566  -25.0251  -50.0051 H         1 UNK         0.0600 
    212 H212       -5.5937  -27.6465  -51.5693 H         1 UNK         0.0600 
    213 H213       -7.1195  -27.0235  -50.9407 H         1 UNK         0.0600 
    214 H214       -5.8410  -27.4914  -49.8362 H         1 UNK         0.0600 
    215 H215       -6.4802  -26.4512  -53.0235 H         1 UNK         0.3000 
    216 H216       -7.3712  -24.0760  -54.2563 H         1 UNK         0.0600 
    217 H217       -7.6678  -25.5556  -56.2515 H         1 UNK         0.0600 
    218 H218       -8.2638  -26.3245  -54.7900 H         1 UNK         0.0600 
    219 H219       -6.7113  -26.8108  -55.4733 H         1 UNK         0.0600 
    220 H220       -4.1438  -25.4596  -54.2126 H         1 UNK         0.3000 
    221 H221       -3.1840  -24.1657  -56.6179 H         1 UNK         0.0600 
    222 H222       -1.6751  -25.4461  -54.2845 H         1 UNK         0.0600 
    223 H223       -2.1601  -26.2477  -55.7742 H         1 UNK         0.0600 
    224 H224       -0.9667  -24.9601  -55.8172 H         1 UNK         0.0600 
    225 H225       -3.8470  -22.9489  -53.4524 H         1 UNK         0.3000 
    226 H226       -2.7696  -20.3437  -54.2033 H         1 UNK         0.0600 
    227 H227       -0.8226  -21.3375  -52.9596 H         1 UNK         0.0600 
    228 H228       -1.5489  -20.0030  -52.0757 H         1 UNK         0.0600 
    229 H229       -1.8769  -21.6559  -51.5846 H         1 UNK         0.0600 
    230 H230       -5.2473  -20.9119  -54.4516 H         1 UNK         0.3000 
    231 H231       -6.9409  -20.9383  -52.1995 H         1 UNK         0.0600 
    232 H232       -8.7134  -20.3814  -53.8757 H         1 UNK         0.0600 
    233 H233       -7.6481  -21.6433  -54.4745 H         1 UNK         0.0600 
    234 H234       -7.4792  -19.9921  -55.0681 H         1 UNK         0.0600 
    235 H235       -7.8290  -19.4073  -50.9721 H         1 UNK         0.3000 
    236 H236       -8.2858  -17.5732  -49.8820 H         1 UNK         0.0600 
    237 H237       -8.6274  -15.3957  -50.9961 H         1 UNK         0.0600 
    238 H238       -9.3846  -16.6883  -51.9125 H         1 UNK         0.0600 
    239 H239       -7.8701  -15.9816  -52.4677 H         1 UNK         0.0600 
    240 H240       -5.6033  -16.6137  -52.0431 H         1 UNK         0.3000 
    241 H241       -3.6127  -15.7425  -51.7440 H         1 UNK         0.0600 
    242 H242       -4.9344  -12.8246  -49.6975 H         1 UNK         0.3800 
    243 H243       -5.7622  -13.9323  -50.7605 H         1 UNK         0.3800 
    244 H244       -3.2217  -16.9925  -49.0144 H         1 UNK         0.0800 
    245 H245       -3.5914  -18.0451  -50.3337 H         1 UNK         0.0800 
    246 H246       -0.3914  -16.1130  -48.7901 H         1 UNK         0.0800 
    247 H247       -1.0702  -17.6594  -48.3662 H         1 UNK         0.0800 
@<TRIPOS>BOND
     1    1    2 1    
     2    1  127 1    
     3    1  128 1    
     4    1  129 1    
     5    2    3 2    
     6    2    4 am   BACKBONE|DICT|INTERRES
     7    4    5 1    
     8    4  130 1    
     9    5    6 1    
    10    5   65 1    
    11    5  131 1    
    12    6    7 1    
    13    6  132 1    
    14    6  133 1    
    15    7    8 1    
    16    8    9 1    
    17    8  134 1    
    18    8  135 1    
    19    9   10 ar   
    20    9   14 ar   
    21   10   11 ar   
    22   10  136 1    
    23   11   12 ar   
    24   11  126 1    
    25   12   13 ar   
    26   12  137 1    
    27   13   14 ar   
    28   13   15 1    
    29   14  138 1    
    30   15   16 1    
    31   15  139 1    
    32   15  140 1    
    33   16   17 1    
    34   17   18 1    
    35   17  141 1    
    36   17  142 1    
    37   18   19 1    
    38   18   67 1    
    39   18  143 1    
    40   19   20 am   BACKBONE|DICT|INTERRES
    41   19  144 1    
    42   20   21 2    
    43   20   22 1    
    44   22   23 1    
    45   22   24 1    
    46   22  145 1    
    47   23  146 1    
    48   23  147 1    
    49   23  148 1    
    50   24   25 am   BACKBONE|DICT|INTERRES
    51   24  149 1    
    52   25   26 2    
    53   25   27 1    
    54   27   28 1    
    55   27   29 1    
    56   27  150 1    
    57   28  151 1    
    58   28  152 1    
    59   28  153 1    
    60   29   30 am   BACKBONE|DICT|INTERRES
    61   29  154 1    
    62   30   31 2    
    63   30   32 1    
    64   32   33 1    
    65   32   34 1    
    66   32  155 1    
    67   33  156 1    
    68   33  157 1    
    69   33  158 1    
    70   34   35 am   BACKBONE|DICT|INTERRES
    71   34  159 1    
    72   35   36 2    
    73   35   37 1    
    74   37   38 1    
    75   37   39 1    
    76   37  160 1    
    77   38  161 1    
    78   38  162 1    
    79   38  163 1    
    80   39   40 am   BACKBONE|DICT|INTERRES
    81   39  164 1    
    82   40   41 2    
    83   40   42 1    
    84   42   43 1    
    85   42   44 1    
    86   42  165 1    
    87   43  166 1    
    88   43  167 1    
    89   43  168 1    
    90   44   45 am   BACKBONE|DICT|INTERRES
    91   44  169 1    
    92   45   46 2    
    93   45   47 1    
    94   47   48 1    
    95   47   49 1    
    96   47  170 1    
    97   48  171 1    
    98   48  172 1    
    99   48  173 1    
   100   49   50 am   BACKBONE|DICT|INTERRES
   101   49  174 1    
   102   50   51 2    
   103   50   52 1    
   104   52   53 1    
   105   52   54 1    
   106   52  175 1    
   107   53  176 1    
   108   53  177 1    
   109   53  178 1    
   110   54   55 am   BACKBONE|DICT|INTERRES
   111   54  179 1    
   112   55   56 2    
   113   55   57 1    
   114   57   58 1    
   115   57   59 1    
   116   57  180 1    
   117   58  181 1    
   118   58  182 1    
   119   58  183 1    
   120   59   60 am   BACKBONE|DICT|INTERRES
   121   59  184 1    
   122   60   61 2    
   123   60   62 1    
   124   62   63 1    
   125   62   64 1    
   126   62  185 1    
   127   63  186 1    
   128   63  187 1    
   129   63  188 1    
   130   64   65 am   BACKBONE|DICT|INTERRES
   131   64  189 1    
   132   65   66 2    
   133   67   68 2    
   134   67   69 am   BACKBONE|DICT|INTERRES
   135   69   70 1    
   136   69  190 1    
   137   70   71 1    
   138   70   72 1    
   139   70  191 1    
   140   71  192 1    
   141   71  193 1    
   142   71  194 1    
   143   72   73 2    
   144   72   74 am   BACKBONE|DICT|INTERRES
   145   74   75 1    
   146   74  195 1    
   147   75   76 1    
   148   75   77 1    
   149   75  196 1    
   150   76  197 1    
   151   76  198 1    
   152   76  199 1    
   153   77   78 2    
   154   77   79 am   BACKBONE|DICT|INTERRES
   155   79   80 1    
   156   79  200 1    
   157   80   81 1    
   158   80   82 1    
   159   80  201 1    
   160   81  202 1    
   161   81  203 1    
   162   81  204 1    
   163   82   83 2    
   164   82   84 am   BACKBONE|DICT|INTERRES
   165   84   85 1    
   166   84  205 1    
   167   85   86 1    
   168   85   87 1    
   169   85  206 1    
   170   86  207 1    
   171   86  208 1    
   172   86  209 1    
   173   87   88 2    
   174   87   89 am   BACKBONE|DICT|INTERRES
   175   89   90 1    
   176   89  210 1    
   177   90   91 1    
   178   90   92 1    
   179   90  211 1    
   180   91  212 1    
   181   91  213 1    
   182   91  214 1    
   183   92   93 2    
   184   92   94 am   BACKBONE|DICT|INTERRES
   185   94   95 1    
   186   94  215 1    
   187   95   96 1    
   188   95   97 1    
   189   95  216 1    
   190   96  217 1    
   191   96  218 1    
   192   96  219 1    
   193   97   98 2    
   194   97   99 am   BACKBONE|DICT|INTERRES
   195   99  100 1    
   196   99  220 1    
   197  100  101 1    
   198  100  102 1    
   199  100  221 1    
   200  101  222 1    
   201  101  223 1    
   202  101  224 1    
   203  102  103 2    
   204  102  104 am   BACKBONE|DICT|INTERRES
   205  104  105 1    
   206  104  225 1    
   207  105  106 1    
   208  105  107 1    
   209  105  226 1    
   210  106  227 1    
   211  106  228 1    
   212  106  229 1    
   213  107  108 2    
   214  107  109 am   BACKBONE|DICT|INTERRES
   215  109  110 1    
   216  109  230 1    
   217  110  111 1    
   218  110  112 1    
   219  110  231 1    
   220  111  232 1    
   221  111  233 1    
   222  111  234 1    
   223  112  113 2    
   224  112  114 am   BACKBONE|DICT|INTERRES
   225  114  115 1    
   226  114  235 1    
   227  115  116 1    
   228  115  117 1    
   229  115  236 1    
   230  116  237 1    
   231  116  238 1    
   232  116  239 1    
   233  117  118 2    
   234  117  119 am   BACKBONE|DICT|INTERRES
   235  119  120 1    
   236  119  240 1    
   237  120  121 1    
   238  120  124 1    
   239  120  241 1    
   240  121  122 am   BACKBONE|DICT|INTERRES
   241  121  123 2    
   242  122  242 1    
   243  122  243 1    
   244  124  125 1    
   245  124  244 1    
   246  124  245 1    
   247  125  126 1    
   248  126  246 1    
   249  126  247 1    
@<TRIPOS>SUBSTRUCTURE
     1 UNK         1 GROUP             0       ****    0 ROOT    
