@<TRIPOS>MOLECULE
3R540
247   249    1
SMALL
USER_CHARGES


@<TRIPOS>ATOM
      1 CA         -1.9787  -16.3640  -47.2351 C.3       0 UNK        -0.1800 
      2 C          -1.1468  -15.3880  -48.0566 C.2       0 UNK         0.5000 
      3 O          -1.6522  -14.3502  -48.4835 O.2       0 UNK        -0.5000 
      4 N           0.1276  -15.7256  -48.2926 N.am      1 UNK        -0.5000 
      5 CA          1.0619  -14.9012  -49.0708 C.3       1 UNK         0.1400 
      6 C6          2.2012  -15.7370  -49.7057 C.3       23 UNK        -0.0398 
      7 S7          1.5733  -17.0619  -50.7878 S.3       23 UNK        -0.2404 
      8 C8          3.0768  -17.5039  -51.7073 C.3       23 UNK        -0.0205 
      9 C9          2.8696  -18.7931  -52.4855 C.ar      23 UNK        -0.0193 
     10 C10         2.5708  -18.7640  -53.8500 C.ar      23 UNK        -0.1150 
     11 C11         2.3626  -19.9537  -54.5564 C.ar      23 UNK        -0.0193 
     12 C12         2.4556  -21.1736  -53.8783 C.ar      23 UNK        -0.1150 
     13 C13         2.7667  -21.2252  -52.5157 C.ar      23 UNK        -0.0193 
     14 C14         2.9794  -20.0217  -51.8301 C.ar      23 UNK        -0.1150 
     15 C15         2.8683  -22.6037  -51.8524 C.3       23 UNK        -0.0205 
     16 S16         3.2758  -22.6288  -50.0685 S.3       23 UNK        -0.2404 
     17 C17         1.7526  -21.9455  -49.3347 C.3       23 UNK        -0.0398 
     18 CA          1.1706  -22.8303  -48.2080 C.3       11 UNK         0.1400 
     19 N           2.1141  -22.9954  -47.0979 N.am      11 UNK        -0.5000 
     20 C           1.8940  -23.6696  -45.9615 C.2       10 UNK         0.5000 
     21 O           0.8446  -24.2675  -45.7157 O.2       10 UNK        -0.5000 
     22 CA          2.9936  -23.6063  -44.8819 C.3       10 UNK         0.1400 
     23 CB          4.3492  -23.0716  -45.3963 C.3       10 UNK        -0.1800 
     24 N           2.5625  -22.8335  -43.7103 N.am      10 UNK        -0.5000 
     25 C           2.0834  -21.5792  -43.6939 C.2       9 UNK         0.5000 
     26 O           1.8805  -20.9145  -44.7136 O.2       9 UNK        -0.5000 
     27 CA          1.7391  -21.0082  -42.3001 C.3       9 UNK         0.1400 
     28 CB          2.9120  -21.1445  -41.3057 C.3       9 UNK        -0.1800 
     29 N           1.2480  -19.6249  -42.3242 N.am      9 UNK        -0.5000 
     30 C           1.9010  -18.5144  -42.7056 C.2       8 UNK         0.5000 
     31 O           3.0717  -18.4989  -43.0886 O.2       8 UNK        -0.5000 
     32 CA          1.1269  -17.1785  -42.6309 C.3       8 UNK         0.1400 
     33 CB          0.8084  -16.6385  -44.0336 C.3       8 UNK        -0.1800 
     34 N          -0.1137  -17.2509  -41.8522 N.am      8 UNK        -0.5000 
     35 C          -0.1575  -17.3314  -40.5148 C.2       7 UNK         0.5000 
     36 O           0.8403  -17.2931  -39.7941 O.2       7 UNK        -0.5000 
     37 CA         -1.5448  -17.5170  -39.8741 C.3       7 UNK         0.1400 
     38 CB         -2.2394  -16.1580  -39.7017 C.3       7 UNK        -0.1800 
     39 N          -2.4258  -18.4190  -40.6204 N.am      7 UNK        -0.5000 
     40 C          -2.2000  -19.7134  -40.8818 C.2       6 UNK         0.5000 
     41 O          -1.1676  -20.2992  -40.5586 O.2       6 UNK        -0.5000 
     42 CA         -3.2836  -20.4914  -41.6592 C.3       6 UNK         0.1400 
     43 CB         -4.3710  -21.0364  -40.7155 C.3       6 UNK        -0.1800 
     44 N          -3.8626  -19.7612  -42.7945 N.am      6 UNK        -0.5000 
     45 C          -4.5936  -18.6409  -42.7828 C.2       5 UNK         0.5000 
     46 O          -5.0182  -18.1034  -41.7566 O.2       5 UNK        -0.5000 
     47 CA         -4.8397  -17.9745  -44.1498 C.3       5 UNK         0.1400 
     48 CB         -6.2111  -18.3754  -44.7115 C.3       5 UNK        -0.1800 
     49 N          -4.7611  -16.5143  -44.0556 N.am      5 UNK        -0.5000 
     50 C          -3.7000  -15.8247  -43.6111 C.2       4 UNK         0.5000 
     51 O          -2.6104  -16.3399  -43.3348 O.2       4 UNK        -0.5000 
     52 CA         -3.9305  -14.3142  -43.3965 C.3       4 UNK         0.1400 
     53 CB         -4.8259  -14.0700  -42.1698 C.3       4 UNK        -0.1800 
     54 N          -2.6786  -13.5814  -43.2090 N.am      4 UNK        -0.5000 
     55 C          -1.8048  -13.3187  -44.1866 C.2       3 UNK         0.5000 
     56 O          -2.0187  -13.5791  -45.3713 O.2       3 UNK        -0.5000 
     57 CA         -0.4693  -12.6669  -43.7873 C.3       3 UNK         0.1400 
     58 CB         -0.0027  -13.0634  -42.3653 C.3       3 UNK        -0.1800 
     59 N           0.5242  -13.0423  -44.7909 N.am      3 UNK        -0.5000 
     60 C           1.7322  -12.4979  -44.9628 C.2       2 UNK         0.5000 
     61 O           2.1483  -11.5443  -44.3035 O.2       2 UNK        -0.5000 
     62 CA          2.6468  -13.1265  -46.0310 C.3       2 UNK         0.1400 
     63 CB          3.7792  -13.9143  -45.3507 C.3       2 UNK        -0.1800 
     64 N           1.9424  -14.0349  -46.9438 N.am      2 UNK        -0.5000 
     65 C           1.6512  -13.7543  -48.2225 C.2       1 UNK         0.5000 
     66 O           1.8479  -12.6563  -48.7447 O.2       1 UNK        -0.5000 
     67 C          -0.1863  -22.2473  -47.7653 C.2       11 UNK         0.5000 
     68 O          -1.2107  -22.6054  -48.3446 O.2       11 UNK        -0.5000 
     69 N          -0.1832  -21.3650  -46.7571 N.am      12 UNK        -0.5000 
     70 CA         -1.3875  -20.7227  -46.2338 C.3       12 UNK         0.1400 
     71 CB         -0.9877  -19.4406  -45.4994 C.3       12 UNK        -0.1800 
     72 C          -2.2016  -21.6377  -45.3065 C.2       12 UNK         0.5000 
     73 O          -3.3877  -21.3759  -45.1117 O.2       12 UNK        -0.5000 
     74 N          -1.5647  -22.6746  -44.7467 N.am      13 UNK        -0.5000 
     75 CA         -2.2211  -23.7212  -43.9631 C.3       13 UNK         0.1400 
     76 CB         -1.2526  -24.2342  -42.8865 C.3       13 UNK        -0.1800 
     77 C          -2.7007  -24.8648  -44.8740 C.2       13 UNK         0.5000 
     78 O          -3.7755  -25.4180  -44.6425 O.2       13 UNK        -0.5000 
     79 N          -1.9136  -25.1706  -45.9157 N.am      14 UNK        -0.5000 
     80 CA         -2.2271  -26.1566  -46.9528 C.3       14 UNK         0.1400 
     81 CB         -0.9341  -26.4881  -47.7145 C.3       14 UNK        -0.1800 
     82 C          -3.3191  -25.6961  -47.9417 C.2       14 UNK         0.5000 
     83 O          -3.8555  -26.5322  -48.6691 O.2       14 UNK        -0.5000 
     84 N          -3.6047  -24.3850  -47.9656 N.am      15 UNK        -0.5000 
     85 CA         -4.5009  -23.6784  -48.8886 C.3       15 UNK         0.1400 
     86 CB         -5.9607  -24.1540  -48.7380 C.3       15 UNK        -0.1800 
     87 C          -3.9888  -23.7106  -50.3450 C.2       15 UNK         0.5000 
     88 O          -4.7771  -23.8169  -51.2843 O.2       15 UNK        -0.5000 
     89 N          -2.6640  -23.6016  -50.4909 N.am      16 UNK        -0.5000 
     90 CA         -1.9384  -23.5384  -51.7583 C.3       16 UNK         0.1400 
     91 CB         -0.7303  -24.4839  -51.6651 C.3       16 UNK        -0.1800 
     92 C          -1.4707  -22.1056  -52.0873 C.2       16 UNK         0.5000 
     93 O          -1.0263  -21.8621  -53.2077 O.2       16 UNK        -0.5000 
     94 N          -1.5487  -21.2005  -51.1015 N.am      17 UNK        -0.5000 
     95 CA         -1.0956  -19.8094  -51.1457 C.3       17 UNK         0.1400 
     96 CB         -1.1896  -19.2403  -49.7181 C.3       17 UNK        -0.1800 
     97 C          -1.8584  -18.9059  -52.1354 C.2       17 UNK         0.5000 
     98 O          -2.8225  -19.3333  -52.7781 O.2       17 UNK        -0.5000 
     99 N          -1.4055  -17.6468  -52.2131 N.am      18 UNK        -0.5000 
    100 CA        -2.0047  -16.5366  -52.9528 C.3       18 UNK         0.1400 
    101 CB        -1.2236  -15.2521  -52.6364 C.3       18 UNK        -0.1800 
    102 C         -3.4991  -16.3610  -52.6302 C.2       18 UNK         0.5000 
    103 O         -3.8544  -16.1899  -51.4632 O.2       18 UNK        -0.5000 
    104 N         -4.3335  -16.4609  -53.6716 N.am      19 UNK        -0.5000 
    105 CA        -5.8006  -16.4210  -53.6818 C.3       19 UNK         0.1400 
    106 CB        -6.3427  -15.1265  -53.0430 C.3       19 UNK        -0.1800 
    107 C         -6.4866  -17.6766  -53.1021 C.2       19 UNK         0.5000 
    108 O         -7.6861  -17.8471  -53.3252 O.2       19 UNK        -0.5000 
    109 N         -5.7413  -18.5504  -52.4109 N.am      20 UNK        -0.5000 
    110 CA        -6.2136  -19.8590  -51.9588 C.3       20 UNK         0.1400 
    111 CB        -5.3950  -20.3182  -50.7420 C.3       20 UNK        -0.1800 
    112 C         -6.1474  -20.8840  -53.1054 C.2       20 UNK         0.5000 
    113 O         -7.0841  -21.6658  -53.2741 O.2       20 UNK        -0.5000 
    114 N         -5.0737  -20.8173  -53.9039 N.am      21 UNK        -0.5000 
    115 CA        -4.9061  -21.5757  -55.1431 C.3       21 UNK         0.1400 
    116 CB        -4.3846  -22.9924  -54.8534 C.3       21 UNK        -0.1800 
    117 C         -3.9757  -20.8452  -56.1220 C.2       21 UNK         0.5000 
    118 O         -4.2537  -20.8365  -57.3218 O.2       21 UNK        -0.5000 
    119 N         -2.8929  -20.2492  -55.6060 N.am      22 UNK        -0.5000 
    120 CA        -1.9315  -19.4522  -56.3796 C.3       22 UNK         0.1400 
    121 C         -2.5411  -18.0982  -56.8450 C.2       22 UNK         0.5000 
    122 N         -2.2354  -17.6507  -58.0545 N.am      22 UNK        -0.7600 
    123 O         -3.2678  -17.4355  -56.1073 O.2       22 UNK        -0.5000 
    124 C124       -0.6285  -19.2553  -55.5670 C.3       23 UNK        -0.0398 
    125 S125        0.8059  -18.7306  -56.5624 S.3       23 UNK        -0.2404 
    126 C126        2.0702  -19.9452  -56.0562 C.3       23 UNK        -0.0205 
    127 H127       -1.7633  -17.3947  -47.5109 H         1 UNK         0.0600 
    128 H128       -3.0430  -16.1899  -47.3946 H         1 UNK         0.0600 
    129 H129       -1.7703  -16.2382  -46.1727 H         1 UNK         0.0600 
    130 H130        0.4870  -16.6055  -47.9532 H         1 UNK         0.3000 
    131 H131        0.5099  -14.4372  -49.8912 H         1 UNK         0.0600 
    132 H132        2.8548  -15.0935  -50.2980 H         1 UNK         0.0800 
    133 H133        2.8280  -16.1908  -48.9359 H         1 UNK         0.0800 
    134 H134        3.3467  -16.6872  -52.3785 H         1 UNK         0.0800 
    135 H135        3.9096  -17.6258  -51.0129 H         1 UNK         0.0800 
    136 H136        2.4994  -17.8149  -54.3623 H         1 UNK         0.1150 
    137 H137        2.2945  -22.0964  -54.4182 H         1 UNK         0.1150 
    138 H138        3.2290  -20.0186  -50.7805 H         1 UNK         0.1150 
    139 H139        1.9330  -23.1418  -52.0081 H         1 UNK         0.0800 
    140 H140        3.6376  -23.1747  -52.3739 H         1 UNK         0.0800 
    141 H141        1.0182  -21.8112  -50.1296 H         1 UNK         0.0800 
    142 H142        1.9754  -20.9455  -48.9577 H         1 UNK         0.0800 
    143 H143        0.9775  -23.8238  -48.6152 H         1 UNK         0.0600 
    144 H144        2.9981  -22.5184  -47.2006 H         1 UNK         0.3000 
    145 H145        3.1472  -24.6325  -44.5450 H         1 UNK         0.0600 
    146 H146        5.1119  -23.1448  -44.6210 H         1 UNK         0.0600 
    147 H147        4.7056  -23.6511  -46.2491 H         1 UNK         0.0600 
    148 H148        4.2936  -22.0255  -45.7000 H         1 UNK         0.0600 
    149 H149        2.6486  -23.3178  -42.8282 H         1 UNK         0.3000 
    150 H150        0.9097  -21.6070  -41.9216 H         1 UNK         0.0600 
    151 H151        3.1506  -22.1897  -41.1082 H         1 UNK         0.0600 
    152 H152        2.6671  -20.6885  -40.3461 H         1 UNK         0.0600 
    153 H153        3.8187  -20.6680  -41.6798 H         1 UNK         0.0600 
    154 H154        0.3028  -19.5109  -41.9829 H         1 UNK         0.3000 
    155 H155        1.7932  -16.4606  -42.1476 H         1 UNK         0.0600 
    156 H156        0.0034  -17.1942  -44.5054 H         1 UNK         0.0600 
    157 H157        0.4898  -15.6013  -43.9844 H         1 UNK         0.0600 
    158 H158        1.6784  -16.6831  -44.6896 H         1 UNK         0.0600 
    159 H159       -0.9871  -17.2168  -42.3691 H         1 UNK         0.3000 
    160 H160       -1.3965  -17.9531  -38.8842 H         1 UNK         0.0600 
    161 H161       -3.2097  -16.2661  -39.2166 H         1 UNK         0.0600 
    162 H162       -2.3953  -15.6658  -40.6614 H         1 UNK         0.0600 
    163 H163       -1.6388  -15.4883  -39.0849 H         1 UNK         0.0600 
    164 H164       -3.3114  -18.0343  -40.9375 H         1 UNK         0.3000 
    165 H165       -2.7794  -21.3523  -42.0986 H         1 UNK         0.0600 
    166 H166       -5.0996  -21.6367  -41.2604 H         1 UNK         0.0600 
    167 H167       -3.9324  -21.6751  -39.9480 H         1 UNK         0.0600 
    168 H168       -4.9086  -20.2381  -40.2034 H         1 UNK         0.0600 
    169 H169       -3.6377  -20.1647  -43.7004 H         1 UNK         0.3000 
    170 H170       -4.0709  -18.3029  -44.8503 H         1 UNK         0.0600 
    171 H171       -6.2848  -19.4584  -44.8211 H         1 UNK         0.0600 
    172 H172       -7.0232  -18.0549  -44.0575 H         1 UNK         0.0600 
    173 H173       -6.3783  -17.9384  -45.6961 H         1 UNK         0.0600 
    174 H174       -5.6215  -16.0159  -44.2276 H         1 UNK         0.3000 
    175 H175       -4.4359  -13.9187  -44.2801 H         1 UNK         0.0600 
    176 H176       -5.0139  -13.0060  -42.0251 H         1 UNK         0.0600 
    177 H177       -4.3760  -14.4576  -41.2557 H         1 UNK         0.0600 
    178 H178       -5.7963  -14.5543  -42.2846 H         1 UNK         0.0600 
    179 H179       -2.4193  -13.3715  -42.2572 H         1 UNK         0.3000 
    180 H180       -0.6092  -11.5852  -43.8291 H         1 UNK         0.0600 
    181 H181        0.0334  -14.1449  -42.2340 H         1 UNK         0.0600 
    182 H182       -0.6726  -12.6624  -41.6043 H         1 UNK         0.0600 
    183 H183        0.9886  -12.6713  -42.1401 H         1 UNK         0.0600 
    184 H184        0.2001  -13.7406  -45.4467 H         1 UNK         0.3000 
    185 H185        3.1007  -12.3041  -46.5879 H         1 UNK         0.0600 
    186 H186        3.3939  -14.7401  -44.7513 H         1 UNK         0.0600 
    187 H187        4.4694  -14.3270  -46.0867 H         1 UNK         0.0600 
    188 H188        4.3607  -13.2721  -44.6878 H         1 UNK         0.0600 
    189 H189        1.7421  -14.9600  -46.5952 H         1 UNK         0.3000 
    190 H190        0.6887  -21.1465  -46.2812 H         1 UNK         0.3000 
    191 H191       -2.0310  -20.4466  -47.0713 H         1 UNK         0.0600 
    192 H192       -0.3370  -18.8258  -46.1208 H         1 UNK         0.0600 
    193 H193       -1.8603  -18.8409  -45.2441 H         1 UNK         0.0600 
    194 H194       -0.4598  -19.6566  -44.5716 H         1 UNK         0.0600 
    195 H195       -0.5947  -22.8352  -44.9873 H         1 UNK         0.3000 
    196 H196       -3.0983  -23.3117  -43.4580 H         1 UNK         0.0600 
    197 H197       -1.7227  -25.0070  -42.2772 H         1 UNK         0.0600 
    198 H198       -0.9509  -23.4303  -42.2149 H         1 UNK         0.0600 
    199 H199       -0.3500  -24.6640  -43.3216 H         1 UNK         0.0600 
    200 H200       -1.0025  -24.7266  -45.9797 H         1 UNK         0.3000 
    201 H201       -2.5837  -27.0666  -46.4661 H         1 UNK         0.0600 
    202 H202       -0.1545  -26.8397  -47.0384 H         1 UNK         0.0600 
    203 H203       -0.5498  -25.6179  -48.2467 H         1 UNK         0.0600 
    204 H204       -1.1040  -27.2736  -48.4520 H         1 UNK         0.0600 
    205 H205       -3.0579  -23.7925  -47.3568 H         1 UNK         0.3000 
    206 H206       -4.4701  -22.6307  -48.5859 H         1 UNK         0.0600 
    207 H207       -6.2826  -24.1140  -47.6974 H         1 UNK         0.0600 
    208 H208       -6.6378  -23.5200  -49.3115 H         1 UNK         0.0600 
    209 H209       -6.0957  -25.1758  -49.0930 H         1 UNK         0.0600 
    210 H210       -2.1063  -23.4759  -49.6490 H         1 UNK         0.3000 
    211 H211       -2.5760  -23.8833  -52.5722 H         1 UNK         0.0600 
    212 H212       -0.0471  -24.1881  -50.8688 H         1 UNK         0.0600 
    213 H213       -0.1670  -24.4935  -52.5990 H         1 UNK         0.0600 
    214 H214       -1.0481  -25.5079  -51.4677 H         1 UNK         0.0600 
    215 H215       -1.9284  -21.5121  -50.2195 H         1 UNK         0.3000 
    216 H216       -0.0489  -19.8091  -51.4567 H         1 UNK         0.0600 
    217 H217       -0.9551  -18.1775  -49.6802 H         1 UNK         0.0600 
    218 H218       -0.4810  -19.7302  -49.0548 H         1 UNK         0.0600 
    219 H219       -2.1909  -19.3623  -49.3036 H         1 UNK         0.0600 
    220 H220       -0.6003  -17.4010  -51.6526 H         1 UNK         0.3000 
    221 H221       -1.8907  -16.7389  -54.0165 H         1 UNK         0.0600 
    222 H222       -1.2652  -15.0097  -51.5735 H         1 UNK         0.0600 
    223 H223       -0.1748  -15.3468  -52.9187 H         1 UNK         0.0600 
    224 H224       -1.6323  -14.4019  -53.1837 H         1 UNK         0.0600 
    225 H225       -3.9231  -16.6898  -54.5772 H         1 UNK         0.3000 
    226 H226       -6.0736  -16.3977  -54.7379 H         1 UNK         0.0600 
    227 H227       -5.8699  -14.2443  -53.4745 H         1 UNK         0.0600 
    228 H228       -7.4164  -15.0328  -53.2093 H         1 UNK         0.0600 
    229 H229       -6.1816  -15.1031  -51.9651 H         1 UNK         0.0600 
    230 H230       -4.7561  -18.3556  -52.2883 H         1 UNK         0.3000 
    231 H231       -7.2549  -19.7698  -51.6418 H         1 UNK         0.0600 
    232 H232       -4.3608  -20.5381  -51.0033 H         1 UNK         0.0600 
    233 H233       -5.8251  -21.2248  -50.3167 H         1 UNK         0.0600 
    234 H234       -5.3906  -19.5614  -49.9575 H         1 UNK         0.0600 
    235 H235       -4.3493  -20.1432  -53.6762 H         1 UNK         0.3000 
    236 H236       -5.8805  -21.6594  -55.6296 H         1 UNK         0.0600 
    237 H237       -3.3653  -22.9657  -54.4718 H         1 UNK         0.0600 
    238 H238       -5.0075  -23.5118  -54.1250 H         1 UNK         0.0600 
    239 H239       -4.3746  -23.5943  -55.7627 H         1 UNK         0.0600 
    240 H240       -2.7299  -20.2819  -54.6065 H         1 UNK         0.3000 
    241 H241       -1.6831  -20.0356  -57.2686 H         1 UNK         0.0600 
    242 H242       -1.6218  -18.1652  -58.6672 H         1 UNK         0.3800 
    243 H243       -2.6181  -16.7704  -58.3618 H         1 UNK         0.3800 
    244 H244       -0.7647  -18.5320  -54.7680 H         1 UNK         0.0800 
    245 H245       -0.3705  -20.1925  -55.0746 H         1 UNK         0.0800 
    246 H246        2.9968  -19.7266  -56.5881 H         1 UNK         0.0800 
    247 H247        1.7499  -20.9332  -56.3910 H         1 UNK         0.0800 
@<TRIPOS>BOND
     1    1    2 1    
     2    1  127 1    
     3    1  128 1    
     4    1  129 1    
     5    2    3 2    
     6    2    4 am   BACKBONE|DICT|INTERRES
     7    4    5 1    
     8    4  130 1    
     9    5    6 1    
    10    5   65 1    
    11    5  131 1    
    12    6    7 1    
    13    6  132 1    
    14    6  133 1    
    15    7    8 1    
    16    8    9 1    
    17    8  134 1    
    18    8  135 1    
    19    9   10 ar   
    20    9   14 ar   
    21   10   11 ar   
    22   10  136 1    
    23   11   12 ar   
    24   11  126 1    
    25   12   13 ar   
    26   12  137 1    
    27   13   14 ar   
    28   13   15 1    
    29   14  138 1    
    30   15   16 1    
    31   15  139 1    
    32   15  140 1    
    33   16   17 1    
    34   17   18 1    
    35   17  141 1    
    36   17  142 1    
    37   18   19 1    
    38   18   67 1    
    39   18  143 1    
    40   19   20 am   BACKBONE|DICT|INTERRES
    41   19  144 1    
    42   20   21 2    
    43   20   22 1    
    44   22   23 1    
    45   22   24 1    
    46   22  145 1    
    47   23  146 1    
    48   23  147 1    
    49   23  148 1    
    50   24   25 am   BACKBONE|DICT|INTERRES
    51   24  149 1    
    52   25   26 2    
    53   25   27 1    
    54   27   28 1    
    55   27   29 1    
    56   27  150 1    
    57   28  151 1    
    58   28  152 1    
    59   28  153 1    
    60   29   30 am   BACKBONE|DICT|INTERRES
    61   29  154 1    
    62   30   31 2    
    63   30   32 1    
    64   32   33 1    
    65   32   34 1    
    66   32  155 1    
    67   33  156 1    
    68   33  157 1    
    69   33  158 1    
    70   34   35 am   BACKBONE|DICT|INTERRES
    71   34  159 1    
    72   35   36 2    
    73   35   37 1    
    74   37   38 1    
    75   37   39 1    
    76   37  160 1    
    77   38  161 1    
    78   38  162 1    
    79   38  163 1    
    80   39   40 am   BACKBONE|DICT|INTERRES
    81   39  164 1    
    82   40   41 2    
    83   40   42 1    
    84   42   43 1    
    85   42   44 1    
    86   42  165 1    
    87   43  166 1    
    88   43  167 1    
    89   43  168 1    
    90   44   45 am   BACKBONE|DICT|INTERRES
    91   44  169 1    
    92   45   46 2    
    93   45   47 1    
    94   47   48 1    
    95   47   49 1    
    96   47  170 1    
    97   48  171 1    
    98   48  172 1    
    99   48  173 1    
   100   49   50 am   BACKBONE|DICT|INTERRES
   101   49  174 1    
   102   50   51 2    
   103   50   52 1    
   104   52   53 1    
   105   52   54 1    
   106   52  175 1    
   107   53  176 1    
   108   53  177 1    
   109   53  178 1    
   110   54   55 am   BACKBONE|DICT|INTERRES
   111   54  179 1    
   112   55   56 2    
   113   55   57 1    
   114   57   58 1    
   115   57   59 1    
   116   57  180 1    
   117   58  181 1    
   118   58  182 1    
   119   58  183 1    
   120   59   60 am   BACKBONE|DICT|INTERRES
   121   59  184 1    
   122   60   61 2    
   123   60   62 1    
   124   62   63 1    
   125   62   64 1    
   126   62  185 1    
   127   63  186 1    
   128   63  187 1    
   129   63  188 1    
   130   64   65 am   BACKBONE|DICT|INTERRES
   131   64  189 1    
   132   65   66 2    
   133   67   68 2    
   134   67   69 am   BACKBONE|DICT|INTERRES
   135   69   70 1    
   136   69  190 1    
   137   70   71 1    
   138   70   72 1    
   139   70  191 1    
   140   71  192 1    
   141   71  193 1    
   142   71  194 1    
   143   72   73 2    
   144   72   74 am   BACKBONE|DICT|INTERRES
   145   74   75 1    
   146   74  195 1    
   147   75   76 1    
   148   75   77 1    
   149   75  196 1    
   150   76  197 1    
   151   76  198 1    
   152   76  199 1    
   153   77   78 2    
   154   77   79 am   BACKBONE|DICT|INTERRES
   155   79   80 1    
   156   79  200 1    
   157   80   81 1    
   158   80   82 1    
   159   80  201 1    
   160   81  202 1    
   161   81  203 1    
   162   81  204 1    
   163   82   83 2    
   164   82   84 am   BACKBONE|DICT|INTERRES
   165   84   85 1    
   166   84  205 1    
   167   85   86 1    
   168   85   87 1    
   169   85  206 1    
   170   86  207 1    
   171   86  208 1    
   172   86  209 1    
   173   87   88 2    
   174   87   89 am   BACKBONE|DICT|INTERRES
   175   89   90 1    
   176   89  210 1    
   177   90   91 1    
   178   90   92 1    
   179   90  211 1    
   180   91  212 1    
   181   91  213 1    
   182   91  214 1    
   183   92   93 2    
   184   92   94 am   BACKBONE|DICT|INTERRES
   185   94   95 1    
   186   94  215 1    
   187   95   96 1    
   188   95   97 1    
   189   95  216 1    
   190   96  217 1    
   191   96  218 1    
   192   96  219 1    
   193   97   98 2    
   194   97   99 am   BACKBONE|DICT|INTERRES
   195   99  100 1    
   196   99  220 1    
   197  100  101 1    
   198  100  102 1    
   199  100  221 1    
   200  101  222 1    
   201  101  223 1    
   202  101  224 1    
   203  102  103 2    
   204  102  104 am   BACKBONE|DICT|INTERRES
   205  104  105 1    
   206  104  225 1    
   207  105  106 1    
   208  105  107 1    
   209  105  226 1    
   210  106  227 1    
   211  106  228 1    
   212  106  229 1    
   213  107  108 2    
   214  107  109 am   BACKBONE|DICT|INTERRES
   215  109  110 1    
   216  109  230 1    
   217  110  111 1    
   218  110  112 1    
   219  110  231 1    
   220  111  232 1    
   221  111  233 1    
   222  111  234 1    
   223  112  113 2    
   224  112  114 am   BACKBONE|DICT|INTERRES
   225  114  115 1    
   226  114  235 1    
   227  115  116 1    
   228  115  117 1    
   229  115  236 1    
   230  116  237 1    
   231  116  238 1    
   232  116  239 1    
   233  117  118 2    
   234  117  119 am   BACKBONE|DICT|INTERRES
   235  119  120 1    
   236  119  240 1    
   237  120  121 1    
   238  120  124 1    
   239  120  241 1    
   240  121  122 am   BACKBONE|DICT|INTERRES
   241  121  123 2    
   242  122  242 1    
   243  122  243 1    
   244  124  125 1    
   245  124  244 1    
   246  124  245 1    
   247  125  126 1    
   248  126  246 1    
   249  126  247 1    
@<TRIPOS>SUBSTRUCTURE
     1 UNK         1 GROUP             0       ****    0 ROOT    
