@<TRIPOS>MOLECULE
3R540
247   249    1
SMALL
USER_CHARGES


@<TRIPOS>ATOM
      1 CA         -2.3602  -13.6236  -42.4287 C.3       0 UNK        -0.1800 
      2 C          -2.1104  -12.7252  -43.6316 C.2       0 UNK         0.5000 
      3 O          -2.8065  -11.7232  -43.7989 O.2       0 UNK        -0.5000 
      4 N          -1.1223  -13.0728  -44.4668 N.am      1 UNK        -0.5000 
      5 CA         -0.6624  -12.2474  -45.5871 C.3       1 UNK         0.1400 
      6 C6          0.1685  -13.0476  -46.6242 C.3       23 UNK        -0.0398 
      7 S7         -0.5492  -14.6134  -47.2373 S.3       23 UNK        -0.2404 
      8 C8         -2.2968  -14.2085  -47.5253 C.3       23 UNK        -0.0205 
      9 C9         -2.9376  -15.2243  -48.4588 C.ar      23 UNK        -0.0193 
     10 C10        -2.9774  -14.9740  -49.8334 C.ar      23 UNK        -0.1150 
     11 C11        -3.5717  -15.8882  -50.7073 C.ar      23 UNK        -0.0193 
     12 C12        -4.1335  -17.0597  -50.1957 C.ar      23 UNK        -0.1150 
     13 C13        -4.0874  -17.3318  -48.8245 C.ar      23 UNK        -0.0193 
     14 C14        -3.4904  -16.4084  -47.9586 C.ar      23 UNK        -0.1150 
     15 C15        -4.7076  -18.6146  -48.2901 C.3       23 UNK        -0.0205 
     16 S16        -3.8625  -20.0947  -48.9313 S.3       23 UNK        -0.2404 
     17 C17        -2.3819  -20.1819  -47.8679 C.3       23 UNK        -0.0398 
     18 CA         -1.9390  -21.6298  -47.5350 C.3       11 UNK         0.1400 
     19 N          -0.6755  -21.6562  -46.7936 N.am      11 UNK        -0.5000 
     20 C           0.0072  -22.7623  -46.4619 C.2       10 UNK         0.5000 
     21 O          -0.3227  -23.8987  -46.8000 O.2       10 UNK        -0.5000 
     22 CA          1.2344  -22.5745  -45.5510 C.3       10 UNK         0.1400 
     23 CB          2.4539  -22.1102  -46.3606 C.3       10 UNK        -0.1800 
     24 N           0.9796  -21.6395  -44.4535 N.am      10 UNK        -0.5000 
     25 C           0.0759  -21.8389  -43.4822 C.2       9 UNK         0.5000 
     26 O          -0.5949  -22.8650  -43.3740 O.2       9 UNK        -0.5000 
     27 CA         -0.1667  -20.6723  -42.5060 C.3       9 UNK         0.1400 
     28 CB          0.9288  -20.6094  -41.4320 C.3       9 UNK        -0.1800 
     29 N          -0.2634  -19.3852  -43.1963 N.am      9 UNK        -0.5000 
     30 C          -1.2160  -19.0806  -44.0894 C.2       8 UNK         0.5000 
     31 O          -2.1559  -19.8237  -44.3664 O.2       8 UNK        -0.5000 
     32 CA         -1.0685  -17.7489  -44.8411 C.3       8 UNK         0.1400 
     33 CB         -1.6743  -16.5975  -44.0345 C.3       8 UNK        -0.1800 
     34 N           0.3246  -17.4595  -45.1798 N.am      8 UNK        -0.5000 
     35 C           1.0238  -18.1479  -46.0934 C.2       7 UNK         0.5000 
     36 O           0.5441  -19.0496  -46.7795 O.2       7 UNK        -0.5000 
     37 CA          2.5220  -17.8240  -46.2138 C.3       7 UNK         0.1400 
     38 CB          2.7624  -16.6650  -47.1923 C.3       7 UNK        -0.1800 
     39 N           3.1155  -17.5173  -44.9112 N.am      7 UNK        -0.5000 
     40 C           3.3498  -18.4413  -43.9666 C.2       6 UNK         0.5000 
     41 O           3.1200  -19.6402  -44.1239 O.2       6 UNK        -0.5000 
     42 CA          3.8967  -17.9547  -42.6093 C.3       6 UNK         0.1400 
     43 CB          5.4321  -17.9811  -42.6108 C.3       6 UNK        -0.1800 
     44 N           3.4407  -16.6141  -42.2411 N.am      6 UNK        -0.5000 
     45 C           2.1650  -16.2703  -42.0149 C.2       5 UNK         0.5000 
     46 O           1.2316  -17.0729  -42.0346 O.2       5 UNK        -0.5000 
     47 CA          1.8772  -14.7685  -41.7970 C.3       5 UNK         0.1400 
     48 CB          1.8430  -14.4356  -40.2990 C.3       5 UNK        -0.1800 
     49 N           2.8205  -13.8675  -42.4748 N.am      5 UNK        -0.5000 
     50 C           3.0501  -13.8623  -43.7951 C.2       4 UNK         0.5000 
     51 O           2.4839  -14.6299  -44.5731 O.2       4 UNK        -0.5000 
     52 CA          4.0872  -12.8554  -44.3142 C.3       4 UNK         0.1400 
     53 CB          4.2579  -12.8912  -45.8466 C.3       4 UNK        -0.1800 
     54 N           3.7413  -11.5035  -43.8829 N.am      4 UNK        -0.5000 
     55 C           4.6266  -10.5153  -43.6947 C.2       3 UNK         0.5000 
     56 O           5.8454  -10.6768  -43.7849 O.2       3 UNK        -0.5000 
     57 CA          4.0640   -9.1178  -43.3444 C.3       3 UNK         0.1400 
     58 CB          5.0214   -7.9718  -43.7347 C.3       3 UNK        -0.1800 
     59 N           2.7180   -8.8706  -43.8753 N.am      3 UNK        -0.5000 
     60 C           2.3341   -8.8590  -45.1607 C.2       2 UNK         0.5000 
     61 O           3.0916   -9.0219  -46.1192 O.2       2 UNK        -0.5000 
     62 CA          0.8216   -8.6787  -45.4032 C.3       2 UNK         0.1400 
     63 CB          0.5510   -7.6379  -46.5025 C.3       2 UNK        -0.1800 
     64 N           0.1472   -9.9319  -45.7570 N.am      2 UNK        -0.5000 
     65 C           0.1658  -11.0645  -45.0402 C.2       1 UNK         0.5000 
     66 O           0.8088  -11.2063  -43.9949 O.2       1 UNK        -0.5000 
     67 C          -3.0410  -22.4344  -46.8138 C.2       11 UNK         0.5000 
     68 O          -3.6863  -23.2676  -47.4480 O.2       11 UNK        -0.5000 
     69 N          -3.2076  -22.2069  -45.5040 N.am      12 UNK        -0.5000 
     70 CA         -4.1643  -22.9160  -44.6544 C.3       12 UNK         0.1400 
     71 CB         -4.2143  -22.2474  -43.2724 C.3       12 UNK        -0.1800 
     72 C          -3.8616  -24.4206  -44.5237 C.2       12 UNK         0.5000 
     73 O          -4.7934  -25.2255  -44.5394 O.2       12 UNK        -0.5000 
     74 N          -2.5730  -24.7724  -44.4117 N.am      13 UNK        -0.5000 
     75 CA         -2.0940  -26.1524  -44.3334 C.3       13 UNK         0.1400 
     76 CB         -0.6166  -26.1620  -43.9113 C.3       13 UNK        -0.1800 
     77 C          -2.2933  -26.9289  -45.6478 C.2       13 UNK         0.5000 
     78 O          -2.7528  -28.0713  -45.6120 O.2       13 UNK        -0.5000 
     79 N          -1.9489  -26.2997  -46.7796 N.am      14 UNK        -0.5000 
     80 CA         -2.1028  -26.8704  -48.1191 C.3       14 UNK         0.1400 
     81 CB         -1.2449  -26.0687  -49.1093 C.3       14 UNK        -0.1800 
     82 C          -3.5681  -26.9175  -48.5906 C.2       14 UNK         0.5000 
     83 O          -3.9447  -27.8636  -49.2840 O.2       14 UNK        -0.5000 
     84 N          -4.3492  -25.8983  -48.2024 N.am      15 UNK        -0.5000 
     85 CA         -5.7282  -25.5992  -48.5993 C.3       15 UNK         0.1400 
     86 CB         -6.6786  -26.7583  -48.2313 C.3       15 UNK        -0.1800 
     87 C          -5.8451  -25.1905  -50.0834 C.2       15 UNK         0.5000 
     88 O          -4.8506  -25.1836  -50.8129 O.2       15 UNK        -0.5000 
     89 N          -7.0686  -24.8283  -50.4984 N.am      16 UNK        -0.5000 
     90 CA         -7.4768  -24.5155  -51.8753 C.3       16 UNK         0.1400 
     91 CB         -7.5261  -25.8120  -52.7115 C.3       16 UNK        -0.1800 
     92 C          -6.6231  -23.4148  -52.5418 C.2       16 UNK         0.5000 
     93 O          -6.1474  -23.6009  -53.6618 O.2       16 UNK        -0.5000 
     94 N          -6.4152  -22.3022  -51.8212 N.am      17 UNK        -0.5000 
     95 CA         -5.5854  -21.1535  -52.2129 C.3       17 UNK         0.1400 
     96 CB         -6.2140  -20.3966  -53.4019 C.3       17 UNK        -0.1800 
     97 C          -4.1153  -21.5522  -52.4638 C.2       17 UNK         0.5000 
     98 O          -3.5398  -21.1963  -53.4937 O.2       17 UNK        -0.5000 
     99 N          -3.5549  -22.3131  -51.5128 N.am      18 UNK        -0.5000 
    100 CA        -2.2005  -22.8706  -51.5061 C.3       18 UNK         0.1400 
    101 CB        -1.1416  -21.7472  -51.4561 C.3       18 UNK        -0.1800 
    102 C         -1.9834  -23.8584  -52.6683 C.2       18 UNK         0.5000 
    103 O         -1.0163  -23.7295  -53.4183 O.2       18 UNK        -0.5000 
    104 N         -2.9222  -24.8039  -52.8208 N.am      19 UNK        -0.5000 
    105 CA        -3.0238  -25.7729  -53.9180 C.3       19 UNK         0.1400 
    106 CB        -1.9005  -26.8254  -53.8194 C.3       19 UNK        -0.1800 
    107 C         -3.0943  -25.0781  -55.2961 C.2       19 UNK         0.5000 
    108 O         -2.3741  -25.4472  -56.2251 O.2       19 UNK        -0.5000 
    109 N         -3.9469  -24.0475  -55.3677 N.am      20 UNK        -0.5000 
    110 CA        -4.2123  -23.1383  -56.4839 C.3       20 UNK         0.1400 
    111 CB        -4.7242  -23.9083  -57.7182 C.3       20 UNK        -0.1800 
    112 C         -3.0626  -22.1725  -56.8410 C.2       20 UNK         0.5000 
    113 O         -3.2380  -21.3699  -57.7599 O.2       20 UNK        -0.5000 
    114 N         -1.9316  -22.2074  -56.1186 N.am      21 UNK        -0.5000 
    115 CA        -0.7682  -21.3476  -56.3674 C.3       21 UNK         0.1400 
    116 CB         0.4235  -21.8223  -55.5243 C.3       21 UNK        -0.1800 
    117 C         -1.0391  -19.8513  -56.1181 C.2       21 UNK         0.5000 
    118 O         -0.4207  -19.0120  -56.7744 O.2       21 UNK        -0.5000 
    119 N         -1.9678  -19.5497  -55.2031 N.am      22 UNK        -0.5000 
    120 CA        -2.4867  -18.2039  -54.9235 C.3       22 UNK         0.1400 
    121 C         -3.8678  -17.9360  -55.5979 C.2       22 UNK         0.5000 
    122 N         -4.3428  -18.7774  -56.5104 N.am      22 UNK        -0.7600 
    123 O         -4.5227  -16.9396  -55.3071 O.2       22 UNK        -0.5000 
    124 C124       -2.4837  -17.9166  -53.3953 C.3       23 UNK        -0.0398 
    125 S125       -2.0885  -16.1719  -53.0226 S.3       23 UNK        -0.2404 
    126 C126       -3.6077  -15.6004  -52.1999 C.3       23 UNK        -0.0205 
    127 H127       -2.6003  -13.0219  -41.5521 H         1 UNK         0.0600 
    128 H128       -1.4855  -14.2256  -42.1877 H         1 UNK         0.0600 
    129 H129       -3.1990  -14.2913  -42.6250 H         1 UNK         0.0600 
    130 H130       -0.5598  -13.8875  -44.2746 H         1 UNK         0.3000 
    131 H131       -1.5397  -11.8391  -46.0927 H         1 UNK         0.0600 
    132 H132        0.3694  -12.4220  -47.4955 H         1 UNK         0.0800 
    133 H133        1.1456  -13.2961  -46.2160 H         1 UNK         0.0800 
    134 H134       -2.8301  -14.1821  -46.5740 H         1 UNK         0.0800 
    135 H135       -2.3759  -13.2097  -47.9569 H         1 UNK         0.0800 
    136 H136       -2.5410  -14.0662  -50.2260 H         1 UNK         0.1150 
    137 H137       -4.6005  -17.7688  -50.8643 H         1 UNK         0.1150 
    138 H138       -3.4583  -16.6057  -46.8966 H         1 UNK         0.1150 
    139 H139       -4.7126  -18.6309  -47.1991 H         1 UNK         0.0800 
    140 H140       -5.7531  -18.6504  -48.5990 H         1 UNK         0.0800 
    141 H141       -1.5773  -19.6546  -48.3820 H         1 UNK         0.0800 
    142 H142       -2.5686  -19.6260  -46.9507 H         1 UNK         0.0800 
    143 H143       -1.7470  -22.1399  -48.4802 H         1 UNK         0.0600 
    144 H144       -0.2926  -20.7530  -46.5288 H         1 UNK         0.3000 
    145 H145        1.4717  -23.5451  -45.1108 H         1 UNK         0.0600 
    146 H146        3.3409  -22.0401  -45.7308 H         1 UNK         0.0600 
    147 H147        2.6791  -22.8131  -47.1635 H         1 UNK         0.0600 
    148 H148        2.2900  -21.1337  -46.8159 H         1 UNK         0.0600 
    149 H149        1.5363  -20.7906  -44.4395 H         1 UNK         0.3000 
    150 H150       -1.1204  -20.8506  -42.0049 H         1 UNK         0.0600 
    151 H151        0.7520  -19.7906  -40.7342 H         1 UNK         0.0600 
    152 H152        0.9560  -21.5327  -40.8521 H         1 UNK         0.0600 
    153 H153        1.9170  -20.4701  -41.8685 H         1 UNK         0.0600 
    154 H154        0.4386  -18.6872  -42.9747 H         1 UNK         0.3000 
    155 H155       -1.6308  -17.8289  -45.7727 H         1 UNK         0.0600 
    156 H156       -1.1002  -16.3888  -43.1326 H         1 UNK         0.0600 
    157 H157       -2.6958  -16.8278  -43.7291 H         1 UNK         0.0600 
    158 H158       -1.7186  -15.6928  -44.6359 H         1 UNK         0.0600 
    159 H159        0.7973  -16.7443  -44.6461 H         1 UNK         0.3000 
    160 H160        3.0219  -18.7071  -46.6175 H         1 UNK         0.0600 
    161 H161        2.2560  -15.7534  -46.8776 H         1 UNK         0.0600 
    162 H162        2.3889  -16.9144  -48.1861 H         1 UNK         0.0600 
    163 H163        3.8249  -16.4423  -47.2890 H         1 UNK         0.0600 
    164 H164        3.2480  -16.5356  -44.6968 H         1 UNK         0.3000 
    165 H165        3.5447  -18.6481  -41.8432 H         1 UNK         0.0600 
    166 H166        5.8325  -17.7197  -41.6311 H         1 UNK         0.0600 
    167 H167        5.8049  -18.9761  -42.8577 H         1 UNK         0.0600 
    168 H168        5.8462  -17.2847  -43.3410 H         1 UNK         0.0600 
    169 H169        4.1425  -15.8899  -42.2058 H         1 UNK         0.3000 
    170 H170        0.8877  -14.5704  -42.2117 H         1 UNK         0.0600 
    171 H171        1.1308  -15.0732  -39.7731 H         1 UNK         0.0600 
    172 H172        2.8187  -14.5779  -39.8329 H         1 UNK         0.0600 
    173 H173        1.5367  -13.4028  -40.1317 H         1 UNK         0.0600 
    174 H174        3.3131  -13.2040  -41.8943 H         1 UNK         0.3000 
    175 H175        5.0370  -13.1479  -43.8620 H         1 UNK         0.0600 
    176 H176        3.3626  -12.5395  -46.3587 H         1 UNK         0.0600 
    177 H177        5.0880  -12.2603  -46.1644 H         1 UNK         0.0600 
    178 H178        4.4687  -13.9015  -46.1995 H         1 UNK         0.0600 
    179 H179        2.7468  -11.3083  -43.7887 H         1 UNK         0.3000 
    180 H180        3.9655   -9.1038  -42.2582 H         1 UNK         0.0600 
    181 H181        5.2283   -7.9637  -44.8052 H         1 UNK         0.0600 
    182 H182        5.9774   -8.0657  -43.2183 H         1 UNK         0.0600 
    183 H183        4.6049   -7.0010  -43.4661 H         1 UNK         0.0600 
    184 H184        1.9961   -8.7802  -43.1735 H         1 UNK         0.3000 
    185 H185        0.3653   -8.3110  -44.4818 H         1 UNK         0.0600 
    186 H186        1.0414   -6.6911  -46.2723 H         1 UNK         0.0600 
    187 H187        0.9197   -7.9706  -47.4737 H         1 UNK         0.0600 
    188 H188       -0.5155   -7.4342  -46.6003 H         1 UNK         0.0600 
    189 H189       -0.3870   -9.9098  -46.6133 H         1 UNK         0.3000 
    190 H190       -2.6655  -21.4699  -45.0586 H         1 UNK         0.3000 
    191 H191       -5.1500  -22.8172  -45.1138 H         1 UNK         0.0600 
    192 H192       -4.5104  -21.2012  -43.3518 H         1 UNK         0.0600 
    193 H193       -4.9377  -22.7427  -42.6237 H         1 UNK         0.0600 
    194 H194       -3.2456  -22.2826  -42.7730 H         1 UNK         0.0600 
    195 H195       -1.8713  -24.0417  -44.3417 H         1 UNK         0.3000 
    196 H196       -2.6676  -26.6625  -43.5567 H         1 UNK         0.0600 
    197 H197       -0.2390  -27.1822  -43.8325 H         1 UNK         0.0600 
    198 H198       -0.4824  -25.6894  -42.9382 H         1 UNK         0.0600 
    199 H199        0.0116  -25.6330  -44.6284 H         1 UNK         0.0600 
    200 H200       -1.5307  -25.3742  -46.7228 H         1 UNK         0.3000 
    201 H201       -1.7284  -27.8961  -48.1029 H         1 UNK         0.0600 
    202 H202       -0.1848  -26.1563  -48.8711 H         1 UNK         0.0600 
    203 H203       -1.5031  -25.0110  -49.0845 H         1 UNK         0.0600 
    204 H204       -1.3827  -26.4220  -50.1323 H         1 UNK         0.0600 
    205 H205       -3.9034  -25.1372  -47.6979 H         1 UNK         0.3000 
    206 H206       -6.0189  -24.7279  -48.0109 H         1 UNK         0.0600 
    207 H207       -6.5232  -27.0813  -47.2016 H         1 UNK         0.0600 
    208 H208       -7.7227  -26.4570  -48.3176 H         1 UNK         0.0600 
    209 H209       -6.5373  -27.6236  -48.8793 H         1 UNK         0.0600 
    210 H210       -7.8169  -24.8239  -49.8195 H         1 UNK         0.3000 
    211 H211       -8.4921  -24.1206  -51.8191 H         1 UNK         0.0600 
    212 H212       -6.5360  -26.2537  -52.8305 H         1 UNK         0.0600 
    213 H213       -7.9223  -25.6211  -53.7096 H         1 UNK         0.0600 
    214 H214       -8.1705  -26.5573  -52.2453 H         1 UNK         0.0600 
    215 H215       -6.8306  -22.2522  -50.9016 H         1 UNK         0.3000 
    216 H216       -5.5792  -20.4707  -51.3629 H         1 UNK         0.0600 
    217 H217       -6.2003  -20.9888  -54.3172 H         1 UNK         0.0600 
    218 H218       -5.6708  -19.4732  -53.6049 H         1 UNK         0.0600 
    219 H219       -7.2483  -20.1239  -53.1938 H         1 UNK         0.0600 
    220 H220       -4.1354  -22.5865  -50.7327 H         1 UNK         0.3000 
    221 H221       -2.1159  -23.4476  -50.5869 H         1 UNK         0.0600 
    222 H222       -1.1187  -21.1670  -52.3789 H         1 UNK         0.0600 
    223 H223       -1.3330  -21.0551  -50.6371 H         1 UNK         0.0600 
    224 H224       -0.1438  -22.1609  -51.3071 H         1 UNK         0.0600 
    225 H225       -3.6766  -24.8440  -52.1353 H         1 UNK         0.3000 
    226 H226       -3.9753  -26.2894  -53.7836 H         1 UNK         0.0600 
    227 H227       -1.8977  -27.3057  -52.8408 H         1 UNK         0.0600 
    228 H228       -2.0344  -27.6092  -54.5657 H         1 UNK         0.0600 
    229 H229       -0.9158  -26.3856  -53.9801 H         1 UNK         0.0600 
    230 H230       -4.5188  -23.8556  -54.5476 H         1 UNK         0.3000 
    231 H231       -5.0278  -22.5008  -56.1397 H         1 UNK         0.0600 
    232 H232       -3.9437  -24.5229  -58.1671 H         1 UNK         0.0600 
    233 H233       -5.0786  -23.2220  -58.4880 H         1 UNK         0.0600 
    234 H234       -5.5588  -24.5595  -57.4582 H         1 UNK         0.0600 
    235 H235       -1.8596  -22.8589  -55.3466 H         1 UNK         0.3000 
    236 H236       -0.4992  -21.4605  -57.4197 H         1 UNK         0.0600 
    237 H237        0.6248  -22.8823  -55.6809 H         1 UNK         0.0600 
    238 H238        1.3291  -21.2754  -55.7892 H         1 UNK         0.0600 
    239 H239        0.2494  -21.6650  -54.4597 H         1 UNK         0.0600 
    240 H240       -2.4442  -20.3047  -54.7126 H         1 UNK         0.3000 
    241 H241       -1.8137  -17.4844  -55.3921 H         1 UNK         0.0600 
    242 H242       -5.2323  -18.5806  -56.9405 H         1 UNK         0.3800 
    243 H243       -3.8109  -19.5845  -56.8104 H         1 UNK         0.3800 
    244 H244       -3.4243  -18.2177  -52.9325 H         1 UNK         0.0800 
    245 H245       -1.7162  -18.5136  -52.9002 H         1 UNK         0.0800 
    246 H246       -4.4845  -16.0562  -52.6623 H         1 UNK         0.0800 
    247 H247       -3.7082  -14.5261  -52.3613 H         1 UNK         0.0800 
@<TRIPOS>BOND
     1    1    2 1    
     2    1  127 1    
     3    1  128 1    
     4    1  129 1    
     5    2    3 2    
     6    2    4 am   BACKBONE|DICT|INTERRES
     7    4    5 1    
     8    4  130 1    
     9    5    6 1    
    10    5   65 1    
    11    5  131 1    
    12    6    7 1    
    13    6  132 1    
    14    6  133 1    
    15    7    8 1    
    16    8    9 1    
    17    8  134 1    
    18    8  135 1    
    19    9   10 ar   
    20    9   14 ar   
    21   10   11 ar   
    22   10  136 1    
    23   11   12 ar   
    24   11  126 1    
    25   12   13 ar   
    26   12  137 1    
    27   13   14 ar   
    28   13   15 1    
    29   14  138 1    
    30   15   16 1    
    31   15  139 1    
    32   15  140 1    
    33   16   17 1    
    34   17   18 1    
    35   17  141 1    
    36   17  142 1    
    37   18   19 1    
    38   18   67 1    
    39   18  143 1    
    40   19   20 am   BACKBONE|DICT|INTERRES
    41   19  144 1    
    42   20   21 2    
    43   20   22 1    
    44   22   23 1    
    45   22   24 1    
    46   22  145 1    
    47   23  146 1    
    48   23  147 1    
    49   23  148 1    
    50   24   25 am   BACKBONE|DICT|INTERRES
    51   24  149 1    
    52   25   26 2    
    53   25   27 1    
    54   27   28 1    
    55   27   29 1    
    56   27  150 1    
    57   28  151 1    
    58   28  152 1    
    59   28  153 1    
    60   29   30 am   BACKBONE|DICT|INTERRES
    61   29  154 1    
    62   30   31 2    
    63   30   32 1    
    64   32   33 1    
    65   32   34 1    
    66   32  155 1    
    67   33  156 1    
    68   33  157 1    
    69   33  158 1    
    70   34   35 am   BACKBONE|DICT|INTERRES
    71   34  159 1    
    72   35   36 2    
    73   35   37 1    
    74   37   38 1    
    75   37   39 1    
    76   37  160 1    
    77   38  161 1    
    78   38  162 1    
    79   38  163 1    
    80   39   40 am   BACKBONE|DICT|INTERRES
    81   39  164 1    
    82   40   41 2    
    83   40   42 1    
    84   42   43 1    
    85   42   44 1    
    86   42  165 1    
    87   43  166 1    
    88   43  167 1    
    89   43  168 1    
    90   44   45 am   BACKBONE|DICT|INTERRES
    91   44  169 1    
    92   45   46 2    
    93   45   47 1    
    94   47   48 1    
    95   47   49 1    
    96   47  170 1    
    97   48  171 1    
    98   48  172 1    
    99   48  173 1    
   100   49   50 am   BACKBONE|DICT|INTERRES
   101   49  174 1    
   102   50   51 2    
   103   50   52 1    
   104   52   53 1    
   105   52   54 1    
   106   52  175 1    
   107   53  176 1    
   108   53  177 1    
   109   53  178 1    
   110   54   55 am   BACKBONE|DICT|INTERRES
   111   54  179 1    
   112   55   56 2    
   113   55   57 1    
   114   57   58 1    
   115   57   59 1    
   116   57  180 1    
   117   58  181 1    
   118   58  182 1    
   119   58  183 1    
   120   59   60 am   BACKBONE|DICT|INTERRES
   121   59  184 1    
   122   60   61 2    
   123   60   62 1    
   124   62   63 1    
   125   62   64 1    
   126   62  185 1    
   127   63  186 1    
   128   63  187 1    
   129   63  188 1    
   130   64   65 am   BACKBONE|DICT|INTERRES
   131   64  189 1    
   132   65   66 2    
   133   67   68 2    
   134   67   69 am   BACKBONE|DICT|INTERRES
   135   69   70 1    
   136   69  190 1    
   137   70   71 1    
   138   70   72 1    
   139   70  191 1    
   140   71  192 1    
   141   71  193 1    
   142   71  194 1    
   143   72   73 2    
   144   72   74 am   BACKBONE|DICT|INTERRES
   145   74   75 1    
   146   74  195 1    
   147   75   76 1    
   148   75   77 1    
   149   75  196 1    
   150   76  197 1    
   151   76  198 1    
   152   76  199 1    
   153   77   78 2    
   154   77   79 am   BACKBONE|DICT|INTERRES
   155   79   80 1    
   156   79  200 1    
   157   80   81 1    
   158   80   82 1    
   159   80  201 1    
   160   81  202 1    
   161   81  203 1    
   162   81  204 1    
   163   82   83 2    
   164   82   84 am   BACKBONE|DICT|INTERRES
   165   84   85 1    
   166   84  205 1    
   167   85   86 1    
   168   85   87 1    
   169   85  206 1    
   170   86  207 1    
   171   86  208 1    
   172   86  209 1    
   173   87   88 2    
   174   87   89 am   BACKBONE|DICT|INTERRES
   175   89   90 1    
   176   89  210 1    
   177   90   91 1    
   178   90   92 1    
   179   90  211 1    
   180   91  212 1    
   181   91  213 1    
   182   91  214 1    
   183   92   93 2    
   184   92   94 am   BACKBONE|DICT|INTERRES
   185   94   95 1    
   186   94  215 1    
   187   95   96 1    
   188   95   97 1    
   189   95  216 1    
   190   96  217 1    
   191   96  218 1    
   192   96  219 1    
   193   97   98 2    
   194   97   99 am   BACKBONE|DICT|INTERRES
   195   99  100 1    
   196   99  220 1    
   197  100  101 1    
   198  100  102 1    
   199  100  221 1    
   200  101  222 1    
   201  101  223 1    
   202  101  224 1    
   203  102  103 2    
   204  102  104 am   BACKBONE|DICT|INTERRES
   205  104  105 1    
   206  104  225 1    
   207  105  106 1    
   208  105  107 1    
   209  105  226 1    
   210  106  227 1    
   211  106  228 1    
   212  106  229 1    
   213  107  108 2    
   214  107  109 am   BACKBONE|DICT|INTERRES
   215  109  110 1    
   216  109  230 1    
   217  110  111 1    
   218  110  112 1    
   219  110  231 1    
   220  111  232 1    
   221  111  233 1    
   222  111  234 1    
   223  112  113 2    
   224  112  114 am   BACKBONE|DICT|INTERRES
   225  114  115 1    
   226  114  235 1    
   227  115  116 1    
   228  115  117 1    
   229  115  236 1    
   230  116  237 1    
   231  116  238 1    
   232  116  239 1    
   233  117  118 2    
   234  117  119 am   BACKBONE|DICT|INTERRES
   235  119  120 1    
   236  119  240 1    
   237  120  121 1    
   238  120  124 1    
   239  120  241 1    
   240  121  122 am   BACKBONE|DICT|INTERRES
   241  121  123 2    
   242  122  242 1    
   243  122  243 1    
   244  124  125 1    
   245  124  244 1    
   246  124  245 1    
   247  125  126 1    
   248  126  246 1    
   249  126  247 1    
@<TRIPOS>SUBSTRUCTURE
     1 UNK         1 GROUP             0       ****    0 ROOT    
