@<TRIPOS>MOLECULE
3R540
247   249    1
SMALL
USER_CHARGES


@<TRIPOS>ATOM
      1 CA          3.7487  -12.6192  -41.8744 C.3       0 UNK        -0.1800 
      2 C           2.5032  -12.3024  -42.6903 C.2       0 UNK         0.5000 
      3 O           1.8832  -11.2583  -42.4852 O.2       0 UNK        -0.5000 
      4 N           2.1353  -13.2010  -43.6085 N.am      1 UNK        -0.5000 
      5 CA          1.0248  -13.0473  -44.5472 C.3       1 UNK         0.1400 
      6 C6          0.4977  -14.4262  -45.0310 C.3       23 UNK        -0.0398 
      7 S7         -1.3255  -14.4645  -45.1097 S.3       23 UNK        -0.2404 
      8 C8         -1.6490  -14.3473  -46.8959 C.3       23 UNK        -0.0205 
      9 C9         -1.8697  -15.7102  -47.5344 C.ar      23 UNK        -0.0193 
     10 C10        -3.1642  -16.1378  -47.8420 C.ar      23 UNK        -0.1150 
     11 C11        -3.3770  -17.3611  -48.4838 C.ar      23 UNK        -0.0193 
     12 C12        -2.2816  -18.1618  -48.8190 C.ar      23 UNK        -0.1150 
     13 C13        -0.9826  -17.7525  -48.5022 C.ar      23 UNK        -0.0193 
     14 C14        -0.7849  -16.5297  -47.8555 C.ar      23 UNK        -0.1150 
     15 C15         0.2115  -18.6184  -48.8731 C.3       23 UNK        -0.0205 
     16 S16         0.7179  -19.6924  -47.4957 S.3       23 UNK        -0.2404 
     17 C17        -0.6594  -20.8785  -47.4623 C.3       23 UNK        -0.0398 
     18 CA         -0.3061  -22.1626  -46.6824 C.3       11 UNK         0.1400 
     19 N          -0.0682  -21.9195  -45.2571 N.am      11 UNK        -0.5000 
     20 C           0.3946  -22.8402  -44.3992 C.2       10 UNK         0.5000 
     21 O           0.7361  -23.9742  -44.7318 O.2       10 UNK        -0.5000 
     22 CA          0.4037  -22.4563  -42.9106 C.3       10 UNK         0.1400 
     23 CB          1.6493  -21.6313  -42.5515 C.3       10 UNK        -0.1800 
     24 N          -0.8119  -21.7282  -42.5444 N.am      10 UNK        -0.5000 
     25 C          -2.0291  -22.2891  -42.4841 C.2       9 UNK         0.5000 
     26 O          -2.2347  -23.4887  -42.6676 O.2       9 UNK        -0.5000 
     27 CA         -3.2199  -21.3498  -42.2152 C.3       9 UNK         0.1400 
     28 CB         -3.4309  -21.1682  -40.7050 C.3       9 UNK        -0.1800 
     29 N          -3.0591  -20.0367  -42.8405 N.am      9 UNK        -0.5000 
     30 C          -3.0489  -19.8116  -44.1630 C.2       8 UNK         0.5000 
     31 O          -3.2326  -20.6884  -45.0054 O.2       8 UNK        -0.5000 
     32 CA         -2.7156  -18.3747  -44.6123 C.3       8 UNK         0.1400 
     33 CB         -3.9920  -17.5243  -44.6827 C.3       8 UNK        -0.1800 
     34 N          -1.7459  -17.7257  -43.7241 N.am      8 UNK        -0.5000 
     35 C          -0.4905  -18.1552  -43.5490 C.2       7 UNK         0.5000 
     36 O          -0.0042  -19.1115  -44.1574 O.2       7 UNK        -0.5000 
     37 CA          0.3247  -17.4691  -42.4477 C.3       7 UNK         0.1400 
     38 CB         -0.0321  -18.0889  -41.0803 C.3       7 UNK        -0.1800 
     39 N           1.7414  -17.6549  -42.7455 N.am      7 UNK        -0.5000 
     40 C           2.7666  -17.0965  -42.0927 C.2       6 UNK         0.5000 
     41 O           2.6400  -16.3105  -41.1534 O.2       6 UNK        -0.5000 
     42 CA          4.1789  -17.4653  -42.5871 C.3       6 UNK         0.1400 
     43 CB          4.5964  -18.8450  -42.0541 C.3       6 UNK        -0.1800 
     44 N           4.3231  -17.4442  -44.0465 N.am      6 UNK        -0.5000 
     45 C           4.1657  -16.3516  -44.8039 C.2       5 UNK         0.5000 
     46 O           3.8232  -15.2564  -44.3540 O.2       5 UNK        -0.5000 
     47 CA          4.4289  -16.5025  -46.3095 C.3       5 UNK         0.1400 
     48 CB          3.3059  -17.3043  -46.9829 C.3       5 UNK        -0.1800 
     49 N           4.4821  -15.1721  -46.9076 N.am      5 UNK        -0.5000 
     50 C           5.4157  -14.7184  -47.7492 C.2       4 UNK         0.5000 
     51 O           6.3353  -15.4055  -48.1979 O.2       4 UNK        -0.5000 
     52 CA          5.2628  -13.2385  -48.1502 C.3       4 UNK         0.1400 
     53 CB          6.3505  -12.7374  -49.1245 C.3       4 UNK        -0.1800 
     54 N           3.9096  -12.9662  -48.6465 N.am      4 UNK        -0.5000 
     55 C           3.3462  -13.4116  -49.7817 C.2       3 UNK         0.5000 
     56 O           3.9520  -14.0552  -50.6390 O.2       3 UNK        -0.5000 
     57 CA          1.8430  -13.1233  -49.9992 C.3       3 UNK         0.1400 
     58 CB          1.0682  -14.4381  -50.1874 C.3       3 UNK        -0.1800 
     59 N           1.2233  -12.3759  -48.9025 N.am      3 UNK        -0.5000 
     60 C           1.3180  -11.0539  -48.7112 C.2       2 UNK         0.5000 
     61 O           1.8979  -10.2939  -49.4870 O.2       2 UNK        -0.5000 
     62 CA          0.6813  -10.4846  -47.4246 C.3       2 UNK         0.1400 
     63 CB         -0.6745   -9.8370  -47.7456 C.3       2 UNK        -0.1800 
     64 N           0.4926  -11.4492  -46.3313 N.am      2 UNK        -0.5000 
     65 C           1.4578  -12.1613  -45.7332 C.2       1 UNK         0.5000 
     66 O           2.6323  -12.1731  -46.1128 O.2       1 UNK        -0.5000 
     67 C          -1.3836  -23.2400  -46.9132 C.2       11 UNK         0.5000 
     68 O          -1.2130  -24.0707  -47.8036 O.2       11 UNK        -0.5000 
     69 N          -2.4571  -23.2320  -46.1117 N.am      12 UNK        -0.5000 
     70 CA         -3.5097  -24.2488  -46.1367 C.3       12 UNK         0.1400 
     71 CB         -4.6927  -23.8012  -45.2664 C.3       12 UNK        -0.1800 
     72 C          -2.9987  -25.6381  -45.7177 C.2       12 UNK         0.5000 
     73 O          -3.3088  -26.6204  -46.3917 O.2       12 UNK        -0.5000 
     74 N          -2.1858  -25.6916  -44.6528 N.am      13 UNK        -0.5000 
     75 CA         -1.5302  -26.9093  -44.1681 C.3       13 UNK         0.1400 
     76 CB         -0.8542  -26.6244  -42.8185 C.3       13 UNK        -0.1800 
     77 C          -0.5186  -27.4915  -45.1754 C.2       13 UNK         0.5000 
     78 O          -0.4491  -28.7108  -45.3330 O.2       13 UNK        -0.5000 
     79 N           0.2225  -26.6097  -45.8595 N.am      14 UNK        -0.5000 
     80 CA          1.1754  -26.9520  -46.9179 C.3       14 UNK         0.1400 
     81 CB          2.1348  -25.7667  -47.1129 C.3       14 UNK        -0.1800 
     82 C           0.5106  -27.3177  -48.2617 C.2       14 UNK         0.5000 
     83 O           1.1990  -27.8269  -49.1468 O.2       14 UNK        -0.5000 
     84 N          -0.7906  -27.0215  -48.4039 N.am      15 UNK        -0.5000 
     85 CA         -1.6054  -27.1140  -49.6223 C.3       15 UNK         0.1400 
     86 CB         -1.7307  -28.5731  -50.1072 C.3       15 UNK        -0.1800 
     87 C          -1.1465  -26.1412  -50.7330 C.2       15 UNK         0.5000 
     88 O          -1.3705  -26.3977  -51.9169 O.2       15 UNK        -0.5000 
     89 N          -0.5291  -25.0264  -50.3226 N.am      16 UNK        -0.5000 
     90 CA         -0.1085  -23.9178  -51.1757 C.3       16 UNK         0.1400 
     91 CB          1.0754  -23.1996  -50.5101 C.3       16 UNK        -0.1800 
     92 C          -1.2604  -22.9304  -51.4339 C.2       16 UNK         0.5000 
     93 O          -1.2597  -22.2565  -52.4648 O.2       16 UNK        -0.5000 
     94 N          -2.2387  -22.8758  -50.5168 N.am      17 UNK        -0.5000 
     95 CA         -3.4681  -22.0868  -50.6288 C.3       17 UNK         0.1400 
     96 CB         -4.0547  -21.8588  -49.2242 C.3       17 UNK        -0.1800 
     97 C          -4.4795  -22.7535  -51.5858 C.2       17 UNK         0.5000 
     98 O          -5.5870  -23.1080  -51.1760 O.2       17 UNK        -0.5000 
     99 N          -4.0730  -22.9119  -52.8470 N.am      18 UNK        -0.5000 
    100 CA        -4.8567  -23.4833  -53.9398 C.3       18 UNK         0.1400 
    101 CB        -4.2861  -24.8710  -54.2851 C.3       18 UNK        -0.1800 
    102 C         -4.8708  -22.5274  -55.1484 C.2       18 UNK         0.5000 
    103 O         -4.9630  -22.9795  -56.2914 O.2       18 UNK        -0.5000 
    104 N         -4.7634  -21.2204  -54.8797 N.am      19 UNK        -0.5000 
    105 CA        -4.8368  -20.1513  -55.8704 C.3       19 UNK         0.1400 
    106 CB        -3.9781  -18.9740  -55.3748 C.3       19 UNK        -0.1800 
    107 C         -6.2954  -19.7097  -56.0856 C.2       19 UNK         0.5000 
    108 O         -7.1900  -20.1085  -55.3354 O.2       19 UNK        -0.5000 
    109 N         -6.5075  -18.8509  -57.0909 N.am      20 UNK        -0.5000 
    110 CA        -7.7991  -18.2148  -57.3675 C.3       20 UNK         0.1400 
    111 CB        -7.7359  -17.5204  -58.7366 C.3       20 UNK        -0.1800 
    112 C         -8.2237  -17.2149  -56.2718 C.2       20 UNK         0.5000 
    113 O         -9.4213  -17.0212  -56.0591 O.2       20 UNK        -0.5000 
    114 N         -7.2376  -16.6051  -55.5977 N.am      21 UNK        -0.5000 
    115 CA        -7.4385  -15.6817  -54.4820 C.3       21 UNK         0.1400 
    116 CB        -6.1432  -14.8910  -54.2385 C.3       21 UNK        -0.1800 
    117 C         -7.8852  -16.3994  -53.1953 C.2       21 UNK         0.5000 
    118 O         -8.7977  -15.9196  -52.5212 O.2       21 UNK        -0.5000 
    119 N         -7.2421  -17.5306  -52.8847 N.am      22 UNK        -0.5000 
    120 CA        -7.4705  -18.3456  -51.6859 C.3       22 UNK         0.1400 
    121 C         -6.7306  -19.7050  -51.7840 C.2       22 UNK         0.5000 
    122 N         -7.2426  -20.7383  -51.1291 N.am      22 UNK        -0.7600 
    123 O         -5.6828  -19.8268  -52.4162 O.2       22 UNK        -0.5000 
    124 C124       -7.1368  -17.6028  -50.3590 C.3       23 UNK        -0.0398 
    125 S125       -5.4387  -16.9271  -50.2673 S.3       23 UNK        -0.2404 
    126 C126       -4.7913  -17.8085  -48.8145 C.3       23 UNK        -0.0205 
    127 H127        3.5157  -12.5996  -40.8098 H         1 UNK         0.0600 
    128 H128        4.5247  -11.8794  -42.0704 H         1 UNK         0.0600 
    129 H129        4.1486  -13.6052  -42.1140 H         1 UNK         0.0600 
    130 H130        2.7474  -13.9977  -43.7847 H         1 UNK         0.3000 
    131 H131        0.2260  -12.5267  -44.0138 H         1 UNK         0.0600 
    132 H132        0.9383  -14.7316  -45.9809 H         1 UNK         0.0800 
    133 H133        0.7889  -15.2071  -44.3293 H         1 UNK         0.0800 
    134 H134       -2.5316  -13.7227  -47.0419 H         1 UNK         0.0800 
    135 H135       -0.8348  -13.8307  -47.4017 H         1 UNK         0.0800 
    136 H136       -4.0107  -15.5123  -47.5958 H         1 UNK         0.1150 
    137 H137       -2.4395  -19.1024  -49.3267 H         1 UNK         0.1150 
    138 H138        0.2171  -16.2136  -47.6124 H         1 UNK         0.1150 
    139 H139       -0.0097  -19.2232  -49.7540 H         1 UNK         0.0800 
    140 H140        1.0532  -17.9814  -49.1486 H         1 UNK         0.0800 
    141 H141       -0.9124  -21.1200  -48.4960 H         1 UNK         0.0800 
    142 H142       -1.5337  -20.3892  -47.0324 H         1 UNK         0.0800 
    143 H143        0.6238  -22.5586  -47.0956 H         1 UNK         0.0600 
    144 H144       -0.2657  -20.9846  -44.9148 H         1 UNK         0.3000 
    145 H145        0.4350  -23.3790  -42.3272 H         1 UNK         0.0600 
    146 H146        1.6521  -21.3558  -41.4969 H         1 UNK         0.0600 
    147 H147        2.5578  -22.2047  -42.7393 H         1 UNK         0.0600 
    148 H148        1.7194  -20.7166  -43.1379 H         1 UNK         0.0600 
    149 H149       -0.7295  -20.7284  -42.4439 H         1 UNK         0.3000 
    150 H150       -4.1145  -21.8165  -42.6323 H         1 UNK         0.0600 
    151 H151       -2.5763  -20.6814  -40.2331 H         1 UNK         0.0600 
    152 H152       -3.5734  -22.1312  -40.2128 H         1 UNK         0.0600 
    153 H153       -4.3163  -20.5661  -40.5001 H         1 UNK         0.0600 
    154 H154       -2.9119  -19.2540  -42.2214 H         1 UNK         0.3000 
    155 H155       -2.2780  -18.4248  -45.6118 H         1 UNK         0.0600 
    156 H156       -4.4846  -17.4518  -43.7124 H         1 UNK         0.0600 
    157 H157       -4.7069  -17.9551  -45.3848 H         1 UNK         0.0600 
    158 H158       -3.7735  -16.5122  -45.0227 H         1 UNK         0.0600 
    159 H159       -2.0768  -16.9279  -43.2011 H         1 UNK         0.3000 
    160 H160        0.0937  -16.4026  -42.4410 H         1 UNK         0.0600 
    161 H161        0.2488  -19.1415  -41.0303 H         1 UNK         0.0600 
    162 H162       -1.1026  -18.0236  -40.8826 H         1 UNK         0.0600 
    163 H163        0.4697  -17.5735  -40.2618 H         1 UNK         0.0600 
    164 H164        1.9188  -18.2754  -43.5258 H         1 UNK         0.3000 
    165 H165        4.8695  -16.7245  -42.1783 H         1 UNK         0.0600 
    166 H166        5.6366  -19.0631  -42.2966 H         1 UNK         0.0600 
    167 H167        4.5012  -18.8901  -40.9683 H         1 UNK         0.0600 
    168 H168        3.9806  -19.6427  -42.4706 H         1 UNK         0.0600 
    169 H169        4.5980  -18.3111  -44.4850 H         1 UNK         0.3000 
    170 H170        5.3809  -17.0209  -46.4402 H         1 UNK         0.0600 
    171 H171        2.3271  -16.8636  -46.7939 H         1 UNK         0.0600 
    172 H172        3.4479  -17.3549  -48.0625 H         1 UNK         0.0600 
    173 H173        3.2814  -18.3291  -46.6116 H         1 UNK         0.0600 
    174 H174        3.8259  -14.5089  -46.5164 H         1 UNK         0.3000 
    175 H175        5.3667  -12.6612  -47.2300 H         1 UNK         0.0600 
    176 H176        7.3389  -12.8142  -48.6704 H         1 UNK         0.0600 
    177 H177        6.3755  -13.3146  -50.0488 H         1 UNK         0.0600 
    178 H178        6.1934  -11.6909  -49.3857 H         1 UNK         0.0600 
    179 H179        3.3129  -12.4807  -47.9847 H         1 UNK         0.3000 
    180 H180        1.7503  -12.5386  -50.9167 H         1 UNK         0.0600 
    181 H181        1.2344  -15.1182  -49.3530 H         1 UNK         0.0600 
    182 H182        1.3892  -14.9541  -51.0931 H         1 UNK         0.0600 
    183 H183       -0.0045  -14.2648  -50.2776 H         1 UNK         0.0600 
    184 H184        0.7341  -12.9179  -48.2091 H         1 UNK         0.3000 
    185 H185        1.3525   -9.7059  -47.0566 H         1 UNK         0.0600 
    186 H186       -0.5760   -9.0897  -48.5343 H         1 UNK         0.0600 
    187 H187       -1.4024  -10.5760  -48.0828 H         1 UNK         0.0600 
    188 H188       -1.0878   -9.3309  -46.8729 H         1 UNK         0.0600 
    189 H189       -0.4458  -11.5105  -45.9622 H         1 UNK         0.3000 
    190 H190       -2.5807  -22.4600  -45.4634 H         1 UNK         0.3000 
    191 H191       -3.8661  -24.3376  -47.1635 H         1 UNK         0.0600 
    192 H192       -5.0835  -22.8392  -45.5986 H         1 UNK         0.0600 
    193 H193       -5.5098  -24.5214  -45.3209 H         1 UNK         0.0600 
    194 H194       -4.4115  -23.7049  -44.2185 H         1 UNK         0.0600 
    195 H195       -2.0173  -24.8420  -44.1228 H         1 UNK         0.3000 
    196 H196       -2.3050  -27.6615  -44.0062 H         1 UNK         0.0600 
    197 H197       -0.3856  -27.5243  -42.4185 H         1 UNK         0.0600 
    198 H198       -1.5782  -26.2784  -42.0805 H         1 UNK         0.0600 
    199 H199       -0.0794  -25.8627  -42.9083 H         1 UNK         0.0600 
    200 H200        0.1610  -25.6269  -45.6085 H         1 UNK         0.3000 
    201 H201        1.7594  -27.8160  -46.5944 H         1 UNK         0.0600 
    202 H202        2.8918  -25.9916  -47.8652 H         1 UNK         0.0600 
    203 H203        2.6589  -25.5267  -46.1876 H         1 UNK         0.0600 
    204 H204        1.6041  -24.8715  -47.4389 H         1 UNK         0.0600 
    205 H205       -1.2538  -26.5941  -47.6123 H         1 UNK         0.3000 
    206 H206       -2.6034  -26.7817  -49.3330 H         1 UNK         0.0600 
    207 H207       -2.0506  -29.2305  -49.2987 H         1 UNK         0.0600 
    208 H208       -2.4707  -28.6568  -50.9039 H         1 UNK         0.0600 
    209 H209       -0.7878  -28.9550  -50.4989 H         1 UNK         0.0600 
    210 H210       -0.4710  -24.8675  -49.3204 H         1 UNK         0.3000 
    211 H211        0.2233  -24.3101  -52.1393 H         1 UNK         0.0600 
    212 H212        0.8004  -22.7754  -49.5447 H         1 UNK         0.0600 
    213 H213        1.4385  -22.3830  -51.1354 H         1 UNK         0.0600 
    214 H214        1.9099  -23.8825  -50.3493 H         1 UNK         0.0600 
    215 H215       -2.1620  -23.4817  -49.7104 H         1 UNK         0.3000 
    216 H216       -3.2241  -21.1074  -51.0465 H         1 UNK         0.0600 
    217 H217       -4.9550  -21.2461  -49.2739 H         1 UNK         0.0600 
    218 H218       -3.3526  -21.3445  -48.5704 H         1 UNK         0.0600 
    219 H219       -4.3324  -22.7987  -48.7503 H         1 UNK         0.0600 
    220 H220       -3.1403  -22.5881  -53.0855 H         1 UNK         0.3000 
    221 H221       -5.8983  -23.6060  -53.6367 H         1 UNK         0.0600 
    222 H222       -3.2589  -24.8030  -54.6453 H         1 UNK         0.0600 
    223 H223       -4.2902  -25.5258  -53.4133 H         1 UNK         0.0600 
    224 H224       -4.8778  -25.3603  -55.0596 H         1 UNK         0.0600 
    225 H225       -4.8224  -20.9207  -53.9113 H         1 UNK         0.3000 
    226 H226       -4.4353  -20.5012  -56.8237 H         1 UNK         0.0600 
    227 H227       -3.9369  -18.1724  -56.1128 H         1 UNK         0.0600 
    228 H228       -4.3677  -18.5491  -54.4489 H         1 UNK         0.0600 
    229 H229       -2.9515  -19.2896  -55.1878 H         1 UNK         0.0600 
    230 H230       -5.7331  -18.5752  -57.6779 H         1 UNK         0.3000 
    231 H231       -8.5614  -18.9955  -57.4157 H         1 UNK         0.0600 
    232 H232       -6.9770  -16.7372  -58.7571 H         1 UNK         0.0600 
    233 H233       -8.6921  -17.0572  -58.9836 H         1 UNK         0.0600 
    234 H234       -7.5070  -18.2321  -59.5301 H         1 UNK         0.0600 
    235 H235       -6.2841  -16.8142  -55.8512 H         1 UNK         0.3000 
    236 H236       -8.2208  -14.9715  -54.7589 H         1 UNK         0.0600 
    237 H237       -5.8589  -14.3178  -55.1212 H         1 UNK         0.0600 
    238 H238       -6.2678  -14.1830  -53.4181 H         1 UNK         0.0600 
    239 H239       -5.3106  -15.5469  -53.9806 H         1 UNK         0.0600 
    240 H240       -6.5212  -17.8878  -53.4955 H         1 UNK         0.3000 
    241 H241       -8.5372  -18.5776  -51.6774 H         1 UNK         0.0600 
    242 H242       -6.7590  -21.6308  -51.1670 H         1 UNK         0.3800 
    243 H243       -8.1012  -20.6662  -50.6066 H         1 UNK         0.3800 
    244 H244       -7.3199  -18.2589  -49.5066 H         1 UNK         0.0800 
    245 H245       -7.8257  -16.7695  -50.2203 H         1 UNK         0.0800 
    246 H246       -4.8194  -18.8819  -49.0029 H         1 UNK         0.0800 
    247 H247       -5.4393  -17.6246  -47.9562 H         1 UNK         0.0800 
@<TRIPOS>BOND
     1    1    2 1    
     2    1  127 1    
     3    1  128 1    
     4    1  129 1    
     5    2    3 2    
     6    2    4 am   BACKBONE|DICT|INTERRES
     7    4    5 1    
     8    4  130 1    
     9    5    6 1    
    10    5   65 1    
    11    5  131 1    
    12    6    7 1    
    13    6  132 1    
    14    6  133 1    
    15    7    8 1    
    16    8    9 1    
    17    8  134 1    
    18    8  135 1    
    19    9   10 ar   
    20    9   14 ar   
    21   10   11 ar   
    22   10  136 1    
    23   11   12 ar   
    24   11  126 1    
    25   12   13 ar   
    26   12  137 1    
    27   13   14 ar   
    28   13   15 1    
    29   14  138 1    
    30   15   16 1    
    31   15  139 1    
    32   15  140 1    
    33   16   17 1    
    34   17   18 1    
    35   17  141 1    
    36   17  142 1    
    37   18   19 1    
    38   18   67 1    
    39   18  143 1    
    40   19   20 am   BACKBONE|DICT|INTERRES
    41   19  144 1    
    42   20   21 2    
    43   20   22 1    
    44   22   23 1    
    45   22   24 1    
    46   22  145 1    
    47   23  146 1    
    48   23  147 1    
    49   23  148 1    
    50   24   25 am   BACKBONE|DICT|INTERRES
    51   24  149 1    
    52   25   26 2    
    53   25   27 1    
    54   27   28 1    
    55   27   29 1    
    56   27  150 1    
    57   28  151 1    
    58   28  152 1    
    59   28  153 1    
    60   29   30 am   BACKBONE|DICT|INTERRES
    61   29  154 1    
    62   30   31 2    
    63   30   32 1    
    64   32   33 1    
    65   32   34 1    
    66   32  155 1    
    67   33  156 1    
    68   33  157 1    
    69   33  158 1    
    70   34   35 am   BACKBONE|DICT|INTERRES
    71   34  159 1    
    72   35   36 2    
    73   35   37 1    
    74   37   38 1    
    75   37   39 1    
    76   37  160 1    
    77   38  161 1    
    78   38  162 1    
    79   38  163 1    
    80   39   40 am   BACKBONE|DICT|INTERRES
    81   39  164 1    
    82   40   41 2    
    83   40   42 1    
    84   42   43 1    
    85   42   44 1    
    86   42  165 1    
    87   43  166 1    
    88   43  167 1    
    89   43  168 1    
    90   44   45 am   BACKBONE|DICT|INTERRES
    91   44  169 1    
    92   45   46 2    
    93   45   47 1    
    94   47   48 1    
    95   47   49 1    
    96   47  170 1    
    97   48  171 1    
    98   48  172 1    
    99   48  173 1    
   100   49   50 am   BACKBONE|DICT|INTERRES
   101   49  174 1    
   102   50   51 2    
   103   50   52 1    
   104   52   53 1    
   105   52   54 1    
   106   52  175 1    
   107   53  176 1    
   108   53  177 1    
   109   53  178 1    
   110   54   55 am   BACKBONE|DICT|INTERRES
   111   54  179 1    
   112   55   56 2    
   113   55   57 1    
   114   57   58 1    
   115   57   59 1    
   116   57  180 1    
   117   58  181 1    
   118   58  182 1    
   119   58  183 1    
   120   59   60 am   BACKBONE|DICT|INTERRES
   121   59  184 1    
   122   60   61 2    
   123   60   62 1    
   124   62   63 1    
   125   62   64 1    
   126   62  185 1    
   127   63  186 1    
   128   63  187 1    
   129   63  188 1    
   130   64   65 am   BACKBONE|DICT|INTERRES
   131   64  189 1    
   132   65   66 2    
   133   67   68 2    
   134   67   69 am   BACKBONE|DICT|INTERRES
   135   69   70 1    
   136   69  190 1    
   137   70   71 1    
   138   70   72 1    
   139   70  191 1    
   140   71  192 1    
   141   71  193 1    
   142   71  194 1    
   143   72   73 2    
   144   72   74 am   BACKBONE|DICT|INTERRES
   145   74   75 1    
   146   74  195 1    
   147   75   76 1    
   148   75   77 1    
   149   75  196 1    
   150   76  197 1    
   151   76  198 1    
   152   76  199 1    
   153   77   78 2    
   154   77   79 am   BACKBONE|DICT|INTERRES
   155   79   80 1    
   156   79  200 1    
   157   80   81 1    
   158   80   82 1    
   159   80  201 1    
   160   81  202 1    
   161   81  203 1    
   162   81  204 1    
   163   82   83 2    
   164   82   84 am   BACKBONE|DICT|INTERRES
   165   84   85 1    
   166   84  205 1    
   167   85   86 1    
   168   85   87 1    
   169   85  206 1    
   170   86  207 1    
   171   86  208 1    
   172   86  209 1    
   173   87   88 2    
   174   87   89 am   BACKBONE|DICT|INTERRES
   175   89   90 1    
   176   89  210 1    
   177   90   91 1    
   178   90   92 1    
   179   90  211 1    
   180   91  212 1    
   181   91  213 1    
   182   91  214 1    
   183   92   93 2    
   184   92   94 am   BACKBONE|DICT|INTERRES
   185   94   95 1    
   186   94  215 1    
   187   95   96 1    
   188   95   97 1    
   189   95  216 1    
   190   96  217 1    
   191   96  218 1    
   192   96  219 1    
   193   97   98 2    
   194   97   99 am   BACKBONE|DICT|INTERRES
   195   99  100 1    
   196   99  220 1    
   197  100  101 1    
   198  100  102 1    
   199  100  221 1    
   200  101  222 1    
   201  101  223 1    
   202  101  224 1    
   203  102  103 2    
   204  102  104 am   BACKBONE|DICT|INTERRES
   205  104  105 1    
   206  104  225 1    
   207  105  106 1    
   208  105  107 1    
   209  105  226 1    
   210  106  227 1    
   211  106  228 1    
   212  106  229 1    
   213  107  108 2    
   214  107  109 am   BACKBONE|DICT|INTERRES
   215  109  110 1    
   216  109  230 1    
   217  110  111 1    
   218  110  112 1    
   219  110  231 1    
   220  111  232 1    
   221  111  233 1    
   222  111  234 1    
   223  112  113 2    
   224  112  114 am   BACKBONE|DICT|INTERRES
   225  114  115 1    
   226  114  235 1    
   227  115  116 1    
   228  115  117 1    
   229  115  236 1    
   230  116  237 1    
   231  116  238 1    
   232  116  239 1    
   233  117  118 2    
   234  117  119 am   BACKBONE|DICT|INTERRES
   235  119  120 1    
   236  119  240 1    
   237  120  121 1    
   238  120  124 1    
   239  120  241 1    
   240  121  122 am   BACKBONE|DICT|INTERRES
   241  121  123 2    
   242  122  242 1    
   243  122  243 1    
   244  124  125 1    
   245  124  244 1    
   246  124  245 1    
   247  125  126 1    
   248  126  246 1    
   249  126  247 1    
@<TRIPOS>SUBSTRUCTURE
     1 UNK         1 GROUP             0       ****    0 ROOT    
