@<TRIPOS>MOLECULE
3R540
247   249    1
SMALL
USER_CHARGES


@<TRIPOS>ATOM
      1 CA          0.5728   -9.9007  -48.7917 C.3       0 UNK        -0.1800 
      2 C           0.8529  -11.1905  -48.0355 C.2       0 UNK         0.5000 
      3 O           2.0022  -11.4550  -47.6830 O.2       0 UNK        -0.5000 
      4 N          -0.1923  -11.9856  -47.7683 N.am      1 UNK        -0.5000 
      5 CA         -0.1281  -13.2864  -47.0871 C.3       1 UNK         0.1400 
      6 C6         -1.5224  -13.9334  -46.9334 C.3       23 UNK        -0.0398 
      7 S7         -2.3245  -14.3131  -48.5243 S.3       23 UNK        -0.2404 
      8 C8         -2.3601  -16.1309  -48.4622 C.3       23 UNK        -0.0205 
      9 C9         -1.0519  -16.7412  -48.9389 C.ar      23 UNK        -0.0193 
     10 C10        -0.8975  -17.0708  -50.2863 C.ar      23 UNK        -0.1150 
     11 C11         0.2910  -17.6367  -50.7512 C.ar      23 UNK        -0.0193 
     12 C12         1.3398  -17.8629  -49.8561 C.ar      23 UNK        -0.1150 
     13 C13         1.2034  -17.5290  -48.5048 C.ar      23 UNK        -0.0193 
     14 C14         0.0011  -16.9766  -48.0491 C.ar      23 UNK        -0.1150 
     15 C15         2.3740  -17.7264  -47.5531 C.3       23 UNK        -0.0205 
     16 S16         2.5615  -19.4545  -47.0194 S.3       23 UNK        -0.2404 
     17 C17         1.1852  -19.6223  -45.8377 C.3       23 UNK        -0.0398 
     18 CA          0.3775  -20.9246  -46.0279 C.3       11 UNK         0.1400 
     19 N          -0.4133  -21.2207  -44.8337 N.am      11 UNK        -0.5000 
     20 C          -1.0923  -22.3525  -44.6081 C.2       10 UNK         0.5000 
     21 O          -1.0968  -23.3169  -45.3703 O.2       10 UNK        -0.5000 
     22 CA         -1.9517  -22.3851  -43.3340 C.3       10 UNK         0.1400 
     23 CB         -1.1009  -22.7584  -42.1117 C.3       10 UNK        -0.1800 
     24 N          -2.6184  -21.1024  -43.1041 N.am      10 UNK        -0.5000 
     25 C          -3.6149  -20.6308  -43.8666 C.2       9 UNK         0.5000 
     26 O          -4.1015  -21.2508  -44.8122 O.2       9 UNK        -0.5000 
     27 CA         -4.1276  -19.2166  -43.5422 C.3       9 UNK         0.1400 
     28 CB         -5.1650  -19.2629  -42.4107 C.3       9 UNK        -0.1800 
     29 N          -3.0527  -18.2910  -43.1791 N.am      9 UNK        -0.5000 
     30 C          -2.1230  -17.8408  -44.0330 C.2       8 UNK         0.5000 
     31 O          -2.0650  -18.1670  -45.2188 O.2       8 UNK        -0.5000 
     32 CA         -1.0583  -16.8910  -43.4521 C.3       8 UNK         0.1400 
     33 CB         -1.6176  -15.4649  -43.3319 C.3       8 UNK        -0.1800 
     34 N          -0.5304  -17.2954  -42.1463 N.am      8 UNK        -0.5000 
     35 C           0.0031  -18.4838  -41.8365 C.2       7 UNK         0.5000 
     36 O           0.0515  -19.4351  -42.6177 O.2       7 UNK        -0.5000 
     37 CA          0.6146  -18.5982  -40.4269 C.3       7 UNK         0.1400 
     38 CB          1.1336  -20.0123  -40.1130 C.3       7 UNK        -0.1800 
     39 N           1.7205  -17.6522  -40.2962 N.am      7 UNK        -0.5000 
     40 C           1.6165  -16.3872  -39.8672 C.2       6 UNK         0.5000 
     41 O           0.5682  -15.8888  -39.4564 O.2       6 UNK        -0.5000 
     42 CA          2.8902  -15.5252  -39.9701 C.3       6 UNK         0.1400 
     43 CB          3.7782  -15.7155  -38.7311 C.3       6 UNK        -0.1800 
     44 N           3.6648  -15.8273  -41.1782 N.am      6 UNK        -0.5000 
     45 C           3.2453  -15.5451  -42.4187 C.2       5 UNK         0.5000 
     46 O           2.1980  -14.9469  -42.6622 O.2       5 UNK        -0.5000 
     47 CA          4.1032  -16.0799  -43.5708 C.3       5 UNK         0.1400 
     48 CB          3.6182  -17.4817  -43.9778 C.3       5 UNK        -0.1800 
     49 N           4.0290  -15.1727  -44.7135 N.am      5 UNK        -0.5000 
     50 C           4.9689  -15.0683  -45.6622 C.2       4 UNK         0.5000 
     51 O           5.9762  -15.7764  -45.7019 O.2       4 UNK        -0.5000 
     52 CA          4.7838  -13.9762  -46.7340 C.3       4 UNK         0.1400 
     53 CB          3.8858  -14.4623  -47.8811 C.3       4 UNK        -0.1800 
     54 N           4.2481  -12.7278  -46.1965 N.am      4 UNK        -0.5000 
     55 C           4.9070  -11.9007  -45.3723 C.2       3 UNK         0.5000 
     56 O           6.0594  -12.0927  -44.9829 O.2       3 UNK        -0.5000 
     57 CA          4.1449  -10.6521  -44.8963 C.3       3 UNK         0.1400 
     58 CB          4.2913   -9.5004  -45.9030 C.3       3 UNK        -0.1800 
     59 N           2.7280  -10.9498  -44.6936 N.am      3 UNK        -0.5000 
     60 C           2.2340  -11.5034  -43.5777 C.2       2 UNK         0.5000 
     61 O           2.9014  -11.6942  -42.5605 O.2       2 UNK        -0.5000 
     62 CA          0.7471  -11.9079  -43.5923 C.3       2 UNK         0.1400 
     63 CB         -0.1115  -10.8265  -42.9192 C.3       2 UNK        -0.1800 
     64 N           0.2189  -12.1632  -44.9344 N.am      2 UNK        -0.5000 
     65 C           0.5475  -13.2113  -45.7039 C.2       1 UNK         0.5000 
     66 O           1.3572  -14.0785  -45.3837 O.2       1 UNK        -0.5000 
     67 C          -0.4861  -20.9133  -47.3092 C.2       11 UNK         0.5000 
     68 O          -0.0616  -21.4643  -48.3251 O.2       11 UNK        -0.5000 
     69 N          -1.7037  -20.3550  -47.2201 N.am      12 UNK        -0.5000 
     70 CA         -2.7178  -20.4331  -48.2712 C.3       12 UNK         0.1400 
     71 CB         -3.9099  -19.5282  -47.9226 C.3       12 UNK        -0.1800 
     72 C          -3.1866  -21.8801  -48.5047 C.2       12 UNK         0.5000 
     73 O          -3.1152  -22.3638  -49.6328 O.2       12 UNK        -0.5000 
     74 N          -3.6212  -22.5553  -47.4288 N.am      13 UNK        -0.5000 
     75 CA         -4.1492  -23.9234  -47.4481 C.3       13 UNK         0.1400 
     76 CB         -4.6252  -24.3084  -46.0404 C.3       13 UNK        -0.1800 
     77 C          -3.1658  -24.9775  -47.9913 C.2       13 UNK         0.5000 
     78 O          -3.6001  -25.9330  -48.6358 O.2       13 UNK        -0.5000 
     79 N          -1.8613  -24.7643  -47.7692 N.am      14 UNK        -0.5000 
     80 CA         -0.7583  -25.5901  -48.2681 C.3       14 UNK         0.1400 
     81 CB          0.5661  -25.0636  -47.6939 C.3       14 UNK        -0.1800 
     82 C          -0.6761  -25.6968  -49.8057 C.2       14 UNK         0.5000 
     83 O          -0.0542  -26.6358  -50.3041 O.2       14 UNK        -0.5000 
     84 N          -1.3211  -24.7725  -50.5341 N.am      15 UNK        -0.5000 
     85 CA         -1.4765  -24.8273  -51.9891 C.3       15 UNK         0.1400 
     86 CB         -1.7922  -23.4216  -52.5160 C.3       15 UNK        -0.1800 
     87 C          -2.5169  -25.8687  -52.4650 C.2       15 UNK         0.5000 
     88 O          -2.6078  -26.1019  -53.6710 O.2       15 UNK        -0.5000 
     89 N          -3.2534  -26.4929  -51.5292 N.am      16 UNK        -0.5000 
     90 CA         -4.1139  -27.6716  -51.6839 C.3       16 UNK         0.1400 
     91 CB         -3.2498  -28.9284  -51.9216 C.3       16 UNK        -0.1800 
     92 C          -5.2232  -27.4930  -52.7376 C.2       16 UNK         0.5000 
     93 O          -6.2864  -26.9636  -52.4157 O.2       16 UNK        -0.5000 
     94 N          -4.9591  -27.9122  -53.9824 N.am      17 UNK        -0.5000 
     95 CA         -5.8439  -27.7275  -55.1356 C.3       17 UNK         0.1400 
     96 CB         -5.2675  -28.4966  -56.3339 C.3       17 UNK        -0.1800 
     97 C          -6.0690  -26.2455  -55.5016 C.2       17 UNK         0.5000 
     98 O          -7.0966  -25.9197  -56.0969 O.2       17 UNK        -0.5000 
     99 N          -5.1208  -25.3809  -55.1195 N.am      18 UNK        -0.5000 
    100 CA        -5.1689  -23.9322  -55.2879 C.3       18 UNK         0.1400 
    101 CB        -3.9876  -23.5006  -56.1750 C.3       18 UNK        -0.1800 
    102 C         -5.1702  -23.2249  -53.9186 C.2       18 UNK         0.5000 
    103 O         -4.5824  -22.1524  -53.7904 O.2       18 UNK        -0.5000 
    104 N         -5.8310  -23.8196  -52.9102 N.am      19 UNK        -0.5000 
    105 CA        -5.9058  -23.3229  -51.5258 C.3       19 UNK         0.1400 
    106 CB        -6.6851  -24.3197  -50.6543 C.3       19 UNK        -0.1800 
    107 C         -6.4778  -21.8991  -51.3524 C.2       19 UNK         0.5000 
    108 O         -6.2473  -21.2747  -50.3155 O.2       19 UNK        -0.5000 
    109 N         -7.1884  -21.3932  -52.3686 N.am      20 UNK        -0.5000 
    110 CA        -7.6442  -20.0099  -52.4917 C.3       20 UNK         0.1400 
    111 CB        -8.7415  -19.9500  -53.5691 C.3       20 UNK        -0.1800 
    112 C         -6.4673  -19.0535  -52.7896 C.2       20 UNK         0.5000 
    113 O         -6.3591  -18.5260  -53.8987 O.2       20 UNK        -0.5000 
    114 N         -5.5906  -18.8796  -51.7904 N.am      21 UNK        -0.5000 
    115 CA        -4.4286  -17.9837  -51.7555 C.3       21 UNK         0.1400 
    116 CB        -4.8941  -16.5197  -51.6187 C.3       21 UNK        -0.1800 
    117 C         -3.4387  -18.1934  -52.9222 C.2       21 UNK         0.5000 
    118 O         -2.9222  -17.2221  -53.4772 O.2       21 UNK        -0.5000 
    119 N         -3.1997  -19.4639  -53.2680 N.am      22 UNK        -0.5000 
    120 CA        -2.3302  -19.9231  -54.3655 C.3       22 UNK         0.1400 
    121 C         -2.9228  -19.6957  -55.7905 C.2       22 UNK         0.5000 
    122 N         -4.1821  -19.2986  -55.9412 N.am      22 UNK        -0.7600 
    123 O         -2.2363  -19.9081  -56.7864 O.2       22 UNK        -0.5000 
    124 C124       -0.8502  -19.4467  -54.2613 C.3       23 UNK        -0.0398 
    125 S125       -0.1153  -19.6617  -52.5978 S.3       23 UNK        -0.2404 
    126 C126        0.4413  -17.9663  -52.2270 C.3       23 UNK        -0.0205 
    127 H127        1.1281   -9.8895  -49.7294 H         1 UNK         0.0600 
    128 H128        0.8878   -9.0429  -48.1975 H         1 UNK         0.0600 
    129 H129       -0.4868   -9.7866  -49.0212 H         1 UNK         0.0600 
    130 H130       -1.1087  -11.7179  -48.0988 H         1 UNK         0.3000 
    131 H131        0.4860  -13.9420  -47.7082 H         1 UNK         0.0600 
    132 H132       -2.1897  -13.2818  -46.3663 H         1 UNK         0.0800 
    133 H133       -1.4429  -14.8543  -46.3567 H         1 UNK         0.0800 
    134 H134       -3.1802  -16.4796  -49.0905 H         1 UNK         0.0800 
    135 H135       -2.5933  -16.4693  -47.4519 H         1 UNK         0.0800 
    136 H136       -1.7013  -16.8746  -50.9797 H         1 UNK         0.1150 
    137 H137        2.2666  -18.2907  -50.2120 H         1 UNK         0.1150 
    138 H138       -0.1103  -16.7180  -47.0061 H         1 UNK         0.1150 
    139 H139        3.2949  -17.4277  -48.0539 H         1 UNK         0.0800 
    140 H140        2.2785  -17.0760  -46.6824 H         1 UNK         0.0800 
    141 H141        0.5312  -18.7515  -45.8745 H         1 UNK         0.0800 
    142 H142        1.6323  -19.6154  -44.8430 H         1 UNK         0.0800 
    143 H143        1.0892  -21.7469  -46.1305 H         1 UNK         0.0600 
    144 H144       -0.4289  -20.5027  -44.1142 H         1 UNK         0.3000 
    145 H145       -2.7187  -23.1518  -43.4599 H         1 UNK         0.0600 
    146 H146       -1.6968  -22.7646  -41.1990 H         1 UNK         0.0600 
    147 H147       -0.2723  -22.0650  -41.9711 H         1 UNK         0.0600 
    148 H148       -0.6734  -23.7549  -42.2288 H         1 UNK         0.0600 
    149 H149       -2.2337  -20.5103  -42.3830 H         1 UNK         0.3000 
    150 H150       -4.6188  -18.8306  -44.4381 H         1 UNK         0.0600 
    151 H151       -5.9877  -19.9332  -42.6635 H         1 UNK         0.0600 
    152 H152       -5.5945  -18.2775  -42.2294 H         1 UNK         0.0600 
    153 H153       -4.7284  -19.6167  -41.4759 H         1 UNK         0.0600 
    154 H154       -3.0210  -17.9768  -42.2204 H         1 UNK         0.3000 
    155 H155       -0.2213  -16.8717  -44.1533 H         1 UNK         0.0600 
    156 H156       -2.1369  -15.1585  -44.2386 H         1 UNK         0.0600 
    157 H157       -0.8171  -14.7473  -43.1534 H         1 UNK         0.0600 
    158 H158       -2.3315  -15.3808  -42.5117 H         1 UNK         0.0600 
    159 H159       -0.4901  -16.5713  -41.4409 H         1 UNK         0.3000 
    160 H160       -0.1678  -18.3615  -39.7028 H         1 UNK         0.0600 
    161 H161        1.8791  -20.3433  -40.8373 H         1 UNK         0.0600 
    162 H162        0.3176  -20.7349  -40.1211 H         1 UNK         0.0600 
    163 H163        1.5880  -20.0536  -39.1230 H         1 UNK         0.0600 
    164 H164        2.6132  -17.9606  -40.6515 H         1 UNK         0.3000 
    165 H165        2.5827  -14.4779  -40.0126 H         1 UNK         0.0600 
    166 H166        4.6478  -15.0589  -38.7651 H         1 UNK         0.0600 
    167 H167        3.2294  -15.4789  -37.8186 H         1 UNK         0.0600 
    168 H168        4.1352  -16.7424  -38.6426 H         1 UNK         0.0600 
    169 H169        4.5369  -16.3196  -41.0479 H         1 UNK         0.3000 
    170 H170        5.1387  -16.1392  -43.2288 H         1 UNK         0.0600 
    171 H171        2.5747  -17.4580  -44.2930 H         1 UNK         0.0600 
    172 H172        4.2101  -17.8885  -44.7975 H         1 UNK         0.0600 
    173 H173        3.6923  -18.1824  -43.1456 H         1 UNK         0.0600 
    174 H174        3.1961  -14.5882  -44.7502 H         1 UNK         0.3000 
    175 H175        5.7679  -13.7571  -47.1538 H         1 UNK         0.0600 
    176 H176        2.8927  -14.7403  -47.5287 H         1 UNK         0.0600 
    177 H177        3.7646  -13.6911  -48.6420 H         1 UNK         0.0600 
    178 H178        4.3222  -15.3326  -48.3711 H         1 UNK         0.0600 
    179 H179        3.3216  -12.4613  -46.5109 H         1 UNK         0.3000 
    180 H180        4.5863  -10.3270  -43.9516 H         1 UNK         0.0600 
    181 H181        3.7706   -8.6071  -45.5579 H         1 UNK         0.0600 
    182 H182        3.8938   -9.7622  -46.8838 H         1 UNK         0.0600 
    183 H183        5.3404   -9.2339  -46.0370 H         1 UNK         0.0600 
    184 H184        2.1266  -10.8584  -45.5012 H         1 UNK         0.3000 
    185 H185        0.6529  -12.8253  -43.0093 H         1 UNK         0.0600 
    186 H186       -0.0749   -9.8843  -43.4674 H         1 UNK         0.0600 
    187 H187       -1.1543  -11.1368  -42.8505 H         1 UNK         0.0600 
    188 H188        0.2346  -10.6294  -41.9036 H         1 UNK         0.0600 
    189 H189       -0.4385  -11.4876  -45.2961 H         1 UNK         0.3000 
    190 H190       -1.9601  -19.8666  -46.3692 H         1 UNK         0.3000 
    191 H191       -2.2698  -20.0651  -49.1972 H         1 UNK         0.0600 
    192 H192       -3.5921  -18.5045  -47.7465 H         1 UNK         0.0600 
    193 H193       -4.4324  -19.8642  -47.0277 H         1 UNK         0.0600 
    194 H194       -4.6362  -19.5121  -48.7355 H         1 UNK         0.0600 
    195 H195       -3.6513  -22.0770  -46.5328 H         1 UNK         0.3000 
    196 H196       -5.0167  -23.9214  -48.1097 H         1 UNK         0.0600 
    197 H197       -5.3902  -23.6206  -45.6799 H         1 UNK         0.0600 
    198 H198       -3.8029  -24.3016  -45.3249 H         1 UNK         0.0600 
    199 H199       -5.0588  -25.3092  -46.0338 H         1 UNK         0.0600 
    200 H200       -1.6020  -23.9890  -47.1664 H         1 UNK         0.3000 
    201 H201       -0.9143  -26.6014  -47.8877 H         1 UNK         0.0600 
    202 H202        0.5658  -25.0976  -46.6045 H         1 UNK         0.0600 
    203 H203        0.7533  -24.0337  -47.9981 H         1 UNK         0.0600 
    204 H204        1.4096  -25.6653  -48.0346 H         1 UNK         0.0600 
    205 H205       -1.8088  -24.0214  -50.0569 H         1 UNK         0.3000 
    206 H206       -0.5195  -25.1267  -52.4211 H         1 UNK         0.0600 
    207 H207       -2.7329  -23.0463  -52.1190 H         1 UNK         0.0600 
    208 H208       -1.0114  -22.7124  -52.2412 H         1 UNK         0.0600 
    209 H209       -1.8665  -23.4161  -53.6033 H         1 UNK         0.0600 
    210 H210       -3.1555  -26.1786  -50.5688 H         1 UNK         0.3000 
    211 H211       -4.6221  -27.8031  -50.7273 H         1 UNK         0.0600 
    212 H212       -2.6239  -28.8410  -52.8102 H         1 UNK         0.0600 
    213 H213       -3.8715  -29.8170  -52.0386 H         1 UNK         0.0600 
    214 H214       -2.5885  -29.1080  -51.0736 H         1 UNK         0.0600 
    215 H215       -4.0438  -28.2948  -54.1715 H         1 UNK         0.3000 
    216 H216       -6.8166  -28.1562  -54.8861 H         1 UNK         0.0600 
    217 H217       -5.9159  -28.4042  -57.2063 H         1 UNK         0.0600 
    218 H218       -5.1726  -29.5598  -56.1123 H         1 UNK         0.0600 
    219 H219       -4.2825  -28.1218  -56.6154 H         1 UNK         0.0600 
    220 H220       -4.3068  -25.7417  -54.6283 H         1 UNK         0.3000 
    221 H221       -6.0911  -23.6328  -55.7891 H         1 UNK         0.0600 
    222 H222       -3.0292  -23.7195  -55.7039 H         1 UNK         0.0600 
    223 H223       -4.0113  -24.0129  -57.1367 H         1 UNK         0.0600 
    224 H224       -4.0207  -22.4306  -56.3809 H         1 UNK         0.0600 
    225 H225       -6.2688  -24.7154  -53.0833 H         1 UNK         0.3000 
    226 H226       -4.8849  -23.2912  -51.1503 H         1 UNK         0.0600 
    227 H227       -6.1089  -25.2304  -50.4944 H         1 UNK         0.0600 
    228 H228       -6.8979  -23.9080  -49.6669 H         1 UNK         0.0600 
    229 H229       -7.6388  -24.5926  -51.1068 H         1 UNK         0.0600 
    230 H230       -7.3024  -21.9722  -53.1867 H         1 UNK         0.3000 
    231 H231       -8.0897  -19.7008  -51.5439 H         1 UNK         0.0600 
    232 H232       -9.1196  -18.9334  -53.6850 H         1 UNK         0.0600 
    233 H233       -9.5891  -20.5821  -53.3037 H         1 UNK         0.0600 
    234 H234       -8.3715  -20.2764  -54.5419 H         1 UNK         0.0600 
    235 H235       -5.7360  -19.4502  -50.9631 H         1 UNK         0.3000 
    236 H236       -3.8766  -18.2388  -50.8501 H         1 UNK         0.0600 
    237 H237       -5.4384  -16.1871  -52.5032 H         1 UNK         0.0600 
    238 H238       -5.5471  -16.3930  -50.7552 H         1 UNK         0.0600 
    239 H239       -4.0467  -15.8467  -51.4825 H         1 UNK         0.0600 
    240 H240       -3.7189  -20.2014  -52.8105 H         1 UNK         0.3000 
    241 H241       -2.3036  -21.0066  -54.2578 H         1 UNK         0.0600 
    242 H242       -4.5495  -19.1642  -56.8691 H         1 UNK         0.3800 
    243 H243       -4.7714  -19.1126  -55.1381 H         1 UNK         0.3800 
    244 H244       -0.7700  -18.4069  -54.5789 H         1 UNK         0.0800 
    245 H245       -0.2318  -20.0112  -54.9609 H         1 UNK         0.0800 
    246 H246       -0.1286  -17.2386  -52.8060 H         1 UNK         0.0800 
    247 H247        1.4809  -17.8546  -52.5379 H         1 UNK         0.0800 
@<TRIPOS>BOND
     1    1    2 1    
     2    1  127 1    
     3    1  128 1    
     4    1  129 1    
     5    2    3 2    
     6    2    4 am   BACKBONE|DICT|INTERRES
     7    4    5 1    
     8    4  130 1    
     9    5    6 1    
    10    5   65 1    
    11    5  131 1    
    12    6    7 1    
    13    6  132 1    
    14    6  133 1    
    15    7    8 1    
    16    8    9 1    
    17    8  134 1    
    18    8  135 1    
    19    9   10 ar   
    20    9   14 ar   
    21   10   11 ar   
    22   10  136 1    
    23   11   12 ar   
    24   11  126 1    
    25   12   13 ar   
    26   12  137 1    
    27   13   14 ar   
    28   13   15 1    
    29   14  138 1    
    30   15   16 1    
    31   15  139 1    
    32   15  140 1    
    33   16   17 1    
    34   17   18 1    
    35   17  141 1    
    36   17  142 1    
    37   18   19 1    
    38   18   67 1    
    39   18  143 1    
    40   19   20 am   BACKBONE|DICT|INTERRES
    41   19  144 1    
    42   20   21 2    
    43   20   22 1    
    44   22   23 1    
    45   22   24 1    
    46   22  145 1    
    47   23  146 1    
    48   23  147 1    
    49   23  148 1    
    50   24   25 am   BACKBONE|DICT|INTERRES
    51   24  149 1    
    52   25   26 2    
    53   25   27 1    
    54   27   28 1    
    55   27   29 1    
    56   27  150 1    
    57   28  151 1    
    58   28  152 1    
    59   28  153 1    
    60   29   30 am   BACKBONE|DICT|INTERRES
    61   29  154 1    
    62   30   31 2    
    63   30   32 1    
    64   32   33 1    
    65   32   34 1    
    66   32  155 1    
    67   33  156 1    
    68   33  157 1    
    69   33  158 1    
    70   34   35 am   BACKBONE|DICT|INTERRES
    71   34  159 1    
    72   35   36 2    
    73   35   37 1    
    74   37   38 1    
    75   37   39 1    
    76   37  160 1    
    77   38  161 1    
    78   38  162 1    
    79   38  163 1    
    80   39   40 am   BACKBONE|DICT|INTERRES
    81   39  164 1    
    82   40   41 2    
    83   40   42 1    
    84   42   43 1    
    85   42   44 1    
    86   42  165 1    
    87   43  166 1    
    88   43  167 1    
    89   43  168 1    
    90   44   45 am   BACKBONE|DICT|INTERRES
    91   44  169 1    
    92   45   46 2    
    93   45   47 1    
    94   47   48 1    
    95   47   49 1    
    96   47  170 1    
    97   48  171 1    
    98   48  172 1    
    99   48  173 1    
   100   49   50 am   BACKBONE|DICT|INTERRES
   101   49  174 1    
   102   50   51 2    
   103   50   52 1    
   104   52   53 1    
   105   52   54 1    
   106   52  175 1    
   107   53  176 1    
   108   53  177 1    
   109   53  178 1    
   110   54   55 am   BACKBONE|DICT|INTERRES
   111   54  179 1    
   112   55   56 2    
   113   55   57 1    
   114   57   58 1    
   115   57   59 1    
   116   57  180 1    
   117   58  181 1    
   118   58  182 1    
   119   58  183 1    
   120   59   60 am   BACKBONE|DICT|INTERRES
   121   59  184 1    
   122   60   61 2    
   123   60   62 1    
   124   62   63 1    
   125   62   64 1    
   126   62  185 1    
   127   63  186 1    
   128   63  187 1    
   129   63  188 1    
   130   64   65 am   BACKBONE|DICT|INTERRES
   131   64  189 1    
   132   65   66 2    
   133   67   68 2    
   134   67   69 am   BACKBONE|DICT|INTERRES
   135   69   70 1    
   136   69  190 1    
   137   70   71 1    
   138   70   72 1    
   139   70  191 1    
   140   71  192 1    
   141   71  193 1    
   142   71  194 1    
   143   72   73 2    
   144   72   74 am   BACKBONE|DICT|INTERRES
   145   74   75 1    
   146   74  195 1    
   147   75   76 1    
   148   75   77 1    
   149   75  196 1    
   150   76  197 1    
   151   76  198 1    
   152   76  199 1    
   153   77   78 2    
   154   77   79 am   BACKBONE|DICT|INTERRES
   155   79   80 1    
   156   79  200 1    
   157   80   81 1    
   158   80   82 1    
   159   80  201 1    
   160   81  202 1    
   161   81  203 1    
   162   81  204 1    
   163   82   83 2    
   164   82   84 am   BACKBONE|DICT|INTERRES
   165   84   85 1    
   166   84  205 1    
   167   85   86 1    
   168   85   87 1    
   169   85  206 1    
   170   86  207 1    
   171   86  208 1    
   172   86  209 1    
   173   87   88 2    
   174   87   89 am   BACKBONE|DICT|INTERRES
   175   89   90 1    
   176   89  210 1    
   177   90   91 1    
   178   90   92 1    
   179   90  211 1    
   180   91  212 1    
   181   91  213 1    
   182   91  214 1    
   183   92   93 2    
   184   92   94 am   BACKBONE|DICT|INTERRES
   185   94   95 1    
   186   94  215 1    
   187   95   96 1    
   188   95   97 1    
   189   95  216 1    
   190   96  217 1    
   191   96  218 1    
   192   96  219 1    
   193   97   98 2    
   194   97   99 am   BACKBONE|DICT|INTERRES
   195   99  100 1    
   196   99  220 1    
   197  100  101 1    
   198  100  102 1    
   199  100  221 1    
   200  101  222 1    
   201  101  223 1    
   202  101  224 1    
   203  102  103 2    
   204  102  104 am   BACKBONE|DICT|INTERRES
   205  104  105 1    
   206  104  225 1    
   207  105  106 1    
   208  105  107 1    
   209  105  226 1    
   210  106  227 1    
   211  106  228 1    
   212  106  229 1    
   213  107  108 2    
   214  107  109 am   BACKBONE|DICT|INTERRES
   215  109  110 1    
   216  109  230 1    
   217  110  111 1    
   218  110  112 1    
   219  110  231 1    
   220  111  232 1    
   221  111  233 1    
   222  111  234 1    
   223  112  113 2    
   224  112  114 am   BACKBONE|DICT|INTERRES
   225  114  115 1    
   226  114  235 1    
   227  115  116 1    
   228  115  117 1    
   229  115  236 1    
   230  116  237 1    
   231  116  238 1    
   232  116  239 1    
   233  117  118 2    
   234  117  119 am   BACKBONE|DICT|INTERRES
   235  119  120 1    
   236  119  240 1    
   237  120  121 1    
   238  120  124 1    
   239  120  241 1    
   240  121  122 am   BACKBONE|DICT|INTERRES
   241  121  123 2    
   242  122  242 1    
   243  122  243 1    
   244  124  125 1    
   245  124  244 1    
   246  124  245 1    
   247  125  126 1    
   248  126  246 1    
   249  126  247 1    
@<TRIPOS>SUBSTRUCTURE
     1 UNK         1 GROUP             0       ****    0 ROOT    
