@<TRIPOS>MOLECULE
3R540
247   249    1
SMALL
USER_CHARGES


@<TRIPOS>ATOM
      1 CA          2.5704   -7.2786  -48.3948 C.3       0 UNK        -0.1800 
      2 C           3.0173   -8.6946  -48.7324 C.2       0 UNK         0.5000 
      3 O           4.0110   -8.8722  -49.4381 O.2       0 UNK        -0.5000 
      4 N           2.2858   -9.7010  -48.2374 N.am      1 UNK        -0.5000 
      5 CA          2.5949  -11.1226  -48.3979 C.3       1 UNK         0.1400 
      6 C6          1.3382  -11.9983  -48.1543 C.3       23 UNK        -0.0398 
      7 S7          1.5257  -13.7000  -48.7871 S.3       23 UNK        -0.2404 
      8 C8          0.4859  -14.6362  -47.6213 C.3       23 UNK        -0.0205 
      9 C9          0.1009  -15.9862  -48.2052 C.ar      23 UNK        -0.0193 
     10 C10        -1.1319  -16.1504  -48.8431 C.ar      23 UNK        -0.1150 
     11 C11        -1.4771  -17.3780  -49.4150 C.ar      23 UNK        -0.0193 
     12 C12        -0.5793  -18.4465  -49.3440 C.ar      23 UNK        -0.1150 
     13 C13         0.6553  -18.2993  -48.7046 C.ar      23 UNK        -0.0193 
     14 C14         0.9837  -17.0669  -48.1294 C.ar      23 UNK        -0.1150 
     15 C15         1.6332  -19.4708  -48.6801 C.3       23 UNK        -0.0205 
     16 S16         2.4134  -19.7885  -47.0594 S.3       23 UNK        -0.2404 
     17 C17         1.0009  -19.7946  -45.9077 C.3       23 UNK        -0.0398 
     18 CA          0.2993  -21.1677  -45.7741 C.3       11 UNK         0.1400 
     19 N          -0.3036  -21.3223  -44.4509 N.am      11 UNK        -0.5000 
     20 C          -0.9111  -22.4201  -43.9843 C.2       10 UNK         0.5000 
     21 O          -0.9812  -23.4829  -44.5991 O.2       10 UNK        -0.5000 
     22 CA         -1.6050  -22.2820  -42.6194 C.3       10 UNK         0.1400 
     23 CB         -0.6032  -22.4881  -41.4736 C.3       10 UNK        -0.1800 
     24 N          -2.2575  -20.9788  -42.4790 N.am      10 UNK        -0.5000 
     25 C          -3.3653  -20.6162  -43.1410 C.2       9 UNK         0.5000 
     26 O          -3.9778  -21.3621  -43.9056 O.2       9 UNK        -0.5000 
     27 CA         -3.8457  -19.1656  -42.9441 C.3       9 UNK         0.1400 
     28 CB         -4.6299  -19.0259  -41.6305 C.3       9 UNK        -0.1800 
     29 N          -2.7484  -18.1952  -42.9624 N.am      9 UNK        -0.5000 
     30 C          -2.0061  -17.9207  -44.0441 C.2       8 UNK         0.5000 
     31 O          -2.1848  -18.4425  -45.1421 O.2       8 UNK        -0.5000 
     32 CA         -0.8359  -16.9347  -43.8674 C.3       8 UNK         0.1400 
     33 CB         -1.3197  -15.4924  -44.0770 C.3       8 UNK        -0.1800 
     34 N          -0.1268  -17.0360  -42.5855 N.am      8 UNK        -0.5000 
     35 C           0.4007  -18.1578  -42.0746 C.2       7 UNK         0.5000 
     36 O           0.2516  -19.2716  -42.5761 O.2       7 UNK        -0.5000 
     37 CA          1.2636  -17.9967  -40.8150 C.3       7 UNK         0.1400 
     38 CB          0.8480  -18.9547  -39.6806 C.3       7 UNK        -0.1800 
     39 N           2.6780  -18.1114  -41.1777 N.am      7 UNK        -0.5000 
     40 C           3.3847  -19.2009  -41.5240 C.2       6 UNK         0.5000 
     41 O           2.9793  -20.3568  -41.4019 O.2       6 UNK        -0.5000 
     42 CA          4.7884  -18.9703  -42.1309 C.3       6 UNK         0.1400 
     43 CB          4.9235  -19.6968  -43.4807 C.3       6 UNK        -0.1800 
     44 N           5.1007  -17.5531  -42.3349 N.am      6 UNK        -0.5000 
     45 C           5.5889  -16.7263  -41.3975 C.2       5 UNK         0.5000 
     46 O           5.9193  -17.0974  -40.2712 O.2       5 UNK        -0.5000 
     47 CA          5.6870  -15.2267  -41.7567 C.3       5 UNK         0.1400 
     48 CB          7.1250  -14.8627  -42.1552 C.3       5 UNK        -0.1800 
     49 N           4.7828  -14.8170  -42.8341 N.am      5 UNK        -0.5000 
     50 C           3.4440  -14.8983  -42.8045 C.2       4 UNK         0.5000 
     51 O           2.8065  -15.2310  -41.8057 O.2       4 UNK        -0.5000 
     52 CA          2.6868  -14.6222  -44.1187 C.3       4 UNK         0.1400 
     53 CB          1.9736  -13.2654  -44.0392 C.3       4 UNK        -0.1800 
     54 N           3.5329  -14.6774  -45.3183 N.am      4 UNK        -0.5000 
     55 C           4.1691  -15.7805  -45.7506 C.2       3 UNK         0.5000 
     56 O           4.0622  -16.8709  -45.1900 O.2       3 UNK        -0.5000 
     57 CA          5.1230  -15.6558  -46.9586 C.3       3 UNK         0.1400 
     58 CB          4.6044  -16.4360  -48.1755 C.3       3 UNK        -0.1800 
     59 N           5.3896  -14.2782  -47.3675 N.am      3 UNK        -0.5000 
     60 C           6.1388  -13.3966  -46.6923 C.2       2 UNK         0.5000 
     61 O           6.7257  -13.6608  -45.6424 O.2       2 UNK        -0.5000 
     62 CA          6.1942  -11.9673  -47.2696 C.3       2 UNK         0.1400 
     63 CB          7.4156  -11.8025  -48.1861 C.3       2 UNK        -0.1800 
     64 N           4.9818  -11.5928  -48.0094 N.am      2 UNK        -0.5000 
     65 C           3.7615  -11.5001  -47.4635 C.2       1 UNK         0.5000 
     66 O           3.5418  -11.6985  -46.2688 O.2       1 UNK        -0.5000 
     67 C          -0.7399  -21.3947  -46.8928 C.2       11 UNK         0.5000 
     68 O          -0.4975  -22.1947  -47.7952 O.2       11 UNK        -0.5000 
     69 N          -1.9004  -20.7320  -46.7836 N.am      12 UNK        -0.5000 
     70 CA         -3.0369  -20.8731  -47.6927 C.3       12 UNK         0.1400 
     71 CB         -4.1041  -19.8271  -47.3395 C.3       12 UNK        -0.1800 
     72 C          -3.6354  -22.2904  -47.6939 C.2       12 UNK         0.5000 
     73 O          -3.9792  -22.7975  -48.7621 O.2       12 UNK        -0.5000 
     74 N          -3.7176  -22.9202  -46.5131 N.am      13 UNK        -0.5000 
     75 CA         -4.1506  -24.3088  -46.3535 C.3       13 UNK         0.1400 
     76 CB         -4.3515  -24.6289  -44.8649 C.3       13 UNK        -0.1800 
     77 C          -3.1782  -25.3056  -47.0114 C.2       13 UNK         0.5000 
     78 O          -3.6272  -26.2027  -47.7246 O.2       13 UNK        -0.5000 
     79 N          -1.8686  -25.1040  -46.8050 N.am      14 UNK        -0.5000 
     80 CA         -0.7930  -25.8880  -47.4185 C.3       14 UNK         0.1400 
     81 CB          0.5490  -25.5113  -46.7726 C.3       14 UNK        -0.1800 
     82 C          -0.7277  -25.7247  -48.9493 C.2       14 UNK         0.5000 
     83 O          -0.4811  -26.7026  -49.6556 O.2       14 UNK        -0.5000 
     84 N          -0.9870  -24.5028  -49.4339 N.am      15 UNK        -0.5000 
     85 CA         -1.1015  -24.1631  -50.8538 C.3       15 UNK         0.1400 
     86 CB         -1.0103  -22.6355  -51.0065 C.3       15 UNK        -0.1800 
     87 C          -2.3935  -24.6880  -51.5147 C.2       15 UNK         0.5000 
     88 O          -2.4784  -24.6775  -52.7428 O.2       15 UNK        -0.5000 
     89 N          -3.3696  -25.1170  -50.6990 N.am      16 UNK        -0.5000 
     90 CA         -4.7164  -25.5625  -51.0662 C.3       16 UNK         0.1400 
     91 CB         -4.6669  -26.8619  -51.8962 C.3       16 UNK        -0.1800 
     92 C          -5.5325  -24.4436  -51.7423 C.2       16 UNK         0.5000 
     93 O          -6.2349  -24.6926  -52.7247 O.2       16 UNK        -0.5000 
     94 N          -5.4287  -23.2223  -51.1965 N.am      17 UNK        -0.5000 
     95 CA         -5.9914  -21.9771  -51.7310 C.3       17 UNK         0.1400 
     96 CB         -5.6168  -20.8194  -50.7964 C.3       17 UNK        -0.1800 
     97 C          -7.5133  -21.9877  -51.9688 C.2       17 UNK         0.5000 
     98 O          -7.9922  -21.2295  -52.8102 O.2       17 UNK        -0.5000 
     99 N          -8.2427  -22.8628  -51.2636 N.am      18 UNK        -0.5000 
    100 CA        -9.6723  -23.1121  -51.4618 C.3       18 UNK         0.1400 
    101 CB       -10.1710  -24.0522  -50.3536 C.3       18 UNK        -0.1800 
    102 C        -10.0145  -23.6895  -52.8528 C.2       18 UNK         0.5000 
    103 O        -11.1314  -23.4804  -53.3283 O.2       18 UNK        -0.5000 
    104 N         -9.0572  -24.3909  -53.4759 N.am      19 UNK        -0.5000 
    105 CA        -9.1708  -24.9580  -54.8191 C.3       19 UNK         0.1400 
    106 CB        -8.8909  -26.4679  -54.7485 C.3       19 UNK        -0.1800 
    107 C         -8.1974  -24.2799  -55.7981 C.2       19 UNK         0.5000 
    108 O         -8.5720  -24.0193  -56.9418 O.2       19 UNK        -0.5000 
    109 N         -6.9656  -24.0130  -55.3425 N.am      20 UNK        -0.5000 
    110 CA        -5.8692  -23.4832  -56.1562 C.3       20 UNK         0.1400 
    111 CB        -4.5395  -23.8519  -55.4789 C.3       20 UNK        -0.1800 
    112 C         -5.9360  -21.9624  -56.3969 C.2       20 UNK         0.5000 
    113 O         -5.2285  -21.4748  -57.2805 O.2       20 UNK        -0.5000 
    114 N         -6.7558  -21.2500  -55.6073 N.am      21 UNK        -0.5000 
    115 CA        -6.8544  -19.7887  -55.4912 C.3       21 UNK         0.1400 
    116 CB        -7.1695  -19.1270  -56.8502 C.3       21 UNK        -0.1800 
    117 C         -5.6178  -19.1642  -54.8066 C.2       21 UNK         0.5000 
    118 O         -4.6359  -19.8534  -54.5206 O.2       21 UNK        -0.5000 
    119 N         -5.6986  -17.8603  -54.5290 N.am      22 UNK        -0.5000 
    120 CA        -4.6279  -17.0557  -53.9211 C.3       22 UNK         0.1400 
    121 C         -4.8624  -15.5377  -54.1348 C.2       22 UNK         0.5000 
    122 N         -6.0970  -15.0545  -54.0961 N.am      22 UNK        -0.7600 
    123 O         -3.9200  -14.7893  -54.3714 O.2       22 UNK        -0.5000 
    124 C124       -4.3890  -17.3992  -52.4241 C.3       23 UNK        -0.0398 
    125 S125       -2.6986  -17.0209  -51.8613 S.3       23 UNK        -0.2404 
    126 C126       -2.8115  -17.5446  -50.1235 C.3       23 UNK        -0.0205 
    127 H127        1.6777   -7.2732  -47.7683 H         1 UNK         0.0600 
    128 H128        2.3480   -6.7274  -49.3085 H         1 UNK         0.0600 
    129 H129        3.3627   -6.7524  -47.8622 H         1 UNK         0.0600 
    130 H130        1.4989   -9.4887  -47.6403 H         1 UNK         0.3000 
    131 H131        2.9118  -11.2808  -49.4316 H         1 UNK         0.0600 
    132 H132        1.0639  -12.0141  -47.0984 H         1 UNK         0.0800 
    133 H133        0.4831  -11.5652  -48.6753 H         1 UNK         0.0800 
    134 H134        1.0211  -14.7757  -46.6823 H         1 UNK         0.0800 
    135 H135       -0.4123  -14.0633  -47.3854 H         1 UNK         0.0800 
    136 H136       -1.8175  -15.3175  -48.9118 H         1 UNK         0.1150 
    137 H137       -0.8385  -19.3919  -49.7995 H         1 UNK         0.1150 
    138 H138        1.9308  -16.9466  -47.6272 H         1 UNK         0.1150 
    139 H139        1.1427  -20.3868  -49.0115 H         1 UNK         0.0800 
    140 H140        2.4219  -19.2733  -49.4070 H         1 UNK         0.0800 
    141 H141        1.4271  -19.5079  -44.9454 H         1 UNK         0.0800 
    142 H142        0.2952  -19.0009  -46.1510 H         1 UNK         0.0800 
    143 H143        1.0530  -21.9533  -45.8594 H         1 UNK         0.0600 
    144 H144       -0.2468  -20.5168  -43.8313 H         1 UNK         0.3000 
    145 H145       -2.3688  -23.0590  -42.5470 H         1 UNK         0.0600 
    146 H146       -1.0868  -22.3920  -40.5015 H         1 UNK         0.0600 
    147 H147       -0.1609  -23.4840  -41.5209 H         1 UNK         0.0600 
    148 H148        0.2144  -21.7678  -41.5163 H         1 UNK         0.0600 
    149 H149       -1.7634  -20.2831  -41.9384 H         1 UNK         0.3000 
    150 H150       -4.5210  -18.9269  -43.7688 H         1 UNK         0.0600 
    151 H151       -5.4638  -19.7285  -41.5979 H         1 UNK         0.0600 
    152 H152       -5.0467  -18.0240  -41.5253 H         1 UNK         0.0600 
    153 H153       -4.0012  -19.2217  -40.7610 H         1 UNK         0.0600 
    154 H154       -2.5297  -17.7292  -42.0943 H         1 UNK         0.3000 
    155 H155       -0.1078  -17.1567  -44.6496 H         1 UNK         0.0600 
    156 H156       -0.4893  -14.7887  -44.0745 H         1 UNK         0.0600 
    157 H157       -2.0214  -15.1865  -43.3001 H         1 UNK         0.0600 
    158 H158       -1.8259  -15.3869  -45.0378 H         1 UNK         0.0600 
    159 H159        0.0464  -16.1647  -42.1048 H         1 UNK         0.3000 
    160 H160        1.1323  -16.9814  -40.4380 H         1 UNK         0.0600 
    161 H161        0.8640  -19.9994  -39.9892 H         1 UNK         0.0600 
    162 H162       -0.1667  -18.7362  -39.3468 H         1 UNK         0.0600 
    163 H163        1.5047  -18.8503  -38.8171 H         1 UNK         0.0600 
    164 H164        3.1189  -17.2141  -41.3430 H         1 UNK         0.3000 
    165 H165        5.5164  -19.4016  -41.4410 H         1 UNK         0.0600 
    166 H166        4.1645  -19.3685  -44.1919 H         1 UNK         0.0600 
    167 H167        5.9015  -19.5228  -43.9294 H         1 UNK         0.0600 
    168 H168        4.8105  -20.7748  -43.3597 H         1 UNK         0.0600 
    169 H169        4.8420  -17.1730  -43.2391 H         1 UNK         0.3000 
    170 H170        5.4209  -14.6578  -40.8636 H         1 UNK         0.0600 
    171 H171        7.8301  -15.1283  -41.3663 H         1 UNK         0.0600 
    172 H172        7.4340  -15.3834  -43.0627 H         1 UNK         0.0600 
    173 H173        7.2262  -13.7920  -42.3338 H         1 UNK         0.0600 
    174 H174        5.2208  -14.5218  -43.6962 H         1 UNK         0.3000 
    175 H175        1.9287  -15.4010  -44.2198 H         1 UNK         0.0600 
    176 H176        2.6821  -12.4483  -43.9008 H         1 UNK         0.0600 
    177 H177        1.3958  -13.0637  -44.9401 H         1 UNK         0.0600 
    178 H178        1.2806  -13.2367  -43.1974 H         1 UNK         0.0600 
    179 H179        3.6820  -13.7987  -45.8005 H         1 UNK         0.3000 
    180 H180        6.0689  -16.1077  -46.6528 H         1 UNK         0.0600 
    181 H181        3.7271  -15.9612  -48.6149 H         1 UNK         0.0600 
    182 H182        4.3347  -17.4582  -47.9069 H         1 UNK         0.0600 
    183 H183        5.3672  -16.4997  -48.9516 H         1 UNK         0.0600 
    184 H184        4.9366  -13.9649  -48.2134 H         1 UNK         0.3000 
    185 H185        6.3007  -11.2782  -46.4291 H         1 UNK         0.0600 
    186 H186        8.3369  -12.0498  -47.6570 H         1 UNK         0.0600 
    187 H187        7.3541  -12.4521  -49.0602 H         1 UNK         0.0600 
    188 H188        7.5097  -10.7745  -48.5368 H         1 UNK         0.0600 
    189 H189        5.0984  -11.3638  -48.9870 H         1 UNK         0.3000 
    190 H190       -2.0099  -20.0465  -46.0394 H         1 UNK         0.3000 
    191 H191       -2.6808  -20.6672  -48.7030 H         1 UNK         0.0600 
    192 H192       -4.9636  -19.8948  -48.0052 H         1 UNK         0.0600 
    193 H193       -3.7061  -18.8160  -47.4274 H         1 UNK         0.0600 
    194 H194       -4.4680  -19.9538  -46.3193 H         1 UNK         0.0600 
    195 H195       -3.4646  -22.4182  -45.6697 H         1 UNK         0.3000 
    196 H196       -5.1173  -24.4130  -46.8509 H         1 UNK         0.0600 
    197 H197       -4.7157  -25.6483  -44.7318 H         1 UNK         0.0600 
    198 H198       -5.0847  -23.9600  -44.4138 H         1 UNK         0.0600 
    199 H199       -3.4240  -24.5369  -44.3008 H         1 UNK         0.0600 
    200 H200       -1.5817  -24.3660  -46.1665 H         1 UNK         0.3000 
    201 H201       -0.9871  -26.9414  -47.2068 H         1 UNK         0.0600 
    202 H202        0.5360  -25.7012  -45.6992 H         1 UNK         0.0600 
    203 H203        0.7865  -24.4575  -46.9216 H         1 UNK         0.0600 
    204 H204        1.3657  -26.0961  -47.1973 H         1 UNK         0.0600 
    205 H205       -1.0900  -23.7337  -48.7767 H         1 UNK         0.3000 
    206 H206       -0.2578  -24.6108  -51.3827 H         1 UNK         0.0600 
    207 H207       -0.0774  -22.2513  -50.5938 H         1 UNK         0.0600 
    208 H208       -1.0454  -22.3425  -52.0565 H         1 UNK         0.0600 
    209 H209       -1.8339  -22.1328  -50.4991 H         1 UNK         0.0600 
    210 H210       -3.1938  -25.0653  -49.7040 H         1 UNK         0.3000 
    211 H211       -5.2276  -25.7890  -50.1298 H         1 UNK         0.0600 
    212 H212       -4.2274  -26.7001  -52.8808 H         1 UNK         0.0600 
    213 H213       -5.6690  -27.2638  -52.0503 H         1 UNK         0.0600 
    214 H214       -4.0832  -27.6303  -51.3893 H         1 UNK         0.0600 
    215 H215       -4.8463  -23.1210  -50.3667 H         1 UNK         0.3000 
    216 H216       -5.5187  -21.8017  -52.6989 H         1 UNK         0.0600 
    217 H217       -6.0337  -19.8762  -51.1501 H         1 UNK         0.0600 
    218 H218       -4.5355  -20.6980  -50.7311 H         1 UNK         0.0600 
    219 H219       -6.0020  -20.9882  -49.7909 H         1 UNK         0.0600 
    220 H220       -7.7673  -23.4457  -50.5911 H         1 UNK         0.3000 
    221 H221      -10.1953  -22.1585  -51.3645 H         1 UNK         0.0600 
    222 H222       -9.6661  -25.0184  -50.3889 H         1 UNK         0.0600 
    223 H223      -10.0058  -23.6212  -49.3659 H         1 UNK         0.0600 
    224 H224      -11.2417  -24.2377  -50.4507 H         1 UNK         0.0600 
    225 H225       -8.1574  -24.4986  -53.0186 H         1 UNK         0.3000 
    226 H226      -10.1798  -24.8207  -55.2134 H         1 UNK         0.0600 
    227 H227       -9.6154  -26.9713  -54.1079 H         1 UNK         0.0600 
    228 H228       -8.9568  -26.9253  -55.7367 H         1 UNK         0.0600 
    229 H229       -7.8950  -26.6758  -54.3542 H         1 UNK         0.0600 
    230 H230       -6.7211  -24.2797  -54.3910 H         1 UNK         0.3000 
    231 H231       -5.8963  -23.9707  -57.1332 H         1 UNK         0.0600 
    232 H232       -3.6892  -23.5501  -56.0920 H         1 UNK         0.0600 
    233 H233       -4.4586  -24.9273  -55.3179 H         1 UNK         0.0600 
    234 H234       -4.4327  -23.3607  -54.5107 H         1 UNK         0.0600 
    235 H235       -7.2724  -21.7568  -54.9006 H         1 UNK         0.3000 
    236 H236       -7.7043  -19.6004  -54.8345 H         1 UNK         0.0600 
    237 H237       -7.9824  -19.6433  -57.3617 H         1 UNK         0.0600 
    238 H238       -7.4805  -18.0900  -56.7194 H         1 UNK         0.0600 
    239 H239       -6.3045  -19.1210  -57.5141 H         1 UNK         0.0600 
    240 H240       -6.5094  -17.3408  -54.8314 H         1 UNK         0.3000 
    241 H241       -3.7192  -17.3005  -54.4733 H         1 UNK         0.0600 
    242 H242       -6.8878  -15.6192  -53.8374 H         1 UNK         0.3800 
    243 H243       -6.2310  -14.0692  -54.2542 H         1 UNK         0.3800 
    244 H244       -5.1138  -16.8978  -51.7826 H         1 UNK         0.0800 
    245 H245       -4.5299  -18.4644  -52.2567 H         1 UNK         0.0800 
    246 H246       -3.1337  -18.5861  -50.0788 H         1 UNK         0.0800 
    247 H247       -3.5792  -16.9600  -49.6135 H         1 UNK         0.0800 
@<TRIPOS>BOND
     1    1    2 1    
     2    1  127 1    
     3    1  128 1    
     4    1  129 1    
     5    2    3 2    
     6    2    4 am   BACKBONE|DICT|INTERRES
     7    4    5 1    
     8    4  130 1    
     9    5    6 1    
    10    5   65 1    
    11    5  131 1    
    12    6    7 1    
    13    6  132 1    
    14    6  133 1    
    15    7    8 1    
    16    8    9 1    
    17    8  134 1    
    18    8  135 1    
    19    9   10 ar   
    20    9   14 ar   
    21   10   11 ar   
    22   10  136 1    
    23   11   12 ar   
    24   11  126 1    
    25   12   13 ar   
    26   12  137 1    
    27   13   14 ar   
    28   13   15 1    
    29   14  138 1    
    30   15   16 1    
    31   15  139 1    
    32   15  140 1    
    33   16   17 1    
    34   17   18 1    
    35   17  141 1    
    36   17  142 1    
    37   18   19 1    
    38   18   67 1    
    39   18  143 1    
    40   19   20 am   BACKBONE|DICT|INTERRES
    41   19  144 1    
    42   20   21 2    
    43   20   22 1    
    44   22   23 1    
    45   22   24 1    
    46   22  145 1    
    47   23  146 1    
    48   23  147 1    
    49   23  148 1    
    50   24   25 am   BACKBONE|DICT|INTERRES
    51   24  149 1    
    52   25   26 2    
    53   25   27 1    
    54   27   28 1    
    55   27   29 1    
    56   27  150 1    
    57   28  151 1    
    58   28  152 1    
    59   28  153 1    
    60   29   30 am   BACKBONE|DICT|INTERRES
    61   29  154 1    
    62   30   31 2    
    63   30   32 1    
    64   32   33 1    
    65   32   34 1    
    66   32  155 1    
    67   33  156 1    
    68   33  157 1    
    69   33  158 1    
    70   34   35 am   BACKBONE|DICT|INTERRES
    71   34  159 1    
    72   35   36 2    
    73   35   37 1    
    74   37   38 1    
    75   37   39 1    
    76   37  160 1    
    77   38  161 1    
    78   38  162 1    
    79   38  163 1    
    80   39   40 am   BACKBONE|DICT|INTERRES
    81   39  164 1    
    82   40   41 2    
    83   40   42 1    
    84   42   43 1    
    85   42   44 1    
    86   42  165 1    
    87   43  166 1    
    88   43  167 1    
    89   43  168 1    
    90   44   45 am   BACKBONE|DICT|INTERRES
    91   44  169 1    
    92   45   46 2    
    93   45   47 1    
    94   47   48 1    
    95   47   49 1    
    96   47  170 1    
    97   48  171 1    
    98   48  172 1    
    99   48  173 1    
   100   49   50 am   BACKBONE|DICT|INTERRES
   101   49  174 1    
   102   50   51 2    
   103   50   52 1    
   104   52   53 1    
   105   52   54 1    
   106   52  175 1    
   107   53  176 1    
   108   53  177 1    
   109   53  178 1    
   110   54   55 am   BACKBONE|DICT|INTERRES
   111   54  179 1    
   112   55   56 2    
   113   55   57 1    
   114   57   58 1    
   115   57   59 1    
   116   57  180 1    
   117   58  181 1    
   118   58  182 1    
   119   58  183 1    
   120   59   60 am   BACKBONE|DICT|INTERRES
   121   59  184 1    
   122   60   61 2    
   123   60   62 1    
   124   62   63 1    
   125   62   64 1    
   126   62  185 1    
   127   63  186 1    
   128   63  187 1    
   129   63  188 1    
   130   64   65 am   BACKBONE|DICT|INTERRES
   131   64  189 1    
   132   65   66 2    
   133   67   68 2    
   134   67   69 am   BACKBONE|DICT|INTERRES
   135   69   70 1    
   136   69  190 1    
   137   70   71 1    
   138   70   72 1    
   139   70  191 1    
   140   71  192 1    
   141   71  193 1    
   142   71  194 1    
   143   72   73 2    
   144   72   74 am   BACKBONE|DICT|INTERRES
   145   74   75 1    
   146   74  195 1    
   147   75   76 1    
   148   75   77 1    
   149   75  196 1    
   150   76  197 1    
   151   76  198 1    
   152   76  199 1    
   153   77   78 2    
   154   77   79 am   BACKBONE|DICT|INTERRES
   155   79   80 1    
   156   79  200 1    
   157   80   81 1    
   158   80   82 1    
   159   80  201 1    
   160   81  202 1    
   161   81  203 1    
   162   81  204 1    
   163   82   83 2    
   164   82   84 am   BACKBONE|DICT|INTERRES
   165   84   85 1    
   166   84  205 1    
   167   85   86 1    
   168   85   87 1    
   169   85  206 1    
   170   86  207 1    
   171   86  208 1    
   172   86  209 1    
   173   87   88 2    
   174   87   89 am   BACKBONE|DICT|INTERRES
   175   89   90 1    
   176   89  210 1    
   177   90   91 1    
   178   90   92 1    
   179   90  211 1    
   180   91  212 1    
   181   91  213 1    
   182   91  214 1    
   183   92   93 2    
   184   92   94 am   BACKBONE|DICT|INTERRES
   185   94   95 1    
   186   94  215 1    
   187   95   96 1    
   188   95   97 1    
   189   95  216 1    
   190   96  217 1    
   191   96  218 1    
   192   96  219 1    
   193   97   98 2    
   194   97   99 am   BACKBONE|DICT|INTERRES
   195   99  100 1    
   196   99  220 1    
   197  100  101 1    
   198  100  102 1    
   199  100  221 1    
   200  101  222 1    
   201  101  223 1    
   202  101  224 1    
   203  102  103 2    
   204  102  104 am   BACKBONE|DICT|INTERRES
   205  104  105 1    
   206  104  225 1    
   207  105  106 1    
   208  105  107 1    
   209  105  226 1    
   210  106  227 1    
   211  106  228 1    
   212  106  229 1    
   213  107  108 2    
   214  107  109 am   BACKBONE|DICT|INTERRES
   215  109  110 1    
   216  109  230 1    
   217  110  111 1    
   218  110  112 1    
   219  110  231 1    
   220  111  232 1    
   221  111  233 1    
   222  111  234 1    
   223  112  113 2    
   224  112  114 am   BACKBONE|DICT|INTERRES
   225  114  115 1    
   226  114  235 1    
   227  115  116 1    
   228  115  117 1    
   229  115  236 1    
   230  116  237 1    
   231  116  238 1    
   232  116  239 1    
   233  117  118 2    
   234  117  119 am   BACKBONE|DICT|INTERRES
   235  119  120 1    
   236  119  240 1    
   237  120  121 1    
   238  120  124 1    
   239  120  241 1    
   240  121  122 am   BACKBONE|DICT|INTERRES
   241  121  123 2    
   242  122  242 1    
   243  122  243 1    
   244  124  125 1    
   245  124  244 1    
   246  124  245 1    
   247  125  126 1    
   248  126  246 1    
   249  126  247 1    
@<TRIPOS>SUBSTRUCTURE
     1 UNK         1 GROUP             0       ****    0 ROOT    
