@<TRIPOS>MOLECULE
3R540
247   249    1
SMALL
USER_CHARGES


@<TRIPOS>ATOM
      1 CA          0.3205  -11.7971  -48.2801 C.3       0 UNK        -0.1800 
      2 C          -0.1695  -13.0193  -47.5181 C.2       0 UNK         0.5000 
      3 O           0.2041  -13.2102  -46.3631 O.2       0 UNK        -0.5000 
      4 N          -1.0198  -13.8378  -48.1496 N.am      1 UNK        -0.5000 
      5 CA         -1.5723  -15.0863  -47.6024 C.3       1 UNK         0.1400 
      6 C6         -2.3650  -15.8668  -48.6777 C.3       23 UNK        -0.0398 
      7 S7         -1.2731  -16.4754  -50.0076 S.3       23 UNK        -0.2404 
      8 C8         -1.0881  -18.1908  -49.4461 C.3       23 UNK        -0.0205 
      9 C9         -0.0243  -18.9576  -50.2087 C.ar      23 UNK        -0.0193 
     10 C10        -0.2304  -19.3352  -51.5378 C.ar      23 UNK        -0.1150 
     11 C11         0.7339  -20.0875  -52.2159 C.ar      23 UNK        -0.0193 
     12 C12         1.8981  -20.4795  -51.5476 C.ar      23 UNK        -0.1150 
     13 C13         2.1153  -20.1016  -50.2189 C.ar      23 UNK        -0.0193 
     14 C14         1.1565  -19.3273  -49.5619 C.ar      23 UNK        -0.1150 
     15 C15         3.3925  -20.5149  -49.5028 C.3       23 UNK        -0.0205 
     16 S16         3.1865  -22.0700  -48.5770 S.3       23 UNK        -0.2404 
     17 C17         2.4634  -21.4810  -47.0068 C.3       23 UNK        -0.0398 
     18 CA          1.3537  -22.4006  -46.4472 C.3       11 UNK         0.1400 
     19 N           1.0885  -22.1148  -45.0358 N.am      11 UNK        -0.5000 
     20 C           0.3605  -22.8899  -44.2205 C.2       10 UNK         0.5000 
     21 O          -0.1159  -23.9731  -44.5557 O.2       10 UNK        -0.5000 
     22 CA          0.0676  -22.3343  -42.8147 C.3       10 UNK         0.1400 
     23 CB          1.2577  -22.5671  -41.8733 C.3       10 UNK        -0.1800 
     24 N          -0.2712  -20.9104  -42.8451 N.am      10 UNK        -0.5000 
     25 C          -1.3561  -20.4065  -43.4501 C.2       9 UNK         0.5000 
     26 O          -2.2245  -21.1043  -43.9724 O.2       9 UNK        -0.5000 
     27 CA         -1.4662  -18.8730  -43.5299 C.3       9 UNK         0.1400 
     28 CB         -2.1141  -18.2979  -42.2619 C.3       9 UNK        -0.1800 
     29 N          -0.1678  -18.2363  -43.7497 N.am      9 UNK        -0.5000 
     30 C           0.5250  -18.3011  -44.8949 C.2       8 UNK         0.5000 
     31 O           0.1333  -18.8905  -45.9019 O.2       8 UNK        -0.5000 
     32 CA          1.9183  -17.6475  -44.8916 C.3       8 UNK         0.1400 
     33 CB          1.8114  -16.1297  -45.1001 C.3       8 UNK        -0.1800 
     34 N           2.6533  -17.9271  -43.6561 N.am      8 UNK        -0.5000 
     35 C           3.1014  -19.1451  -43.3120 C.2       7 UNK         0.5000 
     36 O           2.9742  -20.1386  -44.0261 O.2       7 UNK        -0.5000 
     37 CA          3.7572  -19.3005  -41.9242 C.3       7 UNK         0.1400 
     38 CB          5.2697  -19.0517  -42.0155 C.3       7 UNK        -0.1800 
     39 N           3.1876  -18.4156  -40.9087 N.am      7 UNK        -0.5000 
     40 C           1.8975  -18.3764  -40.5478 C.2       6 UNK         0.5000 
     41 O           1.0567  -19.1783  -40.9531 O.2       6 UNK        -0.5000 
     42 CA          1.4545  -17.2192  -39.6287 C.3       6 UNK         0.1400 
     43 CB          1.2241  -17.7315  -38.1993 C.3       6 UNK        -0.1800 
     44 N           2.3739  -16.0737  -39.5830 N.am      6 UNK        -0.5000 
     45 C           2.7678  -15.3360  -40.6306 C.2       5 UNK         0.5000 
     46 O           2.4421  -15.5708  -41.7961 O.2       5 UNK        -0.5000 
     47 CA          3.7308  -14.1781  -40.3115 C.3       5 UNK         0.1400 
     48 CB          5.1370  -14.7282  -40.0217 C.3       5 UNK        -0.1800 
     49 N           3.8349  -13.2236  -41.4169 N.am      5 UNK        -0.5000 
     50 C           2.9573  -12.2791  -41.7830 C.2       4 UNK         0.5000 
     51 O           3.1686  -11.5725  -42.7705 O.2       4 UNK        -0.5000 
     52 CA          1.6941  -12.0114  -40.9277 C.3       4 UNK         0.1400 
     53 CB          2.0135  -11.0337  -39.7840 C.3       4 UNK        -0.1800 
     54 N           0.6270  -11.4286  -41.7406 N.am      4 UNK        -0.5000 
     55 C          -0.0962  -12.1023  -42.6429 C.2       3 UNK         0.5000 
     56 O          -0.0531  -13.3274  -42.7771 O.2       3 UNK        -0.5000 
     57 CA         -1.0034  -11.2433  -43.5426 C.3       3 UNK         0.1400 
     58 CB         -0.1661  -10.3368  -44.4630 C.3       3 UNK        -0.1800 
     59 N          -1.8659  -12.0780  -44.3765 N.am      3 UNK        -0.5000 
     60 C          -3.1131  -12.4481  -44.0579 C.2       2 UNK         0.5000 
     61 O          -3.6719  -12.1117  -43.0125 O.2       2 UNK        -0.5000 
     62 CA         -3.8906  -13.3078  -45.0766 C.3       2 UNK         0.1400 
     63 CB         -5.1157  -12.5418  -45.6038 C.3       2 UNK        -0.1800 
     64 N          -3.0728  -13.7084  -46.2231 N.am      2 UNK        -0.5000 
     65 C          -2.4359  -14.8809  -46.3377 C.2       1 UNK         0.5000 
     66 O          -2.5017  -15.7804  -45.4997 O.2       1 UNK        -0.5000 
     67 C           0.0566  -22.3760  -47.2884 C.2       11 UNK         0.5000 
     68 O          -0.1316  -23.2626  -48.1214 O.2       11 UNK        -0.5000 
     69 N          -0.8510  -21.4259  -47.0054 N.am      12 UNK        -0.5000 
     70 CA         -2.1921  -21.3622  -47.5964 C.3       12 UNK         0.1400 
     71 CB         -2.9366  -20.1023  -47.1175 C.3       12 UNK        -0.1800 
     72 C          -3.0295  -22.6157  -47.2821 C.2       12 UNK         0.5000 
     73 O          -3.6346  -23.1864  -48.1882 O.2       12 UNK        -0.5000 
     74 N          -3.0217  -23.0383  -46.0103 N.am      13 UNK        -0.5000 
     75 CA         -3.7009  -24.2416  -45.5296 C.3       13 UNK         0.1400 
     76 CB         -3.6572  -24.2768  -43.9946 C.3       13 UNK        -0.1800 
     77 C          -3.1234  -25.5381  -46.1280 C.2       13 UNK         0.5000 
     78 O          -3.8909  -26.4417  -46.4600 O.2       13 UNK        -0.5000 
     79 N          -1.7923  -25.5966  -46.2771 N.am      14 UNK        -0.5000 
     80 CA         -1.0719  -26.7012  -46.9113 C.3       14 UNK         0.1400 
     81 CB          0.4352  -26.5518  -46.6542 C.3       14 UNK        -0.1800 
     82 C          -1.3623  -26.8111  -48.4196 C.2       14 UNK         0.5000 
     83 O          -1.5470  -27.9219  -48.9190 O.2       14 UNK        -0.5000 
     84 N          -1.4169  -25.6640  -49.1121 N.am      15 UNK        -0.5000 
     85 CA         -1.7990  -25.5643  -50.5219 C.3       15 UNK         0.1400 
     86 CB         -1.4756  -24.1555  -51.0430 C.3       15 UNK        -0.1800 
     87 C          -3.2838  -25.8986  -50.7568 C.2       15 UNK         0.5000 
     88 O          -3.6118  -26.5245  -51.7661 O.2       15 UNK        -0.5000 
     89 N          -4.1431  -25.4762  -49.8177 N.am      16 UNK        -0.5000 
     90 CA         -5.6008  -25.6201  -49.7518 C.3       16 UNK         0.1400 
     91 CB         -6.0345  -27.0984  -49.7513 C.3       16 UNK        -0.1800 
     92 C          -6.3288  -24.8008  -50.8311 C.2       16 UNK         0.5000 
     93 O          -7.0976  -23.8976  -50.4999 O.2       16 UNK        -0.5000 
     94 N          -6.0290  -25.0803  -52.1036 N.am      17 UNK        -0.5000 
     95 CA         -6.4685  -24.3249  -53.2752 C.3       17 UNK         0.1400 
     96 CB         -6.5523  -25.2833  -54.4765 C.3       17 UNK        -0.1800 
     97 C          -5.5201  -23.1340  -53.5238 C.2       17 UNK         0.5000 
     98 O          -4.9439  -23.0102  -54.6043 O.2       17 UNK        -0.5000 
     99 N          -5.3482  -22.2956  -52.4938 N.am      18 UNK        -0.5000 
    100 CA        -4.4095  -21.1727  -52.4640 C.3       18 UNK         0.1400 
    101 CB        -4.0985  -20.8346  -50.9992 C.3       18 UNK        -0.1800 
    102 C         -4.9033  -19.9208  -53.2139 C.2       18 UNK         0.5000 
    103 O         -4.1140  -18.9960  -53.4162 O.2       18 UNK        -0.5000 
    104 N         -6.1866  -19.9037  -53.6023 N.am      19 UNK        -0.5000 
    105 CA        -6.8631  -18.8166  -54.3129 C.3       19 UNK         0.1400 
    106 CB        -8.3073  -19.2444  -54.6140 C.3       19 UNK        -0.1800 
    107 C         -6.1468  -18.3977  -55.6112 C.2       19 UNK         0.5000 
    108 O         -5.6383  -19.2562  -56.3364 O.2       19 UNK        -0.5000 
    109 N         -6.1161  -17.0811  -55.8634 N.am      20 UNK        -0.5000 
    110 CA        -5.4419  -16.4154  -56.9869 C.3       20 UNK         0.1400 
    111 CB        -6.1318  -16.7679  -58.3220 C.3       20 UNK        -0.1800 
    112 C         -3.9154  -16.6605  -57.0148 C.2       20 UNK         0.5000 
    113 O         -3.3233  -16.7150  -58.0937 O.2       20 UNK        -0.5000 
    114 N         -3.3179  -16.8066  -55.8204 N.am      21 UNK        -0.5000 
    115 CA        -1.9226  -17.1766  -55.5617 C.3       21 UNK         0.1400 
    116 CB        -0.9525  -16.0751  -56.0383 C.3       21 UNK        -0.1800 
    117 C         -1.5971  -18.5727  -56.1291 C.2       21 UNK         0.5000 
    118 O         -0.6814  -18.7232  -56.9404 O.2       21 UNK        -0.5000 
    119 N         -2.3733  -19.5638  -55.6750 N.am      22 UNK        -0.5000 
    120 CA        -2.3232  -20.9758  -56.0894 C.3       22 UNK         0.1400 
    121 C         -2.7085  -21.1835  -57.5841 C.2       22 UNK         0.5000 
    122 N         -3.7849  -20.5656  -58.0531 N.am      22 UNK        -0.7600 
    123 O         -2.0453  -21.9044  -58.3260 O.2       22 UNK        -0.5000 
    124 C124       -1.0047  -21.6954  -55.6817 C.3       23 UNK        -0.0398 
    125 S125       -0.7504  -21.7279  -53.8745 S.3       23 UNK        -0.2404 
    126 C126        0.5253  -20.4493  -53.6767 C.3       23 UNK        -0.0205 
    127 H127       -0.0849  -11.7600  -49.2915 H         1 UNK         0.0600 
    128 H128        1.4082  -11.8108  -48.3495 H         1 UNK         0.0600 
    129 H129        0.0227  -10.8869  -47.7596 H         1 UNK         0.0600 
    130 H130       -1.2784  -13.6342  -49.1047 H         1 UNK         0.3000 
    131 H131       -0.7270  -15.7043  -47.2927 H         1 UNK         0.0600 
    132 H132       -2.8947  -16.7145  -48.2377 H         1 UNK         0.0800 
    133 H133       -3.1356  -15.2342  -49.1217 H         1 UNK         0.0800 
    134 H134       -2.0435  -18.7063  -49.5367 H         1 UNK         0.0800 
    135 H135       -0.8345  -18.1752  -48.3860 H         1 UNK         0.0800 
    136 H136       -1.1406  -19.0446  -52.0446 H         1 UNK         0.1150 
    137 H137        2.6416  -21.0699  -52.0645 H         1 UNK         0.1150 
    138 H138        1.3177  -19.0191  -48.5397 H         1 UNK         0.1150 
    139 H139        4.1935  -20.6494  -50.2312 H         1 UNK         0.0800 
    140 H140        3.7281  -19.7220  -48.8325 H         1 UNK         0.0800 
    141 H141        2.1046  -20.4576  -47.0950 H         1 UNK         0.0800 
    142 H142        3.2896  -21.4383  -46.2964 H         1 UNK         0.0800 
    143 H143        1.7343  -23.4235  -46.4836 H         1 UNK         0.0600 
    144 H144        1.4995  -21.2644  -44.6633 H         1 UNK         0.3000 
    145 H145       -0.7931  -22.8733  -42.4135 H         1 UNK         0.0600 
    146 H146        1.0577  -22.1732  -40.8767 H         1 UNK         0.0600 
    147 H147        1.4660  -23.6325  -41.7683 H         1 UNK         0.0600 
    148 H148        2.1649  -22.0932  -42.2463 H         1 UNK         0.0600 
    149 H149        0.3575  -20.2738  -42.3636 H         1 UNK         0.3000 
    150 H150       -2.1099  -18.6288  -44.3778 H         1 UNK         0.0600 
    151 H151       -3.1011  -18.7327  -42.0993 H         1 UNK         0.0600 
    152 H152       -2.2442  -17.2184  -42.3431 H         1 UNK         0.0600 
    153 H153       -1.5170  -18.4991  -41.3722 H         1 UNK         0.0600 
    154 H154        0.2492  -17.7680  -42.9590 H         1 UNK         0.3000 
    155 H155        2.4860  -18.0646  -45.7262 H         1 UNK         0.0600 
    156 H156        1.2214  -15.6512  -44.3167 H         1 UNK         0.0600 
    157 H157        1.3352  -15.9000  -46.0534 H         1 UNK         0.0600 
    158 H158        2.7952  -15.6606  -45.1084 H         1 UNK         0.0600 
    159 H159        2.7521  -17.1559  -43.0026 H         1 UNK         0.3000 
    160 H160        3.5989  -20.3280  -41.5932 H         1 UNK         0.0600 
    161 H161        5.4917  -18.0253  -42.3110 H         1 UNK         0.0600 
    162 H162        5.7302  -19.7125  -42.7513 H         1 UNK         0.0600 
    163 H163        5.7595  -19.2401  -41.0600 H         1 UNK         0.0600 
    164 H164        3.8046  -17.7173  -40.5230 H         1 UNK         0.3000 
    165 H165        0.5016  -16.8551  -40.0181 H         1 UNK         0.0600 
    166 H166        0.8074  -16.9514  -37.5619 H         1 UNK         0.0600 
    167 H167        0.5201  -18.5650  -38.1904 H         1 UNK         0.0600 
    168 H168        2.1514  -18.0804  -37.7433 H         1 UNK         0.0600 
    169 H169        2.7118  -15.8245  -38.6642 H         1 UNK         0.3000 
    170 H170        3.3740  -13.6644  -39.4180 H         1 UNK         0.0600 
    171 H171        5.1304  -15.4101  -39.1703 H         1 UNK         0.0600 
    172 H172        5.5409  -15.2740  -40.8757 H         1 UNK         0.0600 
    173 H173        5.8323  -13.9237  -39.7807 H         1 UNK         0.0600 
    174 H174        4.6331  -13.3644  -42.0170 H         1 UNK         0.3000 
    175 H175        1.3181  -12.9420  -40.5026 H         1 UNK         0.0600 
    176 H176        2.3575  -10.0707  -40.1638 H         1 UNK         0.0600 
    177 H177        1.1359  -10.8542  -39.1626 H         1 UNK         0.0600 
    178 H178        2.7960  -11.4218  -39.1320 H         1 UNK         0.0600 
    179 H179        0.5549  -10.4221  -41.7172 H         1 UNK         0.3000 
    180 H180       -1.6147  -10.6057  -42.9004 H         1 UNK         0.0600 
    181 H181        0.5501  -10.9103  -45.0520 H         1 UNK         0.0600 
    182 H182        0.4017   -9.6054  -43.8871 H         1 UNK         0.0600 
    183 H183       -0.7996   -9.7801  -45.1538 H         1 UNK         0.0600 
    184 H184       -1.4192  -12.4988  -45.1824 H         1 UNK         0.3000 
    185 H185       -4.2496  -14.1920  -44.5457 H         1 UNK         0.0600 
    186 H186       -5.6955  -13.1541  -46.2948 H         1 UNK         0.0600 
    187 H187       -5.7822  -12.2569  -44.7888 H         1 UNK         0.0600 
    188 H188       -4.8260  -11.6288  -46.1255 H         1 UNK         0.0600 
    189 H189       -2.9568  -13.0241  -46.9568 H         1 UNK         0.3000 
    190 H190       -0.6065  -20.6949  -46.3457 H         1 UNK         0.3000 
    191 H191       -2.0598  -21.2953  -48.6779 H         1 UNK         0.0600 
    192 H192       -3.7692  -19.8751  -47.7841 H         1 UNK         0.0600 
    193 H193       -2.2929  -19.2270  -47.0858 H         1 UNK         0.0600 
    194 H194       -3.3543  -20.2237  -46.1187 H         1 UNK         0.0600 
    195 H195       -2.5380  -22.4768  -45.3150 H         1 UNK         0.3000 
    196 H196       -4.7469  -24.1749  -45.8362 H         1 UNK         0.0600 
    197 H197       -2.6347  -24.3288  -43.6206 H         1 UNK         0.0600 
    198 H198       -4.1237  -23.3892  -43.5669 H         1 UNK         0.0600 
    199 H199       -4.1926  -25.1451  -43.6088 H         1 UNK         0.0600 
    200 H200       -1.2282  -24.8373  -45.9068 H         1 UNK         0.3000 
    201 H201       -1.4034  -27.6291  -46.4406 H         1 UNK         0.0600 
    202 H202        0.6534  -26.5319  -45.5863 H         1 UNK         0.0600 
    203 H203        0.8303  -25.6361  -47.0938 H         1 UNK         0.0600 
    204 H204        0.9888  -27.3873  -47.0844 H         1 UNK         0.0600 
    205 H205       -1.1789  -24.7941  -48.6424 H         1 UNK         0.3000 
    206 H206       -1.2027  -26.2820  -51.0888 H         1 UNK         0.0600 
    207 H207       -0.4063  -23.9496  -50.9895 H         1 UNK         0.0600 
    208 H208       -1.7776  -24.0442  -52.0851 H         1 UNK         0.0600 
    209 H209       -1.9891  -23.3850  -50.4681 H         1 UNK         0.0600 
    210 H210       -3.7607  -24.8805  -49.0879 H         1 UNK         0.3000 
    211 H211       -5.8895  -25.1982  -48.7877 H         1 UNK         0.0600 
    212 H212       -7.1117  -27.1852  -49.6046 H         1 UNK         0.0600 
    213 H213       -5.5507  -27.6458  -48.9420 H         1 UNK         0.0600 
    214 H214       -5.7927  -27.6024  -50.6870 H         1 UNK         0.0600 
    215 H215       -5.3032  -25.7749  -52.2590 H         1 UNK         0.3000 
    216 H216       -7.4671  -23.9204  -53.0983 H         1 UNK         0.0600 
    217 H217       -5.5813  -25.7223  -54.7097 H         1 UNK         0.0600 
    218 H218       -6.9031  -24.7635  -55.3689 H         1 UNK         0.0600 
    219 H219       -7.2495  -26.0983  -54.2813 H         1 UNK         0.0600 
    220 H220       -5.8654  -22.4803  -51.6426 H         1 UNK         0.3000 
    221 H221       -3.4816  -21.4898  -52.9404 H         1 UNK         0.0600 
    222 H222       -3.7093  -21.7043  -50.4722 H         1 UNK         0.0600 
    223 H223       -4.9844  -20.4877  -50.4660 H         1 UNK         0.0600 
    224 H224       -3.3441  -20.0511  -50.9344 H         1 UNK         0.0600 
    225 H225       -6.7412  -20.7229  -53.4075 H         1 UNK         0.3000 
    226 H226       -6.8890  -17.9596  -53.6371 H         1 UNK         0.0600 
    227 H227       -8.3381  -20.1258  -55.2561 H         1 UNK         0.0600 
    228 H228       -8.8513  -19.4760  -53.6980 H         1 UNK         0.0600 
    229 H229       -8.8537  -18.4490  -55.1225 H         1 UNK         0.0600 
    230 H230       -6.5663  -16.4592  -55.2058 H         1 UNK         0.3000 
    231 H231       -5.5691  -15.3438  -56.8269 H         1 UNK         0.0600 
    232 H232       -5.9838  -17.8140  -58.5917 H         1 UNK         0.0600 
    233 H233       -5.7373  -16.1621  -59.1385 H         1 UNK         0.0600 
    234 H234       -7.2048  -16.5828  -58.2726 H         1 UNK         0.0600 
    235 H235       -3.9096  -16.7758  -55.0017 H         1 UNK         0.3000 
    236 H236       -1.8198  -17.2535  -54.4778 H         1 UNK         0.0600 
    237 H237        0.0718  -16.3099  -55.7469 H         1 UNK         0.0600 
    238 H238       -0.9631  -15.9592  -57.1223 H         1 UNK         0.0600 
    239 H239       -1.2031  -15.1113  -55.5954 H         1 UNK         0.0600 
    240 H240       -3.0965  -19.3295  -55.0020 H         1 UNK         0.3000 
    241 H241       -3.1242  -21.4639  -55.5376 H         1 UNK         0.0600 
    242 H242       -4.0461  -20.6874  -59.0179 H         1 UNK         0.3800 
    243 H243       -4.3810  -20.0167  -57.4352 H         1 UNK         0.3800 
    244 H244       -0.1432  -21.2460  -56.1769 H         1 UNK         0.0800 
    245 H245       -1.0293  -22.7352  -56.0116 H         1 UNK         0.0800 
    246 H246        1.4555  -20.7996  -54.1266 H         1 UNK         0.0800 
    247 H247        0.2410  -19.5500  -54.2208 H         1 UNK         0.0800 
@<TRIPOS>BOND
     1    1    2 1    
     2    1  127 1    
     3    1  128 1    
     4    1  129 1    
     5    2    3 2    
     6    2    4 am   BACKBONE|DICT|INTERRES
     7    4    5 1    
     8    4  130 1    
     9    5    6 1    
    10    5   65 1    
    11    5  131 1    
    12    6    7 1    
    13    6  132 1    
    14    6  133 1    
    15    7    8 1    
    16    8    9 1    
    17    8  134 1    
    18    8  135 1    
    19    9   10 ar   
    20    9   14 ar   
    21   10   11 ar   
    22   10  136 1    
    23   11   12 ar   
    24   11  126 1    
    25   12   13 ar   
    26   12  137 1    
    27   13   14 ar   
    28   13   15 1    
    29   14  138 1    
    30   15   16 1    
    31   15  139 1    
    32   15  140 1    
    33   16   17 1    
    34   17   18 1    
    35   17  141 1    
    36   17  142 1    
    37   18   19 1    
    38   18   67 1    
    39   18  143 1    
    40   19   20 am   BACKBONE|DICT|INTERRES
    41   19  144 1    
    42   20   21 2    
    43   20   22 1    
    44   22   23 1    
    45   22   24 1    
    46   22  145 1    
    47   23  146 1    
    48   23  147 1    
    49   23  148 1    
    50   24   25 am   BACKBONE|DICT|INTERRES
    51   24  149 1    
    52   25   26 2    
    53   25   27 1    
    54   27   28 1    
    55   27   29 1    
    56   27  150 1    
    57   28  151 1    
    58   28  152 1    
    59   28  153 1    
    60   29   30 am   BACKBONE|DICT|INTERRES
    61   29  154 1    
    62   30   31 2    
    63   30   32 1    
    64   32   33 1    
    65   32   34 1    
    66   32  155 1    
    67   33  156 1    
    68   33  157 1    
    69   33  158 1    
    70   34   35 am   BACKBONE|DICT|INTERRES
    71   34  159 1    
    72   35   36 2    
    73   35   37 1    
    74   37   38 1    
    75   37   39 1    
    76   37  160 1    
    77   38  161 1    
    78   38  162 1    
    79   38  163 1    
    80   39   40 am   BACKBONE|DICT|INTERRES
    81   39  164 1    
    82   40   41 2    
    83   40   42 1    
    84   42   43 1    
    85   42   44 1    
    86   42  165 1    
    87   43  166 1    
    88   43  167 1    
    89   43  168 1    
    90   44   45 am   BACKBONE|DICT|INTERRES
    91   44  169 1    
    92   45   46 2    
    93   45   47 1    
    94   47   48 1    
    95   47   49 1    
    96   47  170 1    
    97   48  171 1    
    98   48  172 1    
    99   48  173 1    
   100   49   50 am   BACKBONE|DICT|INTERRES
   101   49  174 1    
   102   50   51 2    
   103   50   52 1    
   104   52   53 1    
   105   52   54 1    
   106   52  175 1    
   107   53  176 1    
   108   53  177 1    
   109   53  178 1    
   110   54   55 am   BACKBONE|DICT|INTERRES
   111   54  179 1    
   112   55   56 2    
   113   55   57 1    
   114   57   58 1    
   115   57   59 1    
   116   57  180 1    
   117   58  181 1    
   118   58  182 1    
   119   58  183 1    
   120   59   60 am   BACKBONE|DICT|INTERRES
   121   59  184 1    
   122   60   61 2    
   123   60   62 1    
   124   62   63 1    
   125   62   64 1    
   126   62  185 1    
   127   63  186 1    
   128   63  187 1    
   129   63  188 1    
   130   64   65 am   BACKBONE|DICT|INTERRES
   131   64  189 1    
   132   65   66 2    
   133   67   68 2    
   134   67   69 am   BACKBONE|DICT|INTERRES
   135   69   70 1    
   136   69  190 1    
   137   70   71 1    
   138   70   72 1    
   139   70  191 1    
   140   71  192 1    
   141   71  193 1    
   142   71  194 1    
   143   72   73 2    
   144   72   74 am   BACKBONE|DICT|INTERRES
   145   74   75 1    
   146   74  195 1    
   147   75   76 1    
   148   75   77 1    
   149   75  196 1    
   150   76  197 1    
   151   76  198 1    
   152   76  199 1    
   153   77   78 2    
   154   77   79 am   BACKBONE|DICT|INTERRES
   155   79   80 1    
   156   79  200 1    
   157   80   81 1    
   158   80   82 1    
   159   80  201 1    
   160   81  202 1    
   161   81  203 1    
   162   81  204 1    
   163   82   83 2    
   164   82   84 am   BACKBONE|DICT|INTERRES
   165   84   85 1    
   166   84  205 1    
   167   85   86 1    
   168   85   87 1    
   169   85  206 1    
   170   86  207 1    
   171   86  208 1    
   172   86  209 1    
   173   87   88 2    
   174   87   89 am   BACKBONE|DICT|INTERRES
   175   89   90 1    
   176   89  210 1    
   177   90   91 1    
   178   90   92 1    
   179   90  211 1    
   180   91  212 1    
   181   91  213 1    
   182   91  214 1    
   183   92   93 2    
   184   92   94 am   BACKBONE|DICT|INTERRES
   185   94   95 1    
   186   94  215 1    
   187   95   96 1    
   188   95   97 1    
   189   95  216 1    
   190   96  217 1    
   191   96  218 1    
   192   96  219 1    
   193   97   98 2    
   194   97   99 am   BACKBONE|DICT|INTERRES
   195   99  100 1    
   196   99  220 1    
   197  100  101 1    
   198  100  102 1    
   199  100  221 1    
   200  101  222 1    
   201  101  223 1    
   202  101  224 1    
   203  102  103 2    
   204  102  104 am   BACKBONE|DICT|INTERRES
   205  104  105 1    
   206  104  225 1    
   207  105  106 1    
   208  105  107 1    
   209  105  226 1    
   210  106  227 1    
   211  106  228 1    
   212  106  229 1    
   213  107  108 2    
   214  107  109 am   BACKBONE|DICT|INTERRES
   215  109  110 1    
   216  109  230 1    
   217  110  111 1    
   218  110  112 1    
   219  110  231 1    
   220  111  232 1    
   221  111  233 1    
   222  111  234 1    
   223  112  113 2    
   224  112  114 am   BACKBONE|DICT|INTERRES
   225  114  115 1    
   226  114  235 1    
   227  115  116 1    
   228  115  117 1    
   229  115  236 1    
   230  116  237 1    
   231  116  238 1    
   232  116  239 1    
   233  117  118 2    
   234  117  119 am   BACKBONE|DICT|INTERRES
   235  119  120 1    
   236  119  240 1    
   237  120  121 1    
   238  120  124 1    
   239  120  241 1    
   240  121  122 am   BACKBONE|DICT|INTERRES
   241  121  123 2    
   242  122  242 1    
   243  122  243 1    
   244  124  125 1    
   245  124  244 1    
   246  124  245 1    
   247  125  126 1    
   248  126  246 1    
   249  126  247 1    
@<TRIPOS>SUBSTRUCTURE
     1 UNK         1 GROUP             0       ****    0 ROOT    
