@<TRIPOS>MOLECULE
3R540
247   249    1
SMALL
USER_CHARGES


@<TRIPOS>ATOM
      1 CA          0.2410  -11.5726  -48.8498 C.3       0 UNK        -0.1800 
      2 C           0.3012  -12.5636  -50.0103 C.2       0 UNK         0.5000 
      3 O          -0.3907  -12.3703  -51.0069 O.2       0 UNK        -0.5000 
      4 N           1.1026  -13.6356  -49.9348 N.am      1 UNK        -0.5000 
      5 CA          1.9839  -14.0179  -48.8183 C.3       1 UNK         0.1400 
      6 C6          3.1232  -14.9809  -49.2572 C.3       23 UNK        -0.0398 
      7 S7          3.9083  -14.5086  -50.8444 S.3       23 UNK        -0.2404 
      8 C8          3.7181  -15.9986  -51.8893 C.3       23 UNK        -0.0205 
      9 C9          2.3355  -16.6374  -51.8134 C.ar      23 UNK        -0.0193 
     10 C10         1.1994  -15.9451  -52.2429 C.ar      23 UNK        -0.1150 
     11 C11        -0.0698  -16.5201  -52.1205 C.ar      23 UNK        -0.0193 
     12 C12        -0.1963  -17.8057  -51.5847 C.ar      23 UNK        -0.1150 
     13 C13         0.9356  -18.5217  -51.1857 C.ar      23 UNK        -0.0193 
     14 C14         2.1962  -17.9307  -51.3009 C.ar      23 UNK        -0.1150 
     15 C15         0.8054  -19.9395  -50.6469 C.3       23 UNK        -0.0205 
     16 S16         1.2673  -20.0607  -48.8906 S.3       23 UNK        -0.2404 
     17 C17        -0.1117  -19.1776  -48.0935 C.3       23 UNK        -0.0398 
     18 CA         -1.2121  -20.1374  -47.5945 C.3       11 UNK         0.1400 
     19 N          -0.7166  -21.1000  -46.6096 N.am      11 UNK        -0.5000 
     20 C          -1.3680  -22.2144  -46.2556 C.2       10 UNK         0.5000 
     21 O          -2.4440  -22.5519  -46.7425 O.2       10 UNK        -0.5000 
     22 CA         -0.7379  -23.0566  -45.1331 C.3       10 UNK         0.1400 
     23 CB          0.3778  -23.9530  -45.6901 C.3       10 UNK        -0.1800 
     24 N          -0.2063  -22.2181  -44.0570 N.am      10 UNK        -0.5000 
     25 C          -0.9651  -21.4619  -43.2502 C.2       9 UNK         0.5000 
     26 O          -2.1951  -21.4699  -43.2710 O.2       9 UNK        -0.5000 
     27 CA         -0.2299  -20.4987  -42.2986 C.3       9 UNK         0.1400 
     28 CB          0.0014  -21.1550  -40.9301 C.3       9 UNK        -0.1800 
     29 N           1.0494  -20.0182  -42.8265 N.am      9 UNK        -0.5000 
     30 C           1.1976  -19.2565  -43.9199 C.2       8 UNK         0.5000 
     31 O           0.2548  -18.8848  -44.6223 O.2       8 UNK        -0.5000 
     32 CA          2.6391  -18.8406  -44.2571 C.3       8 UNK         0.1400 
     33 CB          2.7153  -17.8049  -45.3903 C.3       8 UNK        -0.1800 
     34 N           3.2583  -18.2711  -43.0652 N.am      8 UNK        -0.5000 
     35 C           4.2680  -18.8116  -42.3712 C.2       7 UNK         0.5000 
     36 O           4.7885  -19.8897  -42.6614 O.2       7 UNK        -0.5000 
     37 CA          4.7512  -18.0363  -41.1269 C.3       7 UNK         0.1400 
     38 CB          6.2443  -18.2675  -40.8128 C.3       7 UNK        -0.1800 
     39 N           4.4272  -16.6063  -41.1748 N.am      7 UNK        -0.5000 
     40 C           4.9088  -15.6785  -42.0191 C.2       6 UNK         0.5000 
     41 O           5.7829  -15.9052  -42.8563 O.2       6 UNK        -0.5000 
     42 CA          4.2965  -14.2634  -41.9384 C.3       6 UNK         0.1400 
     43 CB          3.8058  -13.7970  -43.3206 C.3       6 UNK        -0.1800 
     44 N           3.1767  -14.1973  -40.9964 N.am      6 UNK        -0.5000 
     45 C           3.2791  -13.8941  -39.6944 C.2       5 UNK         0.5000 
     46 O           4.3309  -13.5514  -39.1542 O.2       5 UNK        -0.5000 
     47 CA          1.9989  -14.0244  -38.8422 C.3       5 UNK         0.1400 
     48 CB          1.3278  -12.6531  -38.6716 C.3       5 UNK        -0.1800 
     49 N           1.0204  -14.9649  -39.3959 N.am      5 UNK        -0.5000 
     50 C           1.1950  -16.2901  -39.5101 C.2       4 UNK         0.5000 
     51 O           2.1968  -16.8828  -39.1117 O.2       4 UNK        -0.5000 
     52 CA          0.1022  -17.0682  -40.2695 C.3       4 UNK         0.1400 
     53 CB         -0.9566  -17.6193  -39.3046 C.3       4 UNK        -0.1800 
     54 N          -0.5502  -16.2571  -41.3025 N.am      4 UNK        -0.5000 
     55 C           0.0734  -15.8152  -42.4012 C.2       3 UNK         0.5000 
     56 O           1.2451  -16.0883  -42.6724 O.2       3 UNK        -0.5000 
     57 CA         -0.7142  -14.8734  -43.3163 C.3       3 UNK         0.1400 
     58 CB         -0.1889  -13.4316  -43.1788 C.3       3 UNK        -0.1800 
     59 N          -0.5757  -15.3543  -44.6836 N.am      3 UNK        -0.5000 
     60 C          -1.2964  -14.9505  -45.7343 C.2       2 UNK         0.5000 
     61 O          -2.1446  -14.0579  -45.6871 O.2       2 UNK        -0.5000 
     62 CA         -1.0349  -15.6896  -47.0604 C.3       2 UNK         0.1400 
     63 CB         -2.3256  -15.8593  -47.8822 C.3       2 UNK        -0.1800 
     64 N          -0.0555  -15.0424  -47.9277 N.am      2 UNK        -0.5000 
     65 C           1.1932  -14.6437  -47.6472 C.2       1 UNK         0.5000 
     66 O           1.7328  -14.7605  -46.5497 O.2       1 UNK        -0.5000 
     67 C          -2.4276  -19.3590  -47.0537 C.2       11 UNK         0.5000 
     68 O          -3.3586  -19.0956  -47.8144 O.2       11 UNK        -0.5000 
     69 N          -2.4226  -19.0459  -45.7483 N.am      12 UNK        -0.5000 
     70 CA         -3.5501  -18.4463  -45.0275 C.3       12 UNK         0.1400 
     71 CB         -3.1249  -18.0976  -43.5939 C.3       12 UNK        -0.1800 
     72 C          -4.8093  -19.3361  -45.0312 C.2       12 UNK         0.5000 
     73 O          -5.9216  -18.8099  -45.0850 O.2       12 UNK        -0.5000 
     74 N          -4.6205  -20.6632  -45.0446 N.am      13 UNK        -0.5000 
     75 CA         -5.6626  -21.6740  -45.2308 C.3       13 UNK         0.1400 
     76 CB         -5.1819  -23.0101  -44.6368 C.3       13 UNK        -0.1800 
     77 C          -6.0896  -21.7911  -46.7120 C.2       13 UNK         0.5000 
     78 O          -5.9815  -22.8623  -47.3137 O.2       13 UNK        -0.5000 
     79 N          -6.5695  -20.6695  -47.2681 N.am      14 UNK        -0.5000 
     80 CA         -7.1486  -20.5013  -48.6042 C.3       14 UNK         0.1400 
     81 CB         -8.5344  -21.1777  -48.6621 C.3       14 UNK        -0.1800 
     82 C          -6.2160  -20.9614  -49.7429 C.2       14 UNK         0.5000 
     83 O          -6.6374  -21.7330  -50.6052 O.2       14 UNK        -0.5000 
     84 N          -4.9558  -20.5026  -49.7117 N.am      15 UNK        -0.5000 
     85 CA         -3.8880  -20.8289  -50.6648 C.3       15 UNK         0.1400 
     86 CB         -4.2006  -20.2378  -52.0564 C.3       15 UNK        -0.1800 
     87 C          -3.5791  -22.3406  -50.6978 C.2       15 UNK         0.5000 
     88 O          -3.4510  -22.9218  -51.7771 O.2       15 UNK        -0.5000 
     89 N          -3.5015  -22.9461  -49.5026 N.am      16 UNK        -0.5000 
     90 CA         -3.3358  -24.3786  -49.2404 C.3       16 UNK         0.1400 
     91 CB         -1.9437  -24.8599  -49.7020 C.3       16 UNK        -0.1800 
     92 C          -4.4995  -25.2025  -49.8223 C.2       16 UNK         0.5000 
     93 O          -4.2701  -26.1819  -50.5305 O.2       16 UNK        -0.5000 
     94 N          -5.7342  -24.7521  -49.5513 N.am      17 UNK        -0.5000 
     95 CA         -6.9925  -25.2485  -50.1239 C.3       17 UNK         0.1400 
     96 CB         -7.3355  -26.6415  -49.5575 C.3       17 UNK        -0.1800 
     97 C          -6.9807  -25.2036  -51.6692 C.2       17 UNK         0.5000 
     98 O          -7.3157  -26.1872  -52.3313 O.2       17 UNK        -0.5000 
     99 N          -6.5409  -24.0541  -52.1972 N.am      18 UNK        -0.5000 
    100 CA        -6.3242  -23.7024  -53.6020 C.3       18 UNK         0.1400 
    101 CB        -7.6394  -23.7852  -54.4028 C.3       18 UNK        -0.1800 
    102 C         -5.1709  -24.4510  -54.3052 C.2       18 UNK         0.5000 
    103 O         -4.9635  -24.2174  -55.4969 O.2       18 UNK        -0.5000 
    104 N         -4.4105  -25.2983  -53.5937 N.am      19 UNK        -0.5000 
    105 CA        -3.3018  -26.0774  -54.1566 C.3       19 UNK         0.1400 
    106 CB        -2.8531  -27.1547  -53.1597 C.3       19 UNK        -0.1800 
    107 C         -2.0982  -25.2226  -54.5971 C.2       19 UNK         0.5000 
    108 O         -1.3813  -25.6291  -55.5125 O.2       19 UNK        -0.5000 
    109 N         -1.9041  -24.0523  -53.9704 N.am      20 UNK        -0.5000 
    110 CA        -0.8792  -23.0794  -54.3614 C.3       20 UNK         0.1400 
    111 CB        -0.5517  -22.1733  -53.1640 C.3       20 UNK        -0.1800 
    112 C         -1.2883  -22.2384  -55.5896 C.2       20 UNK         0.5000 
    113 O         -0.4365  -21.5509  -56.1527 O.2       20 UNK        -0.5000 
    114 N         -2.5747  -22.2966  -55.9732 N.am      21 UNK        -0.5000 
    115 CA        -3.2090  -21.6408  -57.1253 C.3       21 UNK         0.1400 
    116 CB        -2.6193  -22.1754  -58.4469 C.3       21 UNK        -0.1800 
    117 C         -3.2242  -20.0962  -57.0696 C.2       21 UNK         0.5000 
    118 O         -3.4858  -19.4539  -58.0884 O.2       21 UNK        -0.5000 
    119 N         -2.9618  -19.5234  -55.8891 N.am      22 UNK        -0.5000 
    120 CA        -3.0199  -18.0811  -55.6223 C.3       22 UNK         0.1400 
    121 C         -4.4856  -17.5708  -55.5243 C.2       22 UNK         0.5000 
    122 N         -4.7779  -16.3887  -56.0486 N.am      22 UNK        -0.7600 
    123 O         -5.3530  -18.2258  -54.9506 O.2       22 UNK        -0.5000 
    124 C124       -2.1986  -17.7298  -54.3569 C.3       23 UNK        -0.0398 
    125 S125       -1.6449  -15.9914  -54.3360 S.3       23 UNK        -0.2404 
    126 C126       -1.3040  -15.7502  -52.5651 C.3       23 UNK        -0.0205 
    127 H127        1.2252  -11.1536  -48.6420 H         1 UNK         0.0600 
    128 H128       -0.1399  -12.0483  -47.9463 H         1 UNK         0.0600 
    129 H129       -0.4247  -10.7439  -49.0918 H         1 UNK         0.0600 
    130 H130        1.1479  -14.2579  -50.7290 H         1 UNK         0.3000 
    131 H131        2.4610  -13.1134  -48.4380 H         1 UNK         0.0600 
    132 H132        3.9030  -14.9948  -48.4937 H         1 UNK         0.0800 
    133 H133        2.7645  -16.0087  -49.3133 H         1 UNK         0.0800 
    134 H134        4.4867  -16.7177  -51.6019 H         1 UNK         0.0800 
    135 H135        3.9283  -15.7303  -52.9255 H         1 UNK         0.0800 
    136 H136        1.3029  -14.9541  -52.6632 H         1 UNK         0.1150 
    137 H137       -1.1755  -18.2537  -51.4923 H         1 UNK         0.1150 
    138 H138        3.0695  -18.4807  -50.9788 H         1 UNK         0.1150 
    139 H139       -0.2085  -20.3192  -50.7803 H         1 UNK         0.0800 
    140 H140        1.4562  -20.5970  -51.2248 H         1 UNK         0.0800 
    141 H141       -0.5197  -18.4400  -48.7855 H         1 UNK         0.0800 
    142 H142        0.3046  -18.6162  -47.2600 H         1 UNK         0.0800 
    143 H143       -1.5612  -20.7085  -48.4566 H         1 UNK         0.0600 
    144 H144        0.1467  -20.8641  -46.1441 H         1 UNK         0.3000 
    145 H145       -1.5182  -23.6975  -44.7167 H         1 UNK         0.0600 
    146 H146        1.1997  -23.3676  -46.1040 H         1 UNK         0.0600 
    147 H147        0.7848  -24.6029  -44.9152 H         1 UNK         0.0600 
    148 H148       -0.0008  -24.5955  -46.4864 H         1 UNK         0.0600 
    149 H149        0.7973  -22.1651  -43.9666 H         1 UNK         0.3000 
    150 H150       -0.8716  -19.6284  -42.1513 H         1 UNK         0.0600 
    151 H151       -0.9404  -21.4931  -40.4958 H         1 UNK         0.0600 
    152 H152        0.4485  -20.4539  -40.2250 H         1 UNK         0.0600 
    153 H153        0.6590  -22.0219  -41.0050 H         1 UNK         0.0600 
    154 H154        1.8775  -20.2763  -42.3098 H         1 UNK         0.3000 
    155 H155        3.1683  -19.7378  -44.5833 H         1 UNK         0.0600 
    156 H156        2.3568  -18.2203  -46.3311 H         1 UNK         0.0600 
    157 H157        3.7414  -17.4758  -45.5553 H         1 UNK         0.0600 
    158 H158        2.1186  -16.9227  -45.1623 H         1 UNK         0.0600 
    159 H159        2.8433  -17.4035  -42.7411 H         1 UNK         0.3000 
    160 H160        4.1806  -18.4404  -40.2899 H         1 UNK         0.0600 
    161 H161        6.5558  -17.6982  -39.9370 H         1 UNK         0.0600 
    162 H162        6.8859  -17.9813  -41.6463 H         1 UNK         0.0600 
    163 H163        6.4398  -19.3191  -40.6002 H         1 UNK         0.0600 
    164 H164        3.7109  -16.3193  -40.5191 H         1 UNK         0.3000 
    165 H165        5.0884  -13.5844  -41.6160 H         1 UNK         0.0600 
    166 H166        3.0712  -14.4827  -43.7442 H         1 UNK         0.0600 
    167 H167        3.3514  -12.8078  -43.2664 H         1 UNK         0.0600 
    168 H168        4.6329  -13.7327  -44.0285 H         1 UNK         0.0600 
    169 H169        2.2845  -14.5074  -41.3562 H         1 UNK         0.3000 
    170 H170        2.2959  -14.3876  -37.8561 H         1 UNK         0.0600 
    171 H171        0.9918  -12.2476  -39.6269 H         1 UNK         0.0600 
    172 H172        0.4638  -12.7157  -38.0097 H         1 UNK         0.0600 
    173 H173        2.0188  -11.9315  -38.2337 H         1 UNK         0.0600 
    174 H174        0.1629  -14.5656  -39.7476 H         1 UNK         0.3000 
    175 H175        0.5879  -17.9142  -40.7599 H         1 UNK         0.0600 
    176 H176       -1.4940  -16.8188  -38.7947 H         1 UNK         0.0600 
    177 H177       -1.6871  -18.2338  -39.8313 H         1 UNK         0.0600 
    178 H178       -0.4976  -18.2470  -38.5396 H         1 UNK         0.0600 
    179 H179       -1.5108  -15.9946  -41.1331 H         1 UNK         0.3000 
    180 H180       -1.7697  -14.9026  -43.0384 H         1 UNK         0.0600 
    181 H181        0.8352  -13.3432  -43.5420 H         1 UNK         0.0600 
    182 H182       -0.2003  -13.1048  -42.1383 H         1 UNK         0.0600 
    183 H183       -0.8010  -12.7277  -43.7422 H         1 UNK         0.0600 
    184 H184        0.1410  -16.0590  -44.8073 H         1 UNK         0.3000 
    185 H185       -0.6595  -16.6790  -46.8075 H         1 UNK         0.0600 
    186 H186       -2.1706  -16.5211  -48.7345 H         1 UNK         0.0600 
    187 H187       -3.1283  -16.2865  -47.2841 H         1 UNK         0.0600 
    188 H188       -2.6862  -14.9036  -48.2652 H         1 UNK         0.0600 
    189 H189       -0.3712  -14.8666  -48.8701 H         1 UNK         0.3000 
    190 H190       -1.5850  -19.2407  -45.2085 H         1 UNK         0.3000 
    191 H191       -3.8088  -17.5154  -45.5322 H         1 UNK         0.0600 
    192 H192       -3.0077  -18.9881  -42.9784 H         1 UNK         0.0600 
    193 H193       -2.1823  -17.5527  -43.5802 H         1 UNK         0.0600 
    194 H194       -3.8743  -17.4692  -43.1116 H         1 UNK         0.0600 
    195 H195       -3.6724  -21.0111  -44.9804 H         1 UNK         0.3000 
    196 H196       -6.5466  -21.3688  -44.6671 H         1 UNK         0.0600 
    197 H197       -4.9135  -22.9000  -43.5860 H         1 UNK         0.0600 
    198 H198       -4.3117  -23.4011  -45.1628 H         1 UNK         0.0600 
    199 H199       -5.9653  -23.7665  -44.6952 H         1 UNK         0.0600 
    200 H200       -6.5646  -19.8392  -46.6839 H         1 UNK         0.3000 
    201 H201       -7.2966  -19.4299  -48.7457 H         1 UNK         0.0600 
    202 H202       -9.0264  -20.9833  -49.6159 H         1 UNK         0.0600 
    203 H203       -9.1903  -20.8001  -47.8777 H         1 UNK         0.0600 
    204 H204       -8.4615  -22.2596  -48.5455 H         1 UNK         0.0600 
    205 H205       -4.6711  -19.9028  -48.9409 H         1 UNK         0.3000 
    206 H206       -2.9847  -20.3380  -50.3036 H         1 UNK         0.0600 
    207 H207       -5.0688  -20.7092  -52.5160 H         1 UNK         0.0600 
    208 H208       -3.3632  -20.3678  -52.7399 H         1 UNK         0.0600 
    209 H209       -4.4018  -19.1686  -51.9918 H         1 UNK         0.0600 
    210 H210       -3.6332  -22.3894  -48.6675 H         1 UNK         0.3000 
    211 H211       -3.3901  -24.5115  -48.1596 H         1 UNK         0.0600 
    212 H212       -1.1530  -24.2744  -49.2329 H         1 UNK         0.0600 
    213 H213       -1.7815  -25.9030  -49.4286 H         1 UNK         0.0600 
    214 H214       -1.8212  -24.7827  -50.7825 H         1 UNK         0.0600 
    215 H215       -5.8202  -23.9531  -48.9277 H         1 UNK         0.3000 
    216 H216       -7.7718  -24.5567  -49.8008 H         1 UNK         0.0600 
    217 H217       -8.3186  -26.9690  -49.8975 H         1 UNK         0.0600 
    218 H218       -6.6132  -27.3964  -49.8698 H         1 UNK         0.0600 
    219 H219       -7.3567  -26.6281  -48.4679 H         1 UNK         0.0600 
    220 H220       -6.3402  -23.2972  -51.5459 H         1 UNK         0.3000 
    221 H221       -6.0214  -22.6551  -53.5883 H         1 UNK         0.0600 
    222 H222       -7.9775  -24.8145  -54.5239 H         1 UNK         0.0600 
    223 H223       -8.4353  -23.2243  -53.9128 H         1 UNK         0.0600 
    224 H224       -7.5171  -23.3647  -55.4016 H         1 UNK         0.0600 
    225 H225       -4.5992  -25.4219  -52.6062 H         1 UNK         0.3000 
    226 H226       -3.6806  -26.5864  -55.0454 H         1 UNK         0.0600 
    227 H227       -3.6932  -27.7664  -52.8302 H         1 UNK         0.0600 
    228 H228       -2.1215  -27.8237  -53.6141 H         1 UNK         0.0600 
    229 H229       -2.3865  -26.7160  -52.2776 H         1 UNK         0.0600 
    230 H230       -2.5303  -23.7802  -53.2150 H         1 UNK         0.3000 
    231 H231        0.0324  -23.6190  -54.6264 H         1 UNK         0.0600 
    232 H232        0.2809  -21.5083  -53.3965 H         1 UNK         0.0600 
    233 H233       -0.2669  -22.7591  -52.2898 H         1 UNK         0.0600 
    234 H234       -1.3980  -21.5477  -52.8871 H         1 UNK         0.0600 
    235 H235       -3.1856  -22.9179  -55.4571 H         1 UNK         0.3000 
    236 H236       -4.2566  -21.9432  -57.0935 H         1 UNK         0.0600 
    237 H237       -2.6394  -23.2650  -58.4740 H         1 UNK         0.0600 
    238 H238       -3.1922  -21.8216  -59.3048 H         1 UNK         0.0600 
    239 H239       -1.5872  -21.8544  -58.5896 H         1 UNK         0.0600 
    240 H240       -2.7917  -20.1255  -55.0994 H         1 UNK         0.3000 
    241 H241       -2.5469  -17.5879  -56.4743 H         1 UNK         0.0600 
    242 H242       -5.7223  -16.0423  -55.9820 H         1 UNK         0.3800 
    243 H243       -4.0744  -15.8256  -56.5013 H         1 UNK         0.3800 
    244 H244       -2.7628  -17.9520  -53.4503 H         1 UNK         0.0800 
    245 H245       -1.2978  -18.3444  -54.3134 H         1 UNK         0.0800 
    246 H246       -2.1743  -16.0434  -51.9758 H         1 UNK         0.0800 
    247 H247       -1.1591  -14.6851  -52.3793 H         1 UNK         0.0800 
@<TRIPOS>BOND
     1    1    2 1    
     2    1  127 1    
     3    1  128 1    
     4    1  129 1    
     5    2    3 2    
     6    2    4 am   BACKBONE|DICT|INTERRES
     7    4    5 1    
     8    4  130 1    
     9    5    6 1    
    10    5   65 1    
    11    5  131 1    
    12    6    7 1    
    13    6  132 1    
    14    6  133 1    
    15    7    8 1    
    16    8    9 1    
    17    8  134 1    
    18    8  135 1    
    19    9   10 ar   
    20    9   14 ar   
    21   10   11 ar   
    22   10  136 1    
    23   11   12 ar   
    24   11  126 1    
    25   12   13 ar   
    26   12  137 1    
    27   13   14 ar   
    28   13   15 1    
    29   14  138 1    
    30   15   16 1    
    31   15  139 1    
    32   15  140 1    
    33   16   17 1    
    34   17   18 1    
    35   17  141 1    
    36   17  142 1    
    37   18   19 1    
    38   18   67 1    
    39   18  143 1    
    40   19   20 am   BACKBONE|DICT|INTERRES
    41   19  144 1    
    42   20   21 2    
    43   20   22 1    
    44   22   23 1    
    45   22   24 1    
    46   22  145 1    
    47   23  146 1    
    48   23  147 1    
    49   23  148 1    
    50   24   25 am   BACKBONE|DICT|INTERRES
    51   24  149 1    
    52   25   26 2    
    53   25   27 1    
    54   27   28 1    
    55   27   29 1    
    56   27  150 1    
    57   28  151 1    
    58   28  152 1    
    59   28  153 1    
    60   29   30 am   BACKBONE|DICT|INTERRES
    61   29  154 1    
    62   30   31 2    
    63   30   32 1    
    64   32   33 1    
    65   32   34 1    
    66   32  155 1    
    67   33  156 1    
    68   33  157 1    
    69   33  158 1    
    70   34   35 am   BACKBONE|DICT|INTERRES
    71   34  159 1    
    72   35   36 2    
    73   35   37 1    
    74   37   38 1    
    75   37   39 1    
    76   37  160 1    
    77   38  161 1    
    78   38  162 1    
    79   38  163 1    
    80   39   40 am   BACKBONE|DICT|INTERRES
    81   39  164 1    
    82   40   41 2    
    83   40   42 1    
    84   42   43 1    
    85   42   44 1    
    86   42  165 1    
    87   43  166 1    
    88   43  167 1    
    89   43  168 1    
    90   44   45 am   BACKBONE|DICT|INTERRES
    91   44  169 1    
    92   45   46 2    
    93   45   47 1    
    94   47   48 1    
    95   47   49 1    
    96   47  170 1    
    97   48  171 1    
    98   48  172 1    
    99   48  173 1    
   100   49   50 am   BACKBONE|DICT|INTERRES
   101   49  174 1    
   102   50   51 2    
   103   50   52 1    
   104   52   53 1    
   105   52   54 1    
   106   52  175 1    
   107   53  176 1    
   108   53  177 1    
   109   53  178 1    
   110   54   55 am   BACKBONE|DICT|INTERRES
   111   54  179 1    
   112   55   56 2    
   113   55   57 1    
   114   57   58 1    
   115   57   59 1    
   116   57  180 1    
   117   58  181 1    
   118   58  182 1    
   119   58  183 1    
   120   59   60 am   BACKBONE|DICT|INTERRES
   121   59  184 1    
   122   60   61 2    
   123   60   62 1    
   124   62   63 1    
   125   62   64 1    
   126   62  185 1    
   127   63  186 1    
   128   63  187 1    
   129   63  188 1    
   130   64   65 am   BACKBONE|DICT|INTERRES
   131   64  189 1    
   132   65   66 2    
   133   67   68 2    
   134   67   69 am   BACKBONE|DICT|INTERRES
   135   69   70 1    
   136   69  190 1    
   137   70   71 1    
   138   70   72 1    
   139   70  191 1    
   140   71  192 1    
   141   71  193 1    
   142   71  194 1    
   143   72   73 2    
   144   72   74 am   BACKBONE|DICT|INTERRES
   145   74   75 1    
   146   74  195 1    
   147   75   76 1    
   148   75   77 1    
   149   75  196 1    
   150   76  197 1    
   151   76  198 1    
   152   76  199 1    
   153   77   78 2    
   154   77   79 am   BACKBONE|DICT|INTERRES
   155   79   80 1    
   156   79  200 1    
   157   80   81 1    
   158   80   82 1    
   159   80  201 1    
   160   81  202 1    
   161   81  203 1    
   162   81  204 1    
   163   82   83 2    
   164   82   84 am   BACKBONE|DICT|INTERRES
   165   84   85 1    
   166   84  205 1    
   167   85   86 1    
   168   85   87 1    
   169   85  206 1    
   170   86  207 1    
   171   86  208 1    
   172   86  209 1    
   173   87   88 2    
   174   87   89 am   BACKBONE|DICT|INTERRES
   175   89   90 1    
   176   89  210 1    
   177   90   91 1    
   178   90   92 1    
   179   90  211 1    
   180   91  212 1    
   181   91  213 1    
   182   91  214 1    
   183   92   93 2    
   184   92   94 am   BACKBONE|DICT|INTERRES
   185   94   95 1    
   186   94  215 1    
   187   95   96 1    
   188   95   97 1    
   189   95  216 1    
   190   96  217 1    
   191   96  218 1    
   192   96  219 1    
   193   97   98 2    
   194   97   99 am   BACKBONE|DICT|INTERRES
   195   99  100 1    
   196   99  220 1    
   197  100  101 1    
   198  100  102 1    
   199  100  221 1    
   200  101  222 1    
   201  101  223 1    
   202  101  224 1    
   203  102  103 2    
   204  102  104 am   BACKBONE|DICT|INTERRES
   205  104  105 1    
   206  104  225 1    
   207  105  106 1    
   208  105  107 1    
   209  105  226 1    
   210  106  227 1    
   211  106  228 1    
   212  106  229 1    
   213  107  108 2    
   214  107  109 am   BACKBONE|DICT|INTERRES
   215  109  110 1    
   216  109  230 1    
   217  110  111 1    
   218  110  112 1    
   219  110  231 1    
   220  111  232 1    
   221  111  233 1    
   222  111  234 1    
   223  112  113 2    
   224  112  114 am   BACKBONE|DICT|INTERRES
   225  114  115 1    
   226  114  235 1    
   227  115  116 1    
   228  115  117 1    
   229  115  236 1    
   230  116  237 1    
   231  116  238 1    
   232  116  239 1    
   233  117  118 2    
   234  117  119 am   BACKBONE|DICT|INTERRES
   235  119  120 1    
   236  119  240 1    
   237  120  121 1    
   238  120  124 1    
   239  120  241 1    
   240  121  122 am   BACKBONE|DICT|INTERRES
   241  121  123 2    
   242  122  242 1    
   243  122  243 1    
   244  124  125 1    
   245  124  244 1    
   246  124  245 1    
   247  125  126 1    
   248  126  246 1    
   249  126  247 1    
@<TRIPOS>SUBSTRUCTURE
     1 UNK         1 GROUP             0       ****    0 ROOT    
