@<TRIPOS>MOLECULE
3R540
247   249    1
SMALL
USER_CHARGES


@<TRIPOS>ATOM
      1 CA         -1.0899  -15.5002  -46.8437 C.3       0 UNK        -0.1800 
      2 C          -0.5821  -14.2765  -47.5841 C.2       0 UNK         0.5000 
      3 O          -0.9921  -13.1599  -47.2710 O.2       0 UNK        -0.5000 
      4 N           0.3075  -14.4832  -48.5623 N.am      1 UNK        -0.5000 
      5 CA          0.8817  -13.4242  -49.3973 C.3       1 UNK         0.1400 
      6 C6          1.5301  -13.9920  -50.6863 C.3       23 UNK        -0.0398 
      7 S7          2.9059  -15.1554  -50.3815 S.3       23 UNK        -0.2404 
      8 C8          3.0385  -16.0032  -51.9894 C.3       23 UNK        -0.0205 
      9 C9          2.1738  -17.2553  -52.0953 C.ar      23 UNK        -0.0193 
     10 C10         1.4316  -17.5006  -53.2548 C.ar      23 UNK        -0.1150 
     11 C11         0.7285  -18.6999  -53.4104 C.ar      23 UNK        -0.0193 
     12 C12         0.7344  -19.6405  -52.3754 C.ar      23 UNK        -0.1150 
     13 C13         1.4662  -19.4072  -51.2068 C.ar      23 UNK        -0.0193 
     14 C14         2.1908  -18.2184  -51.0814 C.ar      23 UNK        -0.1150 
     15 C15         1.5498  -20.4681  -50.1165 C.3       23 UNK        -0.0205 
     16 S16         1.0316  -19.8403  -48.4844 S.3       23 UNK        -0.2404 
     17 C17        -0.4759  -20.8116  -48.1608 C.3       23 UNK        -0.0398 
     18 CA         -0.1779  -22.1372  -47.4221 C.3       11 UNK         0.1400 
     19 N           0.3782  -21.9168  -46.0843 N.am      11 UNK        -0.5000 
     20 C           0.9288  -22.8709  -45.3230 C.2       10 UNK         0.5000 
     21 O           1.0429  -24.0438  -45.6776 O.2       10 UNK        -0.5000 
     22 CA          1.3836  -22.4573  -43.9120 C.3       10 UNK         0.1400 
     23 CB          2.7222  -21.7050  -43.9570 C.3       10 UNK        -0.1800 
     24 N           0.3811  -21.6464  -43.2197 N.am      10 UNK        -0.5000 
     25 C          -0.8189  -22.1013  -42.8320 C.2       9 UNK         0.5000 
     26 O          -1.1988  -23.2589  -43.0037 O.2       9 UNK        -0.5000 
     27 CA         -1.7717  -21.0856  -42.1764 C.3       9 UNK         0.1400 
     28 CB         -1.4286  -20.9028  -40.6907 C.3       9 UNK        -0.1800 
     29 N          -1.7614  -19.7835  -42.8413 N.am      9 UNK        -0.5000 
     30 C          -2.1221  -19.5755  -44.1155 C.2       8 UNK         0.5000 
     31 O          -2.5380  -20.4551  -44.8680 O.2       8 UNK        -0.5000 
     32 CA         -1.9153  -18.1554  -44.6642 C.3       8 UNK         0.1400 
     33 CB         -3.0379  -17.2173  -44.1957 C.3       8 UNK        -0.1800 
     34 N          -0.6086  -17.6014  -44.3032 N.am      8 UNK        -0.5000 
     35 C           0.5694  -18.1428  -44.6490 C.2       7 UNK         0.5000 
     36 O           0.6786  -19.1814  -45.2957 O.2       7 UNK        -0.5000 
     37 CA          1.8361  -17.4310  -44.1519 C.3       7 UNK         0.1400 
     38 CB          2.3023  -16.3669  -45.1579 C.3       7 UNK        -0.1800 
     39 N           1.6197  -16.8280  -42.8365 N.am      7 UNK        -0.5000 
     40 C           1.6143  -17.5392  -41.6995 C.2       6 UNK         0.5000 
     41 O           1.8383  -18.7497  -41.6492 O.2       6 UNK        -0.5000 
     42 CA          1.2652  -16.7805  -40.4078 C.3       6 UNK         0.1400 
     43 CB          2.4546  -15.9337  -39.9297 C.3       6 UNK        -0.1800 
     44 N           0.0805  -15.9300  -40.5375 N.am      6 UNK        -0.5000 
     45 C          -1.1639  -16.3853  -40.7429 C.2       5 UNK         0.5000 
     46 O          -1.4404  -17.5680  -40.9403 O.2       5 UNK        -0.5000 
     47 CA         -2.2736  -15.3299  -40.7880 C.3       5 UNK         0.1400 
     48 CB         -2.3540  -14.5071  -39.4880 C.3       5 UNK        -0.1800 
     49 N          -2.0261  -14.4730  -41.9375 N.am      5 UNK        -0.5000 
     50 C          -2.9123  -13.7055  -42.5735 C.2       4 UNK         0.5000 
     51 O          -4.0780  -13.5657  -42.1996 O.2       4 UNK        -0.5000 
     52 CA         -2.4080  -12.9899  -43.8511 C.3       4 UNK         0.1400 
     53 CB         -3.3571  -11.8698  -44.3130 C.3       4 UNK        -0.1800 
     54 N          -1.0489  -12.4392  -43.7556 N.am      4 UNK        -0.5000 
     55 C           0.0948  -13.1326  -43.7143 C.2       3 UNK         0.5000 
     56 O           0.1517  -14.3641  -43.6484 O.2       3 UNK        -0.5000 
     57 CA          1.3960  -12.3287  -43.7475 C.3       3 UNK         0.1400 
     58 CB          2.3091  -12.7101  -42.5663 C.3       3 UNK        -0.1800 
     59 N           2.0545  -12.6132  -45.0163 N.am      3 UNK        -0.5000 
     60 C           3.0500  -11.8995  -45.5545 C.2       2 UNK         0.5000 
     61 O           3.5164  -10.8813  -45.0419 O.2       2 UNK        -0.5000 
     62 CA          3.6304  -12.4059  -46.8866 C.3       2 UNK         0.1400 
     63 CB          4.8124  -13.3533  -46.6288 C.3       2 UNK        -0.1800 
     64 N           2.6368  -13.1017  -47.7054 N.am      2 UNK        -0.5000 
     65 C           1.8438  -12.5064  -48.6079 C.2       1 UNK         0.5000 
     66 O           1.8429  -11.2937  -48.8252 O.2       1 UNK        -0.5000 
     67 C          -1.4197  -23.0542  -47.3840 C.2       11 UNK         0.5000 
     68 O          -1.5592  -23.9208  -48.2485 O.2       11 UNK        -0.5000 
     69 N          -2.2789  -22.8866  -46.3676 N.am      12 UNK        -0.5000 
     70 CA         -3.4317  -23.7511  -46.1116 C.3       12 UNK         0.1400 
     71 CB         -4.3198  -23.1357  -45.0209 C.3       12 UNK        -0.1800 
     72 C          -3.0227  -25.1883  -45.7413 C.2       12 UNK         0.5000 
     73 O          -3.6088  -26.1322  -46.2702 O.2       12 UNK        -0.5000 
     74 N          -1.9974  -25.3374  -44.8888 N.am      13 UNK        -0.5000 
     75 CA         -1.4092  -26.6280  -44.5128 C.3       13 UNK         0.1400 
     76 CB         -0.4078  -26.4272  -43.3656 C.3       13 UNK        -0.1800 
     77 C          -0.7435  -27.3556  -45.6975 C.2       13 UNK         0.5000 
     78 O          -0.8111  -28.5827  -45.7737 O.2       13 UNK        -0.5000 
     79 N          -0.1568  -26.5843  -46.6228 N.am      14 UNK        -0.5000 
     80 CA          0.3858  -27.0570  -47.8987 C.3       14 UNK         0.1400 
     81 CB          1.3550  -25.9967  -48.4472 C.3       14 UNK        -0.1800 
     82 C          -0.6980  -27.3973  -48.9465 C.2       14 UNK         0.5000 
     83 O          -0.3557  -27.9297  -50.0030 O.2       14 UNK        -0.5000 
     84 N          -1.9692  -27.0850  -48.6470 N.am      15 UNK        -0.5000 
     85 CA         -3.1622  -27.2697  -49.4791 C.3       15 UNK         0.1400 
     86 CB         -3.4389  -28.7676  -49.7257 C.3       15 UNK        -0.1800 
     87 C          -3.1281  -26.4325  -50.7744 C.2       15 UNK         0.5000 
     88 O          -3.6099  -26.8816  -51.8163 O.2       15 UNK        -0.5000 
     89 N          -2.5655  -25.2225  -50.6838 N.am      16 UNK        -0.5000 
     90 CA         -2.4156  -24.2798  -51.7858 C.3       16 UNK         0.1400 
     91 CB         -1.1090  -24.5732  -52.5487 C.3       16 UNK        -0.1800 
     92 C          -2.4781  -22.8586  -51.2129 C.2       16 UNK         0.5000 
     93 O          -1.4969  -22.1214  -51.2930 O.2       16 UNK        -0.5000 
     94 N          -3.6222  -22.5304  -50.5935 N.am      17 UNK        -0.5000 
     95 CA         -3.9135  -21.2610  -49.9218 C.3       17 UNK         0.1400 
     96 CB         -5.3665  -21.2853  -49.4265 C.3       17 UNK        -0.1800 
     97 C          -3.6586  -20.0304  -50.8145 C.2       17 UNK         0.5000 
     98 O          -4.1604  -19.9842  -51.9395 O.2       17 UNK        -0.5000 
     99 N          -2.8850  -19.0674  -50.2952 N.am      18 UNK        -0.5000 
    100 CA        -2.4385  -17.8725  -51.0110 C.3       18 UNK         0.1400 
    101 CB        -1.5120  -17.0518  -50.1054 C.3       18 UNK        -0.1800 
    102 C         -3.6161  -17.0157  -51.5058 C.2       18 UNK         0.5000 
    103 O         -4.5053  -16.6917  -50.7160 O.2       18 UNK        -0.5000 
    104 N         -3.6140  -16.7092  -52.8089 N.am      19 UNK        -0.5000 
    105 CA        -4.6206  -15.9814  -53.5945 C.3       19 UNK         0.1400 
    106 CB        -4.8267  -14.5521  -53.0574 C.3       19 UNK        -0.1800 
    107 C         -5.9697  -16.7127  -53.7675 C.2       19 UNK         0.5000 
    108 O         -6.6103  -16.5413  -54.8052 O.2       19 UNK        -0.5000 
    109 N         -6.3813  -17.5091  -52.7735 N.am      20 UNK        -0.5000 
    110 CA        -7.5932  -18.3267  -52.7889 C.3       20 UNK         0.1400 
    111 CB        -7.8925  -18.8091  -51.3619 C.3       20 UNK        -0.1800 
    112 C         -7.4910  -19.5155  -53.7620 C.2       20 UNK         0.5000 
    113 O         -8.4595  -19.8046  -54.4664 O.2       20 UNK        -0.5000 
    114 N         -6.3215  -20.1658  -53.7900 N.am      21 UNK        -0.5000 
    115 CA        -5.9621  -21.2188  -54.7316 C.3       21 UNK         0.1400 
    116 CB        -5.4271  -22.4357  -53.9484 C.3       21 UNK        -0.1800 
    117 C         -4.9644  -20.6261  -55.7433 C.2       21 UNK         0.5000 
    118 O         -5.3595  -19.7748  -56.5413 O.2       21 UNK        -0.5000 
    119 N         -3.7033  -21.0773  -55.7005 N.am      22 UNK        -0.5000 
    120 CA        -2.5886  -20.6476  -56.5681 C.3       22 UNK         0.1400 
    121 C         -2.7325  -21.0514  -58.0695 C.2       22 UNK         0.5000 
    122 N         -3.5999  -21.9926  -58.4222 N.am      22 UNK        -0.7600 
    123 O         -2.0251  -20.5330  -58.9294 O.2       22 UNK        -0.5000 
    124 C124       -2.2088  -19.1485  -56.3876 C.3       23 UNK        -0.0398 
    125 S125       -1.7530  -18.7278  -54.6710 S.3       23 UNK        -0.2404 
    126 C126        0.0395  -19.0173  -54.7300 C.3       23 UNK        -0.0205 
    127 H127       -0.5622  -16.4070  -47.1409 H         1 UNK         0.0600 
    128 H128       -2.1541  -15.6399  -47.0313 H         1 UNK         0.0600 
    129 H129       -0.9509  -15.3597  -45.7753 H         1 UNK         0.0600 
    130 H130        0.6183  -15.4206  -48.7743 H         1 UNK         0.3000 
    131 H131        0.0520  -12.7909  -49.7197 H         1 UNK         0.0600 
    132 H132        0.7690  -14.5052  -51.2759 H         1 UNK         0.0800 
    133 H133        1.8951  -13.1794  -51.3170 H         1 UNK         0.0800 
    134 H134        2.8100  -15.2986  -52.7906 H         1 UNK         0.0800 
    135 H135        4.0779  -16.3003  -52.1337 H         1 UNK         0.0800 
    136 H136        1.4413  -16.7793  -54.0600 H         1 UNK         0.1150 
    137 H137        0.1980  -20.5707  -52.4990 H         1 UNK         0.1150 
    138 H138        2.7875  -18.0532  -50.1953 H         1 UNK         0.1150 
    139 H139        0.9690  -21.3507  -50.3876 H         1 UNK         0.0800 
    140 H140        2.5849  -20.8035  -50.0418 H         1 UNK         0.0800 
    141 H141       -0.9665  -20.9947  -49.1136 H         1 UNK         0.0800 
    142 H142       -1.1589  -20.1959  -47.5732 H         1 UNK         0.0800 
    143 H143        0.5796  -22.6703  -48.0004 H         1 UNK         0.0600 
    144 H144        0.3705  -20.9575  -45.7428 H         1 UNK         0.3000 
    145 H145        1.5320  -23.3702  -43.3314 H         1 UNK         0.0600 
    146 H146        3.0628  -21.4455  -42.9543 H         1 UNK         0.0600 
    147 H147        3.4973  -22.3199  -44.4158 H         1 UNK         0.0600 
    148 H148        2.6530  -20.7835  -44.5346 H         1 UNK         0.0600 
    149 H149        0.6068  -20.6738  -43.0641 H         1 UNK         0.3000 
    150 H150       -2.7845  -21.4875  -42.2462 H         1 UNK         0.0600 
    151 H151       -1.4271  -21.8600  -40.1677 H         1 UNK         0.0600 
    152 H152       -2.1581  -20.2622  -40.1950 H         1 UNK         0.0600 
    153 H153       -0.4442  -20.4514  -40.5582 H         1 UNK         0.0600 
    154 H154       -1.4622  -18.9915  -42.2794 H         1 UNK         0.3000 
    155 H155       -1.9561  -18.2148  -45.7537 H         1 UNK         0.0600 
    156 H156       -3.0653  -17.1278  -43.1105 H         1 UNK         0.0600 
    157 H157       -2.9254  -16.2176  -44.6121 H         1 UNK         0.0600 
    158 H158       -4.0116  -17.5910  -44.5143 H         1 UNK         0.0600 
    159 H159       -0.5994  -16.7492  -43.7630 H         1 UNK         0.3000 
    160 H160        2.6297  -18.1770  -44.0696 H         1 UNK         0.0600 
    161 H161        3.1671  -15.8218  -44.7803 H         1 UNK         0.0600 
    162 H162        1.5204  -15.6448  -45.3838 H         1 UNK         0.0600 
    163 H163        2.5936  -16.8311  -46.1010 H         1 UNK         0.0600 
    164 H164        1.3671  -15.8473  -42.8211 H         1 UNK         0.3000 
    165 H165        1.0542  -17.5263  -39.6382 H         1 UNK         0.0600 
    166 H166        2.2480  -15.4749  -38.9626 H         1 UNK         0.0600 
    167 H167        3.3484  -16.5479  -39.8119 H         1 UNK         0.0600 
    168 H168        2.6951  -15.1371  -40.6338 H         1 UNK         0.0600 
    169 H169        0.2186  -14.9411  -40.3920 H         1 UNK         0.3000 
    170 H170       -3.2224  -15.8512  -40.9310 H         1 UNK         0.0600 
    171 H171       -3.2214  -13.8469  -39.4944 H         1 UNK         0.0600 
    172 H172       -1.4692  -13.8875  -39.3401 H         1 UNK         0.0600 
    173 H173       -2.4514  -15.1590  -38.6190 H         1 UNK         0.0600 
    174 H174       -1.1063  -14.5506  -42.3650 H         1 UNK         0.3000 
    175 H175       -2.3990  -13.7463  -44.6374 H         1 UNK         0.0600 
    176 H176       -3.0180  -11.4298  -45.2513 H         1 UNK         0.0600 
    177 H177       -3.4274  -11.0725  -43.5721 H         1 UNK         0.0600 
    178 H178       -4.3644  -12.2508  -44.4857 H         1 UNK         0.0600 
    179 H179       -0.9924  -11.4315  -43.7793 H         1 UNK         0.3000 
    180 H180        1.1624  -11.2634  -43.6908 H         1 UNK         0.0600 
    181 H181        2.6529  -13.7421  -42.6431 H         1 UNK         0.0600 
    182 H182        1.7866  -12.6039  -41.6149 H         1 UNK         0.0600 
    183 H183        3.1904  -12.0704  -42.5231 H         1 UNK         0.0600 
    184 H184        1.6950  -13.4123  -45.5172 H         1 UNK         0.3000 
    185 H185        4.0103  -11.5402  -47.4336 H         1 UNK         0.0600 
    186 H186        4.5052  -14.2465  -46.0847 H         1 UNK         0.0600 
    187 H187        5.2714  -13.6727  -47.5647 H         1 UNK         0.0600 
    188 H188        5.5867  -12.8602  -46.0394 H         1 UNK         0.0600 
    189 H189        2.5918  -14.1061  -47.6191 H         1 UNK         0.3000 
    190 H190       -2.1397  -22.1167  -45.7180 H         1 UNK         0.3000 
    191 H191       -4.0183  -23.8020  -47.0316 H         1 UNK         0.0600 
    192 H192       -4.6924  -22.1571  -45.3236 H         1 UNK         0.0600 
    193 H193       -5.1873  -23.7657  -44.8209 H         1 UNK         0.0600 
    194 H194       -3.7789  -23.0126  -44.0824 H         1 UNK         0.0600 
    195 H195       -1.5975  -24.5137  -44.4483 H         1 UNK         0.3000 
    196 H196       -2.2164  -27.2665  -44.1482 H         1 UNK         0.0600 
    197 H197        0.0333  -27.3769  -43.0604 H         1 UNK         0.0600 
    198 H198       -0.8942  -25.9989  -42.4892 H         1 UNK         0.0600 
    199 H199        0.4076  -25.7635  -43.6535 H         1 UNK         0.0600 
    200 H200       -0.0764  -25.5896  -46.4393 H         1 UNK         0.3000 
    201 H201        0.9540  -27.9705  -47.7124 H         1 UNK         0.0600 
    202 H202        2.1428  -25.7713  -47.7282 H         1 UNK         0.0600 
    203 H203        0.8408  -25.0655  -48.6837 H         1 UNK         0.0600 
    204 H204        1.8393  -26.3432  -49.3609 H         1 UNK         0.0600 
    205 H205       -2.1440  -26.6435  -47.7527 H         1 UNK         0.3000 
    206 H206       -3.9972  -26.8786  -48.8967 H         1 UNK         0.0600 
    207 H207       -3.4629  -29.3227  -48.7879 H         1 UNK         0.0600 
    208 H208       -4.4048  -28.9115  -50.2112 H         1 UNK         0.0600 
    209 H209       -2.6820  -29.2215  -50.3658 H         1 UNK         0.0600 
    210 H210       -2.2062  -24.9040  -49.7855 H         1 UNK         0.3000 
    211 H211       -3.2529  -24.3805  -52.4795 H         1 UNK         0.0600 
    212 H212       -0.2396  -24.5062  -51.8932 H         1 UNK         0.0600 
    213 H213       -0.9643  -23.8645  -53.3650 H         1 UNK         0.0600 
    214 H214       -1.1220  -25.5726  -52.9837 H         1 UNK         0.0600 
    215 H215       -4.3628  -23.2153  -50.5793 H         1 UNK         0.3000 
    216 H216       -3.2694  -21.2005  -49.0448 H         1 UNK         0.0600 
    217 H217       -5.6348  -20.3426  -48.9475 H         1 UNK         0.0600 
    218 H218       -5.5188  -22.0762  -48.6918 H         1 UNK         0.0600 
    219 H219       -6.0658  -21.4511  -50.2470 H         1 UNK         0.0600 
    220 H220       -2.5536  -19.1589  -49.3486 H         1 UNK         0.3000 
    221 H221       -1.8531  -18.2102  -51.8657 H         1 UNK         0.0600 
    222 H222       -2.0377  -16.7075  -49.2159 H         1 UNK         0.0600 
    223 H223       -0.6474  -17.6341  -49.7878 H         1 UNK         0.0600 
    224 H224       -1.1354  -16.1727  -50.6294 H         1 UNK         0.0600 
    225 H225       -2.8638  -17.0991  -53.3664 H         1 UNK         0.3000 
    226 H226       -4.1933  -15.8939  -54.5947 H         1 UNK         0.0600 
    227 H227       -3.8801  -14.0163  -52.9874 H         1 UNK         0.0600 
    228 H228       -5.4762  -13.9793  -53.7204 H         1 UNK         0.0600 
    229 H229       -5.2893  -14.5488  -52.0702 H         1 UNK         0.0600 
    230 H230       -5.8065  -17.5476  -51.9389 H         1 UNK         0.3000 
    231 H231       -8.4243  -17.6985  -53.1161 H         1 UNK         0.0600 
    232 H232       -7.0654  -19.3903  -50.9557 H         1 UNK         0.0600 
    233 H233       -8.7829  -19.4386  -51.3386 H         1 UNK         0.0600 
    234 H234       -8.0699  -17.9680  -50.6915 H         1 UNK         0.0600 
    235 H235       -5.5737  -19.8674  -53.1670 H         1 UNK         0.3000 
    236 H236       -6.8355  -21.5463  -55.2989 H         1 UNK         0.0600 
    237 H237       -6.1818  -22.8142  -53.2589 H         1 UNK         0.0600 
    238 H238       -5.1675  -23.2547  -54.6203 H         1 UNK         0.0600 
    239 H239       -4.5437  -22.1897  -53.3607 H         1 UNK         0.0600 
    240 H240       -3.4690  -21.7678  -55.0032 H         1 UNK         0.3000 
    241 H241       -1.7311  -21.2288  -56.2281 H         1 UNK         0.0600 
    242 H242       -4.1803  -22.4419  -57.7327 H         1 UNK         0.3800 
    243 H243       -3.6785  -22.2558  -59.3922 H         1 UNK         0.3800 
    244 H244       -1.3751  -18.8775  -57.0371 H         1 UNK         0.0800 
    245 H245       -3.0360  -18.5056  -56.6901 H         1 UNK         0.0800 
    246 H246        0.4750  -18.4179  -55.5311 H         1 UNK         0.0800 
    247 H247        0.2258  -20.0595  -54.9931 H         1 UNK         0.0800 
@<TRIPOS>BOND
     1    1    2 1    
     2    1  127 1    
     3    1  128 1    
     4    1  129 1    
     5    2    3 2    
     6    2    4 am   BACKBONE|DICT|INTERRES
     7    4    5 1    
     8    4  130 1    
     9    5    6 1    
    10    5   65 1    
    11    5  131 1    
    12    6    7 1    
    13    6  132 1    
    14    6  133 1    
    15    7    8 1    
    16    8    9 1    
    17    8  134 1    
    18    8  135 1    
    19    9   10 ar   
    20    9   14 ar   
    21   10   11 ar   
    22   10  136 1    
    23   11   12 ar   
    24   11  126 1    
    25   12   13 ar   
    26   12  137 1    
    27   13   14 ar   
    28   13   15 1    
    29   14  138 1    
    30   15   16 1    
    31   15  139 1    
    32   15  140 1    
    33   16   17 1    
    34   17   18 1    
    35   17  141 1    
    36   17  142 1    
    37   18   19 1    
    38   18   67 1    
    39   18  143 1    
    40   19   20 am   BACKBONE|DICT|INTERRES
    41   19  144 1    
    42   20   21 2    
    43   20   22 1    
    44   22   23 1    
    45   22   24 1    
    46   22  145 1    
    47   23  146 1    
    48   23  147 1    
    49   23  148 1    
    50   24   25 am   BACKBONE|DICT|INTERRES
    51   24  149 1    
    52   25   26 2    
    53   25   27 1    
    54   27   28 1    
    55   27   29 1    
    56   27  150 1    
    57   28  151 1    
    58   28  152 1    
    59   28  153 1    
    60   29   30 am   BACKBONE|DICT|INTERRES
    61   29  154 1    
    62   30   31 2    
    63   30   32 1    
    64   32   33 1    
    65   32   34 1    
    66   32  155 1    
    67   33  156 1    
    68   33  157 1    
    69   33  158 1    
    70   34   35 am   BACKBONE|DICT|INTERRES
    71   34  159 1    
    72   35   36 2    
    73   35   37 1    
    74   37   38 1    
    75   37   39 1    
    76   37  160 1    
    77   38  161 1    
    78   38  162 1    
    79   38  163 1    
    80   39   40 am   BACKBONE|DICT|INTERRES
    81   39  164 1    
    82   40   41 2    
    83   40   42 1    
    84   42   43 1    
    85   42   44 1    
    86   42  165 1    
    87   43  166 1    
    88   43  167 1    
    89   43  168 1    
    90   44   45 am   BACKBONE|DICT|INTERRES
    91   44  169 1    
    92   45   46 2    
    93   45   47 1    
    94   47   48 1    
    95   47   49 1    
    96   47  170 1    
    97   48  171 1    
    98   48  172 1    
    99   48  173 1    
   100   49   50 am   BACKBONE|DICT|INTERRES
   101   49  174 1    
   102   50   51 2    
   103   50   52 1    
   104   52   53 1    
   105   52   54 1    
   106   52  175 1    
   107   53  176 1    
   108   53  177 1    
   109   53  178 1    
   110   54   55 am   BACKBONE|DICT|INTERRES
   111   54  179 1    
   112   55   56 2    
   113   55   57 1    
   114   57   58 1    
   115   57   59 1    
   116   57  180 1    
   117   58  181 1    
   118   58  182 1    
   119   58  183 1    
   120   59   60 am   BACKBONE|DICT|INTERRES
   121   59  184 1    
   122   60   61 2    
   123   60   62 1    
   124   62   63 1    
   125   62   64 1    
   126   62  185 1    
   127   63  186 1    
   128   63  187 1    
   129   63  188 1    
   130   64   65 am   BACKBONE|DICT|INTERRES
   131   64  189 1    
   132   65   66 2    
   133   67   68 2    
   134   67   69 am   BACKBONE|DICT|INTERRES
   135   69   70 1    
   136   69  190 1    
   137   70   71 1    
   138   70   72 1    
   139   70  191 1    
   140   71  192 1    
   141   71  193 1    
   142   71  194 1    
   143   72   73 2    
   144   72   74 am   BACKBONE|DICT|INTERRES
   145   74   75 1    
   146   74  195 1    
   147   75   76 1    
   148   75   77 1    
   149   75  196 1    
   150   76  197 1    
   151   76  198 1    
   152   76  199 1    
   153   77   78 2    
   154   77   79 am   BACKBONE|DICT|INTERRES
   155   79   80 1    
   156   79  200 1    
   157   80   81 1    
   158   80   82 1    
   159   80  201 1    
   160   81  202 1    
   161   81  203 1    
   162   81  204 1    
   163   82   83 2    
   164   82   84 am   BACKBONE|DICT|INTERRES
   165   84   85 1    
   166   84  205 1    
   167   85   86 1    
   168   85   87 1    
   169   85  206 1    
   170   86  207 1    
   171   86  208 1    
   172   86  209 1    
   173   87   88 2    
   174   87   89 am   BACKBONE|DICT|INTERRES
   175   89   90 1    
   176   89  210 1    
   177   90   91 1    
   178   90   92 1    
   179   90  211 1    
   180   91  212 1    
   181   91  213 1    
   182   91  214 1    
   183   92   93 2    
   184   92   94 am   BACKBONE|DICT|INTERRES
   185   94   95 1    
   186   94  215 1    
   187   95   96 1    
   188   95   97 1    
   189   95  216 1    
   190   96  217 1    
   191   96  218 1    
   192   96  219 1    
   193   97   98 2    
   194   97   99 am   BACKBONE|DICT|INTERRES
   195   99  100 1    
   196   99  220 1    
   197  100  101 1    
   198  100  102 1    
   199  100  221 1    
   200  101  222 1    
   201  101  223 1    
   202  101  224 1    
   203  102  103 2    
   204  102  104 am   BACKBONE|DICT|INTERRES
   205  104  105 1    
   206  104  225 1    
   207  105  106 1    
   208  105  107 1    
   209  105  226 1    
   210  106  227 1    
   211  106  228 1    
   212  106  229 1    
   213  107  108 2    
   214  107  109 am   BACKBONE|DICT|INTERRES
   215  109  110 1    
   216  109  230 1    
   217  110  111 1    
   218  110  112 1    
   219  110  231 1    
   220  111  232 1    
   221  111  233 1    
   222  111  234 1    
   223  112  113 2    
   224  112  114 am   BACKBONE|DICT|INTERRES
   225  114  115 1    
   226  114  235 1    
   227  115  116 1    
   228  115  117 1    
   229  115  236 1    
   230  116  237 1    
   231  116  238 1    
   232  116  239 1    
   233  117  118 2    
   234  117  119 am   BACKBONE|DICT|INTERRES
   235  119  120 1    
   236  119  240 1    
   237  120  121 1    
   238  120  124 1    
   239  120  241 1    
   240  121  122 am   BACKBONE|DICT|INTERRES
   241  121  123 2    
   242  122  242 1    
   243  122  243 1    
   244  124  125 1    
   245  124  244 1    
   246  124  245 1    
   247  125  126 1    
   248  126  246 1    
   249  126  247 1    
@<TRIPOS>SUBSTRUCTURE
     1 UNK         1 GROUP             0       ****    0 ROOT    
