@<TRIPOS>MOLECULE
3R540
247   249    1
SMALL
USER_CHARGES


@<TRIPOS>ATOM
      1 CA         -3.2599   -7.7615  -50.4769 C.3       0 UNK        -0.1800 
      2 C          -2.1109   -8.7028  -50.1452 C.2       0 UNK         0.5000 
      3 O          -1.0445   -8.2485  -49.7312 O.2       0 UNK        -0.5000 
      4 N          -2.3258  -10.0138  -50.3117 N.am      1 UNK        -0.5000 
      5 CA         -1.3401  -11.0721  -50.0511 C.3       1 UNK         0.1400 
      6 C6         -1.6018  -12.3277  -50.9204 C.3       23 UNK        -0.0398 
      7 S7         -3.1969  -13.1582  -50.5861 S.3       23 UNK        -0.2404 
      8 C8         -2.9657  -14.7484  -51.4443 C.3       23 UNK        -0.0205 
      9 C9         -1.9256  -15.6327  -50.7699 C.ar      23 UNK        -0.0193 
     10 C10        -0.6376  -15.7357  -51.3022 C.ar      23 UNK        -0.1150 
     11 C11         0.3120  -16.5730  -50.7111 C.ar      23 UNK        -0.0193 
     12 C12        -0.0335  -17.3042  -49.5716 C.ar      23 UNK        -0.1150 
     13 C13        -1.3199  -17.2168  -49.0293 C.ar      23 UNK        -0.0193 
     14 C14        -2.2585  -16.3718  -49.6311 C.ar      23 UNK        -0.1150 
     15 C15        -1.7020  -18.0357  -47.8021 C.3       23 UNK        -0.0205 
     16 S16        -1.4443  -19.8208  -48.0700 S.3       23 UNK        -0.2404 
     17 C17        -2.7368  -20.5482  -47.0134 C.3       23 UNK        -0.0398 
     18 CA         -2.4067  -21.9951  -46.5752 C.3       11 UNK         0.1400 
     19 N          -1.1199  -22.1000  -45.8765 N.am      11 UNK        -0.5000 
     20 C          -0.5438  -23.2372  -45.4616 C.2       10 UNK         0.5000 
     21 O          -1.0380  -24.3476  -45.6516 O.2       10 UNK        -0.5000 
     22 CA          0.7496  -23.1197  -44.6327 C.3       10 UNK         0.1400 
     23 CB          1.7273  -24.2846  -44.8906 C.3       10 UNK        -0.1800 
     24 N           1.4152  -21.8192  -44.7479 N.am      10 UNK        -0.5000 
     25 C           2.0530  -21.3044  -45.8098 C.2       9 UNK         0.5000 
     26 O           2.1643  -21.8777  -46.8930 O.2       9 UNK        -0.5000 
     27 CA          2.6625  -19.8990  -45.6334 C.3       9 UNK         0.1400 
     28 CB          1.8942  -18.8690  -46.4735 C.3       9 UNK        -0.1800 
     29 N           2.6662  -19.4479  -44.2407 N.am      9 UNK        -0.5000 
     30 C           3.5419  -19.8330  -43.3036 C.2       8 UNK         0.5000 
     31 O           4.4829  -20.5981  -43.5148 O.2       8 UNK        -0.5000 
     32 CA          3.2990  -19.2903  -41.8869 C.3       8 UNK         0.1400 
     33 CB          3.7650  -17.8293  -41.7785 C.3       8 UNK        -0.1800 
     34 N           1.8841  -19.3742  -41.5202 N.am      8 UNK        -0.5000 
     35 C           1.3066  -20.4349  -40.9385 C.2       7 UNK         0.5000 
     36 O           1.9073  -21.4751  -40.6699 O.2       7 UNK        -0.5000 
     37 CA         -0.1905  -20.3188  -40.5878 C.3       7 UNK         0.1400 
     38 CB         -0.3636  -19.8386  -39.1389 C.3       7 UNK        -0.1800 
     39 N          -0.9090  -19.4067  -41.4779 N.am      7 UNK        -0.5000 
     40 C          -1.3577  -19.7428  -42.6928 C.2       6 UNK         0.5000 
     41 O          -1.2912  -20.8815  -43.1559 O.2       6 UNK        -0.5000 
     42 CA         -1.9698  -18.6237  -43.5553 C.3       6 UNK         0.1400 
     43 CB         -3.5034  -18.6758  -43.5001 C.3       6 UNK        -0.1800 
     44 N          -1.5195  -17.2662  -43.2335 N.am      6 UNK        -0.5000 
     45 C          -0.2557  -16.8403  -43.3473 C.2       5 UNK         0.5000 
     46 O           0.6989  -17.5878  -43.5676 O.2       5 UNK        -0.5000 
     47 CA         -0.0077  -15.3336  -43.1646 C.3       5 UNK         0.1400 
     48 CB          0.5119  -15.0451  -41.7485 C.3       5 UNK        -0.1800 
     49 N           0.9548  -14.8225  -44.1413 N.am      5 UNK        -0.5000 
     50 C           0.7875  -14.8509  -45.4705 C.2       4 UNK         0.5000 
     51 O          -0.2314  -15.2678  -46.0232 O.2       4 UNK        -0.5000 
     52 CA          1.9266  -14.2411  -46.3052 C.3       4 UNK         0.1400 
     53 CB          1.9527  -14.7741  -47.7499 C.3       4 UNK        -0.1800 
     54 N           1.7390  -12.7949  -46.3298 N.am      4 UNK        -0.5000 
     55 C           2.1881  -11.9455  -45.3950 C.2       3 UNK         0.5000 
     56 O           2.9684  -12.2710  -44.4990 O.2       3 UNK        -0.5000 
     57 CA          1.6405  -10.5022  -45.4364 C.3       3 UNK         0.1400 
     58 CB          2.5585   -9.5998  -46.2743 C.3       3 UNK        -0.1800 
     59 N           0.2769  -10.4217  -45.9662 N.am      3 UNK        -0.5000 
     60 C          -0.7995  -10.9972  -45.4108 C.2       2 UNK         0.5000 
     61 O          -0.7878  -11.5228  -44.2969 O.2       2 UNK        -0.5000 
     62 CA         -2.1049  -11.0208  -46.2354 C.3       2 UNK         0.1400 
     63 CB         -3.1189  -10.0197  -45.6596 C.3       2 UNK        -0.1800 
     64 N          -1.9709  -10.7692  -47.6763 N.am      2 UNK        -0.5000 
     65 C          -1.1955  -11.4281  -48.5521 C.2       1 UNK         0.5000 
     66 O          -0.3788  -12.2857  -48.2203 O.2       1 UNK        -0.5000 
     67 C          -3.5763  -22.5773  -45.7567 C.2       11 UNK         0.5000 
     68 O          -4.5075  -23.1237  -46.3490 O.2       11 UNK        -0.5000 
     69 N          -3.4914  -22.4806  -44.4216 N.am      12 UNK        -0.5000 
     70 CA         -4.4556  -23.0587  -43.4859 C.3       12 UNK         0.1400 
     71 CB         -4.1826  -22.5062  -42.0781 C.3       12 UNK        -0.1800 
     72 C          -4.4298  -24.5997  -43.4779 C.2       12 UNK         0.5000 
     73 O          -5.4852  -25.2233  -43.3661 O.2       12 UNK        -0.5000 
     74 N          -3.2308  -25.1828  -43.6118 N.am      13 UNK        -0.5000 
     75 CA         -3.0128  -26.6291  -43.6662 C.3       13 UNK         0.1400 
     76 CB         -1.5768  -26.9419  -43.2173 C.3       13 UNK        -0.1800 
     77 C          -3.2773  -27.1923  -45.0730 C.2       13 UNK         0.5000 
     78 O          -3.8571  -28.2705  -45.2020 O.2       13 UNK        -0.5000 
     79 N          -2.8626  -26.4395  -46.1002 N.am      14 UNK        -0.5000 
     80 CA         -3.0142  -26.7717  -47.5169 C.3       14 UNK         0.1400 
     81 CB         -2.0161  -25.9236  -48.3229 C.3       14 UNK        -0.1800 
     82 C          -4.4452  -26.5727  -48.0552 C.2       14 UNK         0.5000 
     83 O          -4.7036  -26.9424  -49.1999 O.2       14 UNK        -0.5000 
     84 N          -5.3341  -25.9679  -47.2524 N.am      15 UNK        -0.5000 
     85 CA         -6.7264  -25.6272  -47.5677 C.3       15 UNK         0.1400 
     86 CB         -7.5813  -26.9019  -47.7252 C.3       15 UNK        -0.1800 
     87 C          -6.8253  -24.6714  -48.7747 C.2       15 UNK         0.5000 
     88 O          -7.5879  -24.9157  -49.7108 O.2       15 UNK        -0.5000 
     89 N          -6.0057  -23.6121  -48.7266 N.am      16 UNK        -0.5000 
     90 CA         -5.8428  -22.5434  -49.7174 C.3       16 UNK         0.1400 
     91 CB         -7.1639  -21.7834  -49.9520 C.3       16 UNK        -0.1800 
     92 C          -5.1745  -22.9705  -51.0418 C.2       16 UNK         0.5000 
     93 O          -5.0468  -22.1342  -51.9366 O.2       16 UNK        -0.5000 
     94 N          -4.6892  -24.2173  -51.1514 N.am      17 UNK        -0.5000 
     95 CA         -3.9354  -24.6869  -52.3206 C.3       17 UNK         0.1400 
     96 CB         -3.7445  -26.2079  -52.2518 C.3       17 UNK        -0.1800 
     97 C          -2.5804  -23.9689  -52.4754 C.2       17 UNK         0.5000 
     98 O          -2.1625  -23.6915  -53.5989 O.2       17 UNK        -0.5000 
     99 N          -1.9483  -23.6244  -51.3438 N.am      18 UNK        -0.5000 
    100 CA        -0.7323  -22.8107  -51.2990 C.3       18 UNK         0.1400 
    101 CB        -0.1081  -22.8902  -49.8982 C.3       18 UNK        -0.1800 
    102 C         -0.9866  -21.3484  -51.7158 C.2       18 UNK         0.5000 
    103 O         -0.1328  -20.7553  -52.3708 O.2       18 UNK        -0.5000 
    104 N         -2.1713  -20.8126  -51.3832 N.am      19 UNK        -0.5000 
    105 CA        -2.6116  -19.4753  -51.7886 C.3       19 UNK         0.1400 
    106 CB        -3.8619  -19.0653  -50.9930 C.3       19 UNK        -0.1800 
    107 C         -2.8828  -19.3988  -53.3001 C.2       19 UNK         0.5000 
    108 O         -2.5410  -18.3990  -53.9305 O.2       19 UNK        -0.5000 
    109 N         -3.4561  -20.4739  -53.8605 N.am      20 UNK        -0.5000 
    110 CA        -3.6460  -20.6536  -55.2990 C.3       20 UNK         0.1400 
    111 CB        -4.5472  -21.8711  -55.5538 C.3       20 UNK        -0.1800 
    112 C         -2.3073  -20.7825  -56.0507 C.2       20 UNK         0.5000 
    113 O         -2.1468  -20.1713  -57.1080 O.2       20 UNK        -0.5000 
    114 N         -1.3532  -21.5288  -55.4728 N.am      21 UNK        -0.5000 
    115 CA         0.0046  -21.7098  -55.9980 C.3       21 UNK         0.1400 
    116 CB         0.7427  -22.7735  -55.1717 C.3       21 UNK        -0.1800 
    117 C          0.8263  -20.4056  -56.0724 C.2       21 UNK         0.5000 
    118 O          1.6842  -20.2877  -56.9485 O.2       21 UNK        -0.5000 
    119 N          0.5284  -19.4402  -55.1924 N.am      22 UNK        -0.5000 
    120 CA         1.0417  -18.0609  -55.2567 C.3       22 UNK         0.1400 
    121 C          0.4699  -17.2126  -56.4355 C.2       22 UNK         0.5000 
    122 N         -0.5425  -17.6578  -57.1716 N.am      22 UNK        -0.7600 
    123 O          0.9686  -16.1215  -56.6982 O.2       22 UNK        -0.5000 
    124 C124        0.8583  -17.3074  -53.9138 C.3       23 UNK        -0.0398 
    125 S125        1.8265  -18.0174  -52.5408 S.3       23 UNK        -0.2404 
    126 C126        1.7107  -16.6867  -51.3003 C.3       23 UNK        -0.0205 
    127 H127       -4.1403   -8.3031  -50.8239 H         1 UNK         0.0600 
    128 H128       -2.9595   -7.0644  -51.2591 H         1 UNK         0.0600 
    129 H129       -3.5403   -7.1858  -49.5948 H         1 UNK         0.0600 
    130 H130       -3.2259  -10.3357  -50.6407 H         1 UNK         0.3000 
    131 H131       -0.3625  -10.6897  -50.3525 H         1 UNK         0.0600 
    132 H132       -0.7880  -13.0398  -50.7815 H         1 UNK         0.0800 
    133 H133       -1.5750  -12.0548  -51.9761 H         1 UNK         0.0800 
    134 H134       -2.6964  -14.5627  -52.4853 H         1 UNK         0.0800 
    135 H135       -3.9207  -15.2751  -51.4698 H         1 UNK         0.0800 
    136 H136       -0.3759  -15.1690  -52.1843 H         1 UNK         0.1150 
    137 H137        0.6950  -17.9572  -49.1153 H         1 UNK         0.1150 
    138 H138       -3.2559  -16.2952  -49.2220 H         1 UNK         0.1150 
    139 H139       -1.1111  -17.7034  -46.9483 H         1 UNK         0.0800 
    140 H140       -2.7464  -17.8560  -47.5435 H         1 UNK         0.0800 
    141 H141       -3.6715  -20.5234  -47.5765 H         1 UNK         0.0800 
    142 H142       -2.8916  -19.9105  -46.1444 H         1 UNK         0.0800 
    143 H143       -2.3316  -22.6071  -47.4740 H         1 UNK         0.0600 
    144 H144       -0.6551  -21.2325  -45.6567 H         1 UNK         0.3000 
    145 H145        0.4329  -23.1909  -43.5912 H         1 UNK         0.0600 
    146 H146        2.6341  -24.1779  -44.2954 H         1 UNK         0.0600 
    147 H147        1.2761  -25.2406  -44.6230 H         1 UNK         0.0600 
    148 H148        2.0175  -24.3474  -45.9396 H         1 UNK         0.0600 
    149 H149        1.3720  -21.2415  -43.9207 H         1 UNK         0.3000 
    150 H150        3.6919  -19.9386  -45.9951 H         1 UNK         0.0600 
    151 H151        1.8885  -19.1518  -47.5263 H         1 UNK         0.0600 
    152 H152        2.3500  -17.8819  -46.4009 H         1 UNK         0.0600 
    153 H153        0.8578  -18.7825  -46.1475 H         1 UNK         0.0600 
    154 H154        1.9356  -18.7853  -43.9822 H         1 UNK         0.3000 
    155 H155        3.8927  -19.8847  -41.1888 H         1 UNK         0.0600 
    156 H156        3.2213  -17.1764  -42.4624 H         1 UNK         0.0600 
    157 H157        4.8259  -17.7408  -42.0160 H         1 UNK         0.0600 
    158 H158        3.6252  -17.4456  -40.7679 H         1 UNK         0.0600 
    159 H159        1.3054  -18.5903  -41.7912 H         1 UNK         0.3000 
    160 H160       -0.6295  -21.3159  -40.6680 H         1 UNK         0.0600 
    161 H161        0.0516  -18.8407  -38.9919 H         1 UNK         0.0600 
    162 H162        0.1402  -20.5099  -38.4421 H         1 UNK         0.0600 
    163 H163       -1.4162  -19.8098  -38.8568 H         1 UNK         0.0600 
    164 H164       -1.0242  -18.4536  -41.1668 H         1 UNK         0.3000 
    165 H165       -1.6557  -18.8197  -44.5814 H         1 UNK         0.0600 
    166 H166       -3.9476  -17.9592  -44.1913 H         1 UNK         0.0600 
    167 H167       -3.8761  -19.6620  -43.7780 H         1 UNK         0.0600 
    168 H168       -3.8767  -18.4546  -42.4995 H         1 UNK         0.0600 
    169 H169       -2.2438  -16.5940  -43.0249 H         1 UNK         0.3000 
    170 H170       -0.9473  -14.7970  -43.3109 H         1 UNK         0.0600 
    171 H171       -0.1944  -15.3923  -40.9933 H         1 UNK         0.0600 
    172 H172        1.4651  -15.5403  -41.5592 H         1 UNK         0.0600 
    173 H173        0.6531  -13.9754  -41.5918 H         1 UNK         0.0600 
    174 H174        1.8072  -14.4261  -43.7715 H         1 UNK         0.3000 
    175 H175        2.8804  -14.4929  -45.8367 H         1 UNK         0.0600 
    176 H176        2.0966  -15.8545  -47.7637 H         1 UNK         0.0600 
    177 H177        1.0233  -14.5651  -48.2812 H         1 UNK         0.0600 
    178 H178        2.7684  -14.3292  -48.3197 H         1 UNK         0.0600 
    179 H179        1.0436  -12.4655  -46.9957 H         1 UNK         0.3000 
    180 H180        1.6261  -10.1237  -44.4123 H         1 UNK         0.0600 
    181 H181        2.2225   -8.5630  -46.2499 H         1 UNK         0.0600 
    182 H182        2.5924   -9.9183  -47.3171 H         1 UNK         0.0600 
    183 H183        3.5797   -9.6190  -45.8914 H         1 UNK         0.0600 
    184 H184        0.1704  -10.0118  -46.8824 H         1 UNK         0.3000 
    185 H185       -2.5199  -12.0249  -46.1286 H         1 UNK         0.0600 
    186 H186       -4.0881  -10.1113  -46.1503 H         1 UNK         0.0600 
    187 H187       -3.2802  -10.1913  -44.5944 H         1 UNK         0.0600 
    188 H188       -2.7768   -8.9908  -45.7784 H         1 UNK         0.0600 
    189 H189       -2.5897  -10.0694  -48.0581 H         1 UNK         0.3000 
    190 H190       -2.6835  -22.0171  -44.0162 H         1 UNK         0.3000 
    191 H191       -5.4564  -22.7439  -43.7894 H         1 UNK         0.0600 
    192 H192       -4.8834  -22.9204  -41.3522 H         1 UNK         0.0600 
    193 H193       -4.2918  -21.4222  -42.0506 H         1 UNK         0.0600 
    194 H194       -3.1746  -22.7483  -41.7384 H         1 UNK         0.0600 
    195 H195       -2.4208  -24.5980  -43.7584 H         1 UNK         0.3000 
    196 H196       -3.6981  -27.1198  -42.9716 H         1 UNK         0.0600 
    197 H197       -0.8375  -26.4799  -43.8723 H         1 UNK         0.0600 
    198 H198       -1.3949  -26.5862  -42.2031 H         1 UNK         0.0600 
    199 H199       -1.3928  -28.0170  -43.2226 H         1 UNK         0.0600 
    200 H200       -2.3278  -25.5973  -45.8965 H         1 UNK         0.3000 
    201 H201       -2.7576  -27.8241  -47.6533 H         1 UNK         0.0600 
    202 H202       -2.2539  -24.8619  -48.2633 H         1 UNK         0.0600 
    203 H203       -2.0164  -26.2061  -49.3750 H         1 UNK         0.0600 
    204 H204       -0.9980  -26.0577  -47.9566 H         1 UNK         0.0600 
    205 H205       -5.0013  -25.6529  -46.3518 H         1 UNK         0.3000 
    206 H206       -7.1107  -25.0767  -46.7077 H         1 UNK         0.0600 
    207 H207       -7.4992  -27.5411  -46.8461 H         1 UNK         0.0600 
    208 H208       -8.6355  -26.6511  -47.8470 H         1 UNK         0.0600 
    209 H209       -7.2829  -27.4883  -48.5947 H         1 UNK         0.0600 
    210 H210       -5.4314  -23.5143  -47.8905 H         1 UNK         0.3000 
    211 H211       -5.1480  -21.8372  -49.2614 H         1 UNK         0.0600 
    212 H212       -6.9992  -20.8884  -50.5530 H         1 UNK         0.0600 
    213 H213       -7.6066  -21.4614  -49.0095 H         1 UNK         0.0600 
    214 H214       -7.8976  -22.3944  -50.4780 H         1 UNK         0.0600 
    215 H215       -4.8523  -24.8830  -50.4076 H         1 UNK         0.3000 
    216 H216       -4.5282  -24.4653  -53.2107 H         1 UNK         0.0600 
    217 H217       -3.1294  -26.5023  -51.4025 H         1 UNK         0.0600 
    218 H218       -3.2548  -26.5788  -53.1530 H         1 UNK         0.0600 
    219 H219       -4.7018  -26.7225  -52.1663 H         1 UNK         0.0600 
    220 H220       -2.3553  -23.8949  -50.4626 H         1 UNK         0.3000 
    221 H221       -0.0164  -23.2351  -52.0058 H         1 UNK         0.0600 
    222 H222        0.1527  -23.9159  -49.6371 H         1 UNK         0.0600 
    223 H223       -0.7833  -22.5121  -49.1341 H         1 UNK         0.0600 
    224 H224        0.8064  -22.2980  -49.8431 H         1 UNK         0.0600 
    225 H225       -2.8374  -21.3766  -50.8813 H         1 UNK         0.3000 
    226 H226       -1.8102  -18.7713  -51.5551 H         1 UNK         0.0600 
    227 H227       -4.7218  -19.6921  -51.2234 H         1 UNK         0.0600 
    228 H228       -3.6880  -19.1170  -49.9194 H         1 UNK         0.0600 
    229 H229       -4.1434  -18.0379  -51.2258 H         1 UNK         0.0600 
    230 H230       -3.7721  -21.2248  -53.2562 H         1 UNK         0.3000 
    231 H231       -4.1588  -19.7686  -55.6813 H         1 UNK         0.0600 
    232 H232       -4.0900  -22.7959  -55.2030 H         1 UNK         0.0600 
    233 H233       -4.7484  -21.9893  -56.6191 H         1 UNK         0.0600 
    234 H234       -5.5081  -21.7624  -55.0503 H         1 UNK         0.0600 
    235 H235       -1.5847  -22.0455  -54.6308 H         1 UNK         0.3000 
    236 H236       -0.0928  -22.0877  -57.0178 H         1 UNK         0.0600 
    237 H237        0.1916  -23.7138  -55.1521 H         1 UNK         0.0600 
    238 H238        1.7256  -22.9818  -55.5958 H         1 UNK         0.0600 
    239 H239        0.8948  -22.4501  -54.1428 H         1 UNK         0.0600 
    240 H240       -0.1457  -19.6362  -54.4640 H         1 UNK         0.3000 
    241 H241        2.1149  -18.1273  -55.4450 H         1 UNK         0.0600 
    242 H242       -0.8842  -17.0882  -57.9290 H         1 UNK         0.3800 
    243 H243       -0.9775  -18.5561  -56.9921 H         1 UNK         0.3800 
    244 H244       -0.1940  -17.2938  -53.6312 H         1 UNK         0.0800 
    245 H245        1.1613  -16.2639  -54.0173 H         1 UNK         0.0800 
    246 H246        2.0141  -15.7378  -51.7451 H         1 UNK         0.0800 
    247 H247        2.4279  -16.8883  -50.5033 H         1 UNK         0.0800 
@<TRIPOS>BOND
     1    1    2 1    
     2    1  127 1    
     3    1  128 1    
     4    1  129 1    
     5    2    3 2    
     6    2    4 am   BACKBONE|DICT|INTERRES
     7    4    5 1    
     8    4  130 1    
     9    5    6 1    
    10    5   65 1    
    11    5  131 1    
    12    6    7 1    
    13    6  132 1    
    14    6  133 1    
    15    7    8 1    
    16    8    9 1    
    17    8  134 1    
    18    8  135 1    
    19    9   10 ar   
    20    9   14 ar   
    21   10   11 ar   
    22   10  136 1    
    23   11   12 ar   
    24   11  126 1    
    25   12   13 ar   
    26   12  137 1    
    27   13   14 ar   
    28   13   15 1    
    29   14  138 1    
    30   15   16 1    
    31   15  139 1    
    32   15  140 1    
    33   16   17 1    
    34   17   18 1    
    35   17  141 1    
    36   17  142 1    
    37   18   19 1    
    38   18   67 1    
    39   18  143 1    
    40   19   20 am   BACKBONE|DICT|INTERRES
    41   19  144 1    
    42   20   21 2    
    43   20   22 1    
    44   22   23 1    
    45   22   24 1    
    46   22  145 1    
    47   23  146 1    
    48   23  147 1    
    49   23  148 1    
    50   24   25 am   BACKBONE|DICT|INTERRES
    51   24  149 1    
    52   25   26 2    
    53   25   27 1    
    54   27   28 1    
    55   27   29 1    
    56   27  150 1    
    57   28  151 1    
    58   28  152 1    
    59   28  153 1    
    60   29   30 am   BACKBONE|DICT|INTERRES
    61   29  154 1    
    62   30   31 2    
    63   30   32 1    
    64   32   33 1    
    65   32   34 1    
    66   32  155 1    
    67   33  156 1    
    68   33  157 1    
    69   33  158 1    
    70   34   35 am   BACKBONE|DICT|INTERRES
    71   34  159 1    
    72   35   36 2    
    73   35   37 1    
    74   37   38 1    
    75   37   39 1    
    76   37  160 1    
    77   38  161 1    
    78   38  162 1    
    79   38  163 1    
    80   39   40 am   BACKBONE|DICT|INTERRES
    81   39  164 1    
    82   40   41 2    
    83   40   42 1    
    84   42   43 1    
    85   42   44 1    
    86   42  165 1    
    87   43  166 1    
    88   43  167 1    
    89   43  168 1    
    90   44   45 am   BACKBONE|DICT|INTERRES
    91   44  169 1    
    92   45   46 2    
    93   45   47 1    
    94   47   48 1    
    95   47   49 1    
    96   47  170 1    
    97   48  171 1    
    98   48  172 1    
    99   48  173 1    
   100   49   50 am   BACKBONE|DICT|INTERRES
   101   49  174 1    
   102   50   51 2    
   103   50   52 1    
   104   52   53 1    
   105   52   54 1    
   106   52  175 1    
   107   53  176 1    
   108   53  177 1    
   109   53  178 1    
   110   54   55 am   BACKBONE|DICT|INTERRES
   111   54  179 1    
   112   55   56 2    
   113   55   57 1    
   114   57   58 1    
   115   57   59 1    
   116   57  180 1    
   117   58  181 1    
   118   58  182 1    
   119   58  183 1    
   120   59   60 am   BACKBONE|DICT|INTERRES
   121   59  184 1    
   122   60   61 2    
   123   60   62 1    
   124   62   63 1    
   125   62   64 1    
   126   62  185 1    
   127   63  186 1    
   128   63  187 1    
   129   63  188 1    
   130   64   65 am   BACKBONE|DICT|INTERRES
   131   64  189 1    
   132   65   66 2    
   133   67   68 2    
   134   67   69 am   BACKBONE|DICT|INTERRES
   135   69   70 1    
   136   69  190 1    
   137   70   71 1    
   138   70   72 1    
   139   70  191 1    
   140   71  192 1    
   141   71  193 1    
   142   71  194 1    
   143   72   73 2    
   144   72   74 am   BACKBONE|DICT|INTERRES
   145   74   75 1    
   146   74  195 1    
   147   75   76 1    
   148   75   77 1    
   149   75  196 1    
   150   76  197 1    
   151   76  198 1    
   152   76  199 1    
   153   77   78 2    
   154   77   79 am   BACKBONE|DICT|INTERRES
   155   79   80 1    
   156   79  200 1    
   157   80   81 1    
   158   80   82 1    
   159   80  201 1    
   160   81  202 1    
   161   81  203 1    
   162   81  204 1    
   163   82   83 2    
   164   82   84 am   BACKBONE|DICT|INTERRES
   165   84   85 1    
   166   84  205 1    
   167   85   86 1    
   168   85   87 1    
   169   85  206 1    
   170   86  207 1    
   171   86  208 1    
   172   86  209 1    
   173   87   88 2    
   174   87   89 am   BACKBONE|DICT|INTERRES
   175   89   90 1    
   176   89  210 1    
   177   90   91 1    
   178   90   92 1    
   179   90  211 1    
   180   91  212 1    
   181   91  213 1    
   182   91  214 1    
   183   92   93 2    
   184   92   94 am   BACKBONE|DICT|INTERRES
   185   94   95 1    
   186   94  215 1    
   187   95   96 1    
   188   95   97 1    
   189   95  216 1    
   190   96  217 1    
   191   96  218 1    
   192   96  219 1    
   193   97   98 2    
   194   97   99 am   BACKBONE|DICT|INTERRES
   195   99  100 1    
   196   99  220 1    
   197  100  101 1    
   198  100  102 1    
   199  100  221 1    
   200  101  222 1    
   201  101  223 1    
   202  101  224 1    
   203  102  103 2    
   204  102  104 am   BACKBONE|DICT|INTERRES
   205  104  105 1    
   206  104  225 1    
   207  105  106 1    
   208  105  107 1    
   209  105  226 1    
   210  106  227 1    
   211  106  228 1    
   212  106  229 1    
   213  107  108 2    
   214  107  109 am   BACKBONE|DICT|INTERRES
   215  109  110 1    
   216  109  230 1    
   217  110  111 1    
   218  110  112 1    
   219  110  231 1    
   220  111  232 1    
   221  111  233 1    
   222  111  234 1    
   223  112  113 2    
   224  112  114 am   BACKBONE|DICT|INTERRES
   225  114  115 1    
   226  114  235 1    
   227  115  116 1    
   228  115  117 1    
   229  115  236 1    
   230  116  237 1    
   231  116  238 1    
   232  116  239 1    
   233  117  118 2    
   234  117  119 am   BACKBONE|DICT|INTERRES
   235  119  120 1    
   236  119  240 1    
   237  120  121 1    
   238  120  124 1    
   239  120  241 1    
   240  121  122 am   BACKBONE|DICT|INTERRES
   241  121  123 2    
   242  122  242 1    
   243  122  243 1    
   244  124  125 1    
   245  124  244 1    
   246  124  245 1    
   247  125  126 1    
   248  126  246 1    
   249  126  247 1    
@<TRIPOS>SUBSTRUCTURE
     1 UNK         1 GROUP             0       ****    0 ROOT    
