@<TRIPOS>MOLECULE
3R540
247   249    1
SMALL
USER_CHARGES


@<TRIPOS>ATOM
      1 CA          4.4864  -16.7303  -50.5569 C.3       0 UNK        -0.1800 
      2 C           3.4880  -16.9353  -49.4280 C.2       0 UNK         0.5000 
      3 O           3.4169  -18.0251  -48.8624 O.2       0 UNK        -0.5000 
      4 N           2.7239  -15.8894  -49.0854 N.am      1 UNK        -0.5000 
      5 CA          1.6565  -15.8983  -48.0722 C.3       1 UNK         0.1400 
      6 C6          0.8852  -14.5536  -48.0075 C.3       23 UNK        -0.0398 
      7 S7          0.4914  -13.8216  -49.6362 S.3       23 UNK        -0.2404 
      8 C8         -1.3135  -14.0672  -49.7620 C.3       23 UNK        -0.0205 
      9 C9         -1.7821  -15.4644  -50.1730 C.ar      23 UNK        -0.0193 
     10 C10        -3.1562  -15.7236  -50.1513 C.ar      23 UNK        -0.1150 
     11 C11        -3.6627  -16.9702  -50.5265 C.ar      23 UNK        -0.0193 
     12 C12        -2.7723  -17.9725  -50.9246 C.ar      23 UNK        -0.1150 
     13 C13        -1.3966  -17.7326  -50.9641 C.ar      23 UNK        -0.0193 
     14 C14        -0.9086  -16.4788  -50.5897 C.ar      23 UNK        -0.1150 
     15 C15        -0.4448  -18.8089  -51.4666 C.3       23 UNK        -0.0205 
     16 S16        -0.5551  -20.3496  -50.5047 S.3       23 UNK        -0.2404 
     17 C17         0.5418  -20.0141  -49.0792 C.3       23 UNK        -0.0398 
     18 CA         -0.1629  -19.9229  -47.6988 C.3       11 UNK         0.1400 
     19 N          -1.1362  -18.8267  -47.6667 N.am      11 UNK        -0.5000 
     20 C          -1.5732  -18.1984  -46.5694 C.2       10 UNK         0.5000 
     21 O          -1.2470  -18.5088  -45.4209 O.2       10 UNK        -0.5000 
     22 CA         -2.5699  -17.0588  -46.7859 C.3       10 UNK         0.1400 
     23 CB         -4.0031  -17.6076  -46.9028 C.3       10 UNK        -0.1800 
     24 N          -2.4657  -16.1335  -45.6662 N.am      10 UNK        -0.5000 
     25 C          -2.9253  -14.8779  -45.6414 C.2       9 UNK         0.5000 
     26 O          -3.5046  -14.3404  -46.5854 O.2       9 UNK        -0.5000 
     27 CA         -2.6944  -14.0846  -44.3419 C.3       9 UNK         0.1400 
     28 CB         -3.8543  -14.3117  -43.3601 C.3       9 UNK        -0.1800 
     29 N          -1.4341  -14.4305  -43.6810 N.am      9 UNK        -0.5000 
     30 C          -0.2246  -14.0375  -44.1061 C.2       8 UNK         0.5000 
     31 O          -0.0548  -13.3246  -45.0951 O.2       8 UNK        -0.5000 
     32 CA          0.9919  -14.5090  -43.2883 C.3       8 UNK         0.1400 
     33 CB          2.1245  -13.4669  -43.2460 C.3       8 UNK        -0.1800 
     34 N           0.6181  -14.8892  -41.9247 N.am      8 UNK        -0.5000 
     35 C           1.0292  -16.0042  -41.3126 C.2       7 UNK         0.5000 
     36 O           1.8161  -16.8149  -41.8110 O.2       7 UNK        -0.5000 
     37 CA          0.4459  -16.2648  -39.9158 C.3       7 UNK         0.1400 
     38 CB         -1.0581  -16.5888  -39.9862 C.3       7 UNK        -0.1800 
     39 N           1.1584  -17.3914  -39.3322 N.am      7 UNK        -0.5000 
     40 C           1.3499  -17.6339  -38.0325 C.2       6 UNK         0.5000 
     41 O           0.8859  -16.9344  -37.1310 O.2       6 UNK        -0.5000 
     42 CA          2.2029  -18.8689  -37.6767 C.3       6 UNK         0.1400 
     43 CB          1.3109  -20.0055  -37.1537 C.3       6 UNK        -0.1800 
     44 N           2.9816  -19.3720  -38.8108 N.am      6 UNK        -0.5000 
     45 C           4.0879  -18.8085  -39.3078 C.2       5 UNK         0.5000 
     46 O           4.6212  -17.8130  -38.8168 O.2       5 UNK        -0.5000 
     47 CA          4.6925  -19.4452  -40.5744 C.3       5 UNK         0.1400 
     48 CB          5.5285  -20.6917  -40.2286 C.3       5 UNK        -0.1800 
     49 N           3.7295  -19.7292  -41.6479 N.am      5 UNK        -0.5000 
     50 C           2.7204  -20.6148  -41.6823 C.2       4 UNK         0.5000 
     51 O           2.3966  -21.3209  -40.7266 O.2       4 UNK        -0.5000 
     52 CA          1.9285  -20.7427  -43.0017 C.3       4 UNK         0.1400 
     53 CB          0.5813  -20.0153  -42.8963 C.3       4 UNK        -0.1800 
     54 N           2.6465  -20.2461  -44.1778 N.am      4 UNK        -0.5000 
     55 C           3.7529  -20.8074  -44.6881 C.2       3 UNK         0.5000 
     56 O           4.2285  -21.8660  -44.2792 O.2       3 UNK        -0.5000 
     57 CA          4.4700  -20.0556  -45.8280 C.3       3 UNK         0.1400 
     58 CB          4.1103  -20.6880  -47.1803 C.3       3 UNK        -0.1800 
     59 N           4.2086  -18.6110  -45.8814 N.am      3 UNK        -0.5000 
     60 C           4.4532  -17.7385  -44.8893 C.2       2 UNK         0.5000 
     61 O           4.9104  -18.0749  -43.7965 O.2       2 UNK        -0.5000 
     62 CA          4.1392  -16.2469  -45.1280 C.3       2 UNK         0.1400 
     63 CB          5.4263  -15.4083  -45.0921 C.3       2 UNK        -0.1800 
     64 N           3.4339  -15.9584  -46.3776 N.am      2 UNK        -0.5000 
     65 C           2.1640  -16.2788  -46.6633 C.2       1 UNK         0.5000 
     66 O           1.4190  -16.8689  -45.8849 O.2       1 UNK        -0.5000 
     67 C          -0.7637  -21.2673  -47.2153 C.2       11 UNK         0.5000 
     68 O          -0.7030  -22.2667  -47.9289 O.2       11 UNK        -0.5000 
     69 N          -1.3418  -21.2773  -46.0064 N.am      12 UNK        -0.5000 
     70 CA         -2.1024  -22.3836  -45.4106 C.3       12 UNK         0.1400 
     71 CB         -2.6220  -21.9501  -44.0321 C.3       12 UNK        -0.1800 
     72 C          -1.3518  -23.7280  -45.3064 C.2       12 UNK         0.5000 
     73 O          -1.9973  -24.7760  -45.2865 O.2       12 UNK        -0.5000 
     74 N          -0.0114  -23.6907  -45.2993 N.am      13 UNK        -0.5000 
     75 CA          0.8597  -24.8669  -45.3992 C.3       13 UNK         0.1400 
     76 CB          2.3108  -24.4362  -45.1462 C.3       13 UNK        -0.1800 
     77 C           0.7464  -25.6074  -46.7508 C.2       13 UNK         0.5000 
     78 O           1.0191  -26.8066  -46.8073 O.2       13 UNK        -0.5000 
     79 N           0.3192  -24.8921  -47.7993 N.am      14 UNK        -0.5000 
     80 CA          0.0006  -25.4056  -49.1307 C.3       14 UNK         0.1400 
     81 CB          0.7431  -24.5516  -50.1745 C.3       14 UNK        -0.1800 
     82 C          -1.5264  -25.3991  -49.3618 C.2       14 UNK         0.5000 
     83 O          -1.9737  -25.3046  -50.5061 O.2       14 UNK        -0.5000 
     84 N          -2.3016  -25.4747  -48.2688 N.am      15 UNK        -0.5000 
     85 CA         -3.7643  -25.4476  -48.1514 C.3       15 UNK         0.1400 
     86 CB         -4.4287  -26.5774  -48.9614 C.3       15 UNK        -0.1800 
     87 C          -4.4025  -24.0804  -48.4620 C.2       15 UNK         0.5000 
     88 O          -5.2521  -23.6345  -47.6895 O.2       15 UNK        -0.5000 
     89 N          -3.9806  -23.4423  -49.5626 N.am      16 UNK        -0.5000 
     90 CA         -4.4899  -22.1794  -50.1075 C.3       16 UNK         0.1400 
     91 CB         -4.1402  -21.0066  -49.1631 C.3       16 UNK        -0.1800 
     92 C          -5.9927  -22.2626  -50.4682 C.2       16 UNK         0.5000 
     93 O          -6.4644  -23.3334  -50.8585 O.2       16 UNK        -0.5000 
     94 N          -6.7084  -21.1345  -50.3413 N.am      17 UNK        -0.5000 
     95 CA         -8.1572  -20.9712  -50.5186 C.3       17 UNK         0.1400 
     96 CB         -8.9194  -21.7050  -49.3951 C.3       17 UNK        -0.1800 
     97 C          -8.6668  -21.3385  -51.9298 C.2       17 UNK         0.5000 
     98 O          -9.7711  -21.8679  -52.0721 O.2       17 UNK        -0.5000 
     99 N          -7.8595  -21.0374  -52.9514 N.am      18 UNK        -0.5000 
    100 CA        -8.1643  -21.2497  -54.3605 C.3       18 UNK         0.1400 
    101 CB        -7.7688  -22.6776  -54.7732 C.3       18 UNK        -0.1800 
    102 C         -7.3820  -20.2154  -55.1721 C.2       18 UNK         0.5000 
    103 O         -6.2556  -19.8828  -54.7968 O.2       18 UNK        -0.5000 
    104 N         -7.9620  -19.7517  -56.2863 N.am      19 UNK        -0.5000 
    105 CA        -7.3925  -18.7226  -57.1654 C.3       19 UNK         0.1400 
    106 CB        -8.4067  -18.3837  -58.2678 C.3       19 UNK        -0.1800 
    107 C         -6.0310  -19.0984  -57.7826 C.2       19 UNK         0.5000 
    108 O         -5.2201  -18.2105  -58.0458 O.2       19 UNK        -0.5000 
    109 N         -5.7848  -20.4044  -57.9562 N.am      20 UNK        -0.5000 
    110 CA        -4.5081  -20.9649  -58.4034 C.3       20 UNK         0.1400 
    111 CB        -4.6894  -22.4681  -58.6640 C.3       20 UNK        -0.1800 
    112 C         -3.3497  -20.7252  -57.4123 C.2       20 UNK         0.5000 
    113 O         -2.1964  -20.6656  -57.8408 O.2       20 UNK        -0.5000 
    114 N         -3.6742  -20.5850  -56.1200 N.am      21 UNK        -0.5000 
    115 CA        -2.7336  -20.2387  -55.0592 C.3       21 UNK         0.1400 
    116 CB        -3.0670  -21.0565  -53.7982 C.3       21 UNK        -0.1800 
    117 C         -2.7928  -18.7318  -54.7648 C.2       21 UNK         0.5000 
    118 O         -1.7536  -18.0722  -54.7502 O.2       21 UNK        -0.5000 
    119 N         -4.0072  -18.2253  -54.5225 N.am      22 UNK        -0.5000 
    120 CA        -4.2663  -16.8659  -54.0274 C.3       22 UNK         0.1400 
    121 C         -4.1734  -15.7408  -55.0969 C.2       22 UNK         0.5000 
    122 N         -4.1683  -16.0360  -56.3904 N.am      22 UNK        -0.7600 
    123 O         -4.0980  -14.5672  -54.7439 O.2       22 UNK        -0.5000 
    124 C124       -5.6099  -16.7819  -53.2541 C.3       23 UNK        -0.0398 
    125 S125       -5.8091  -18.0659  -51.9658 S.3       23 UNK        -0.2404 
    126 C126       -5.1681  -17.2183  -50.4851 C.3       23 UNK        -0.0205 
    127 H127        5.4993  -16.9137  -50.1986 H         1 UNK         0.0600 
    128 H128        4.4436  -15.7170  -50.9569 H         1 UNK         0.0600 
    129 H129        4.2792  -17.4266  -51.3694 H         1 UNK         0.0600 
    130 H130        2.8206  -15.0209  -49.5934 H         1 UNK         0.3000 
    131 H131        0.9495  -16.6753  -48.3677 H         1 UNK         0.0600 
    132 H132        1.4671  -13.8056  -47.4651 H         1 UNK         0.0800 
    133 H133       -0.0365  -14.6834  -47.4378 H         1 UNK         0.0800 
    134 H134       -1.7776  -13.7905  -48.8139 H         1 UNK         0.0800 
    135 H135       -1.6909  -13.3596  -50.5014 H         1 UNK         0.0800 
    136 H136       -3.8365  -14.9449  -49.8348 H         1 UNK         0.1150 
    137 H137       -3.1485  -18.9364  -51.2351 H         1 UNK         0.1150 
    138 H138        0.1540  -16.2988  -50.6485 H         1 UNK         0.1150 
    139 H139       -0.6956  -19.0342  -52.5022 H         1 UNK         0.0800 
    140 H140        0.5872  -18.4550  -51.4807 H         1 UNK         0.0800 
    141 H141        1.0819  -19.0865  -49.2626 H         1 UNK         0.0800 
    142 H142        1.3064  -20.7920  -49.0610 H         1 UNK         0.0800 
    143 H143        0.6180  -19.6773  -46.9752 H         1 UNK         0.0600 
    144 H144       -1.4944  -18.5471  -48.5694 H         1 UNK         0.3000 
    145 H145       -2.2919  -16.5339  -47.6978 H         1 UNK         0.0600 
    146 H146       -4.3335  -18.0656  -45.9697 H         1 UNK         0.0600 
    147 H147       -4.7109  -16.8198  -47.1602 H         1 UNK         0.0600 
    148 H148       -4.0683  -18.3684  -47.6804 H         1 UNK         0.0600 
    149 H149       -1.9618  -16.5057  -44.8710 H         1 UNK         0.3000 
    150 H150       -2.6719  -13.0234  -44.6000 H         1 UNK         0.0600 
    151 H151       -4.8085  -14.0428  -43.8153 H         1 UNK         0.0600 
    152 H152       -3.7391  -13.7003  -42.4648 H         1 UNK         0.0600 
    153 H153       -3.9220  -15.3549  -43.0488 H         1 UNK         0.0600 
    154 H154       -1.4931  -15.0361  -42.8766 H         1 UNK         0.3000 
    155 H155        1.3590  -15.3865  -43.8165 H         1 UNK         0.0600 
    156 H156        2.4714  -13.2200  -44.2502 H         1 UNK         0.0600 
    157 H157        2.9852  -13.8444  -42.6936 H         1 UNK         0.0600 
    158 H158        1.7991  -12.5415  -42.7699 H         1 UNK         0.0600 
    159 H159       -0.0047  -14.2564  -41.4412 H         1 UNK         0.3000 
    160 H160        0.6078  -15.3740  -39.3055 H         1 UNK         0.0600 
    161 H161       -1.2516  -17.4557  -40.6195 H         1 UNK         0.0600 
    162 H162       -1.6273  -15.7508  -40.3894 H         1 UNK         0.0600 
    163 H163       -1.4623  -16.8030  -38.9966 H         1 UNK         0.0600 
    164 H164        1.6367  -17.9677  -40.0132 H         1 UNK         0.3000 
    165 H165        2.8919  -18.5771  -36.8815 H         1 UNK         0.0600 
    166 H166        1.9075  -20.8628  -36.8416 H         1 UNK         0.0600 
    167 H167        0.7302  -19.6822  -36.2888 H         1 UNK         0.0600 
    168 H168        0.6071  -20.3455  -37.9147 H         1 UNK         0.0600 
    169 H169        2.6182  -20.1880  -39.2986 H         1 UNK         0.3000 
    170 H170        5.3761  -18.7055  -40.9944 H         1 UNK         0.0600 
    171 H171        6.3115  -20.4469  -39.5098 H         1 UNK         0.0600 
    172 H172        4.9211  -21.4837  -39.7899 H         1 UNK         0.0600 
    173 H173        6.0160  -21.0958  -41.1159 H         1 UNK         0.0600 
    174 H174        3.8916  -19.1810  -42.4875 H         1 UNK         0.3000 
    175 H175        1.7270  -21.8051  -43.1516 H         1 UNK         0.0600 
    176 H176        0.7074  -18.9358  -42.8251 H         1 UNK         0.0600 
    177 H177       -0.0357  -20.2153  -43.7692 H         1 UNK         0.0600 
    178 H178        0.0205  -20.3418  -42.0196 H         1 UNK         0.0600 
    179 H179        2.3348  -19.3642  -44.5607 H         1 UNK         0.3000 
    180 H180        5.5422  -20.1842  -45.6675 H         1 UNK         0.0600 
    181 H181        4.7120  -20.2663  -47.9854 H         1 UNK         0.0600 
    182 H182        3.0608  -20.5304  -47.4264 H         1 UNK         0.0600 
    183 H183        4.2895  -21.7641  -47.1743 H         1 UNK         0.0600 
    184 H184        3.8479  -18.2572  -46.7603 H         1 UNK         0.3000 
    185 H185        3.5096  -15.9281  -44.2973 H         1 UNK         0.0600 
    186 H186        6.1016  -15.6738  -45.9064 H         1 UNK         0.0600 
    187 H187        5.2054  -14.3436  -45.1702 H         1 UNK         0.0600 
    188 H188        5.9664  -15.5561  -44.1560 H         1 UNK         0.0600 
    189 H189        3.9739  -15.4996  -47.0970 H         1 UNK         0.3000 
    190 H190       -1.3576  -20.3934  -45.5038 H         1 UNK         0.3000 
    191 H191       -2.9654  -22.5531  -46.0577 H         1 UNK         0.0600 
    192 H192       -3.2772  -22.7112  -43.6064 H         1 UNK         0.0600 
    193 H193       -3.1982  -21.0268  -44.0977 H         1 UNK         0.0600 
    194 H194       -1.8074  -21.7901  -43.3258 H         1 UNK         0.0600 
    195 H195        0.4382  -22.7886  -45.3288 H         1 UNK         0.3000 
    196 H196        0.5692  -25.5697  -44.6156 H         1 UNK         0.0600 
    197 H197        2.6447  -23.6974  -45.8758 H         1 UNK         0.0600 
    198 H198        2.4260  -24.0052  -44.1518 H         1 UNK         0.0600 
    199 H199        2.9895  -25.2878  -45.2078 H         1 UNK         0.0600 
    200 H200        0.0733  -23.9135  -47.6621 H         1 UNK         0.3000 
    201 H201        0.3366  -26.4391  -49.2326 H         1 UNK         0.0600 
    202 H202        0.3960  -23.5173  -50.1669 H         1 UNK         0.0600 
    203 H203        1.8168  -24.5453  -49.9865 H         1 UNK         0.0600 
    204 H204        0.5935  -24.9417  -51.1819 H         1 UNK         0.0600 
    205 H205       -1.8243  -25.4955  -47.3763 H         1 UNK         0.3000 
    206 H206       -3.9679  -25.6493  -47.0985 H         1 UNK         0.0600 
    207 H207       -4.0113  -27.5496  -48.6993 H         1 UNK         0.0600 
    208 H208       -5.4998  -26.6176  -48.7597 H         1 UNK         0.0600 
    209 H209       -4.3093  -26.4377  -50.0360 H         1 UNK         0.0600 
    210 H210       -3.2896  -23.9258  -50.1288 H         1 UNK         0.3000 
    211 H211       -3.9587  -22.0188  -51.0463 H         1 UNK         0.0600 
    212 H212       -3.0761  -20.9976  -48.9363 H         1 UNK         0.0600 
    213 H213       -4.6795  -21.0647  -48.2173 H         1 UNK         0.0600 
    214 H214       -4.3723  -20.0452  -49.6164 H         1 UNK         0.0600 
    215 H215       -6.2186  -20.3018  -50.0484 H         1 UNK         0.3000 
    216 H216       -8.3549  -19.9046  -50.4026 H         1 UNK         0.0600 
    217 H217       -9.9856  -21.4785  -49.4298 H         1 UNK         0.0600 
    218 H218       -8.8111  -22.7872  -49.4744 H         1 UNK         0.0600 
    219 H219       -8.5576  -21.4040  -48.4119 H         1 UNK         0.0600 
    220 H220       -6.9846  -20.5585  -52.7768 H         1 UNK         0.3000 
    221 H221       -9.2317  -21.0973  -54.5338 H         1 UNK         0.0600 
    222 H222       -8.3265  -23.4215  -54.2039 H         1 UNK         0.0600 
    223 H223       -6.7059  -22.8619  -54.6099 H         1 UNK         0.0600 
    224 H224       -7.9767  -22.8535  -55.8292 H         1 UNK         0.0600 
    225 H225       -8.8802  -20.0909  -56.5356 H         1 UNK         0.3000 
    226 H226       -7.2337  -17.8270  -56.5608 H         1 UNK         0.0600 
    227 H227       -8.6323  -19.2523  -58.8876 H         1 UNK         0.0600 
    228 H228       -9.3430  -18.0192  -57.8448 H         1 UNK         0.0600 
    229 H229       -8.0233  -17.6018  -58.9249 H         1 UNK         0.0600 
    230 H230       -6.5105  -21.0626  -57.7148 H         1 UNK         0.3000 
    231 H231       -4.2404  -20.4821  -59.3456 H         1 UNK         0.0600 
    232 H232       -4.9817  -23.0009  -57.7581 H         1 UNK         0.0600 
    233 H233       -3.7626  -22.9168  -59.0242 H         1 UNK         0.0600 
    234 H234       -5.4519  -22.6487  -59.4219 H         1 UNK         0.0600 
    235 H235       -4.6534  -20.5933  -55.8601 H         1 UNK         0.3000 
    236 H236       -1.7131  -20.4871  -55.3583 H         1 UNK         0.0600 
    237 H237       -2.3771  -20.8229  -52.9874 H         1 UNK         0.0600 
    238 H238       -4.0762  -20.8582  -53.4355 H         1 UNK         0.0600 
    239 H239       -2.9879  -22.1262  -53.9920 H         1 UNK         0.0600 
    240 H240       -4.8179  -18.8388  -54.5631 H         1 UNK         0.3000 
    241 H241       -3.4747  -16.6346  -53.3136 H         1 UNK         0.0600 
    242 H242       -4.2862  -16.9860  -56.7220 H         1 UNK         0.3800 
    243 H243       -4.1003  -15.2885  -57.0621 H         1 UNK         0.3800 
    244 H244       -6.4438  -16.8897  -53.9497 H         1 UNK         0.0800 
    245 H245       -5.7257  -15.7993  -52.7935 H         1 UNK         0.0800 
    246 H246       -5.3999  -17.8246  -49.6105 H         1 UNK         0.0800 
    247 H247       -5.7122  -16.2815  -50.3555 H         1 UNK         0.0800 
@<TRIPOS>BOND
     1    1    2 1    
     2    1  127 1    
     3    1  128 1    
     4    1  129 1    
     5    2    3 2    
     6    2    4 am   BACKBONE|DICT|INTERRES
     7    4    5 1    
     8    4  130 1    
     9    5    6 1    
    10    5   65 1    
    11    5  131 1    
    12    6    7 1    
    13    6  132 1    
    14    6  133 1    
    15    7    8 1    
    16    8    9 1    
    17    8  134 1    
    18    8  135 1    
    19    9   10 ar   
    20    9   14 ar   
    21   10   11 ar   
    22   10  136 1    
    23   11   12 ar   
    24   11  126 1    
    25   12   13 ar   
    26   12  137 1    
    27   13   14 ar   
    28   13   15 1    
    29   14  138 1    
    30   15   16 1    
    31   15  139 1    
    32   15  140 1    
    33   16   17 1    
    34   17   18 1    
    35   17  141 1    
    36   17  142 1    
    37   18   19 1    
    38   18   67 1    
    39   18  143 1    
    40   19   20 am   BACKBONE|DICT|INTERRES
    41   19  144 1    
    42   20   21 2    
    43   20   22 1    
    44   22   23 1    
    45   22   24 1    
    46   22  145 1    
    47   23  146 1    
    48   23  147 1    
    49   23  148 1    
    50   24   25 am   BACKBONE|DICT|INTERRES
    51   24  149 1    
    52   25   26 2    
    53   25   27 1    
    54   27   28 1    
    55   27   29 1    
    56   27  150 1    
    57   28  151 1    
    58   28  152 1    
    59   28  153 1    
    60   29   30 am   BACKBONE|DICT|INTERRES
    61   29  154 1    
    62   30   31 2    
    63   30   32 1    
    64   32   33 1    
    65   32   34 1    
    66   32  155 1    
    67   33  156 1    
    68   33  157 1    
    69   33  158 1    
    70   34   35 am   BACKBONE|DICT|INTERRES
    71   34  159 1    
    72   35   36 2    
    73   35   37 1    
    74   37   38 1    
    75   37   39 1    
    76   37  160 1    
    77   38  161 1    
    78   38  162 1    
    79   38  163 1    
    80   39   40 am   BACKBONE|DICT|INTERRES
    81   39  164 1    
    82   40   41 2    
    83   40   42 1    
    84   42   43 1    
    85   42   44 1    
    86   42  165 1    
    87   43  166 1    
    88   43  167 1    
    89   43  168 1    
    90   44   45 am   BACKBONE|DICT|INTERRES
    91   44  169 1    
    92   45   46 2    
    93   45   47 1    
    94   47   48 1    
    95   47   49 1    
    96   47  170 1    
    97   48  171 1    
    98   48  172 1    
    99   48  173 1    
   100   49   50 am   BACKBONE|DICT|INTERRES
   101   49  174 1    
   102   50   51 2    
   103   50   52 1    
   104   52   53 1    
   105   52   54 1    
   106   52  175 1    
   107   53  176 1    
   108   53  177 1    
   109   53  178 1    
   110   54   55 am   BACKBONE|DICT|INTERRES
   111   54  179 1    
   112   55   56 2    
   113   55   57 1    
   114   57   58 1    
   115   57   59 1    
   116   57  180 1    
   117   58  181 1    
   118   58  182 1    
   119   58  183 1    
   120   59   60 am   BACKBONE|DICT|INTERRES
   121   59  184 1    
   122   60   61 2    
   123   60   62 1    
   124   62   63 1    
   125   62   64 1    
   126   62  185 1    
   127   63  186 1    
   128   63  187 1    
   129   63  188 1    
   130   64   65 am   BACKBONE|DICT|INTERRES
   131   64  189 1    
   132   65   66 2    
   133   67   68 2    
   134   67   69 am   BACKBONE|DICT|INTERRES
   135   69   70 1    
   136   69  190 1    
   137   70   71 1    
   138   70   72 1    
   139   70  191 1    
   140   71  192 1    
   141   71  193 1    
   142   71  194 1    
   143   72   73 2    
   144   72   74 am   BACKBONE|DICT|INTERRES
   145   74   75 1    
   146   74  195 1    
   147   75   76 1    
   148   75   77 1    
   149   75  196 1    
   150   76  197 1    
   151   76  198 1    
   152   76  199 1    
   153   77   78 2    
   154   77   79 am   BACKBONE|DICT|INTERRES
   155   79   80 1    
   156   79  200 1    
   157   80   81 1    
   158   80   82 1    
   159   80  201 1    
   160   81  202 1    
   161   81  203 1    
   162   81  204 1    
   163   82   83 2    
   164   82   84 am   BACKBONE|DICT|INTERRES
   165   84   85 1    
   166   84  205 1    
   167   85   86 1    
   168   85   87 1    
   169   85  206 1    
   170   86  207 1    
   171   86  208 1    
   172   86  209 1    
   173   87   88 2    
   174   87   89 am   BACKBONE|DICT|INTERRES
   175   89   90 1    
   176   89  210 1    
   177   90   91 1    
   178   90   92 1    
   179   90  211 1    
   180   91  212 1    
   181   91  213 1    
   182   91  214 1    
   183   92   93 2    
   184   92   94 am   BACKBONE|DICT|INTERRES
   185   94   95 1    
   186   94  215 1    
   187   95   96 1    
   188   95   97 1    
   189   95  216 1    
   190   96  217 1    
   191   96  218 1    
   192   96  219 1    
   193   97   98 2    
   194   97   99 am   BACKBONE|DICT|INTERRES
   195   99  100 1    
   196   99  220 1    
   197  100  101 1    
   198  100  102 1    
   199  100  221 1    
   200  101  222 1    
   201  101  223 1    
   202  101  224 1    
   203  102  103 2    
   204  102  104 am   BACKBONE|DICT|INTERRES
   205  104  105 1    
   206  104  225 1    
   207  105  106 1    
   208  105  107 1    
   209  105  226 1    
   210  106  227 1    
   211  106  228 1    
   212  106  229 1    
   213  107  108 2    
   214  107  109 am   BACKBONE|DICT|INTERRES
   215  109  110 1    
   216  109  230 1    
   217  110  111 1    
   218  110  112 1    
   219  110  231 1    
   220  111  232 1    
   221  111  233 1    
   222  111  234 1    
   223  112  113 2    
   224  112  114 am   BACKBONE|DICT|INTERRES
   225  114  115 1    
   226  114  235 1    
   227  115  116 1    
   228  115  117 1    
   229  115  236 1    
   230  116  237 1    
   231  116  238 1    
   232  116  239 1    
   233  117  118 2    
   234  117  119 am   BACKBONE|DICT|INTERRES
   235  119  120 1    
   236  119  240 1    
   237  120  121 1    
   238  120  124 1    
   239  120  241 1    
   240  121  122 am   BACKBONE|DICT|INTERRES
   241  121  123 2    
   242  122  242 1    
   243  122  243 1    
   244  124  125 1    
   245  124  244 1    
   246  124  245 1    
   247  125  126 1    
   248  126  246 1    
   249  126  247 1    
@<TRIPOS>SUBSTRUCTURE
     1 UNK         1 GROUP             0       ****    0 ROOT    
