@<TRIPOS>MOLECULE
3R540
247   249    1
SMALL
USER_CHARGES


@<TRIPOS>ATOM
      1 CA          0.0129   -9.5831  -49.4011 C.3       0 UNK        -0.1800 
      2 C          -0.4297  -10.2121  -48.0880 C.2       0 UNK         0.5000 
      3 O          -1.0396   -9.5343  -47.2612 O.2       0 UNK        -0.5000 
      4 N          -0.1034  -11.4960  -47.8857 N.am      1 UNK        -0.5000 
      5 CA         -0.4408  -12.3606  -46.7405 C.3       1 UNK         0.1400 
      6 C6         -1.9628  -12.5286  -46.4896 C.3       23 UNK        -0.0398 
      7 S7         -2.8073  -13.2945  -47.9128 S.3       23 UNK        -0.2404 
      8 C8         -2.7120  -15.0413  -47.4227 C.3       23 UNK        -0.0205 
      9 C9         -3.0393  -15.9692  -48.5805 C.ar      23 UNK        -0.0193 
     10 C10        -2.0707  -16.2489  -49.5476 C.ar      23 UNK        -0.1150 
     11 C11        -2.3235  -17.1518  -50.5841 C.ar      23 UNK        -0.0193 
     12 C12        -3.5898  -17.7502  -50.6616 C.ar      23 UNK        -0.1150 
     13 C13        -4.5756  -17.4630  -49.7111 C.ar      23 UNK        -0.0193 
     14 C14        -4.2930  -16.5755  -48.6700 C.ar      23 UNK        -0.1150 
     15 C15        -5.9541  -18.0972  -49.8178 C.3       23 UNK        -0.0205 
     16 S16        -5.9218  -19.8930  -49.5330 S.3       23 UNK        -0.2404 
     17 C17        -5.5636  -20.0168  -47.7465 C.3       23 UNK        -0.0398 
     18 CA         -4.6642  -21.2422  -47.4641 C.3       11 UNK         0.1400 
     19 N          -3.3114  -21.0786  -48.0084 N.am      11 UNK        -0.5000 
     20 C          -2.4693  -22.0919  -48.2386 C.2       10 UNK         0.5000 
     21 O          -2.7355  -23.2674  -47.9849 O.2       10 UNK        -0.5000 
     22 CA         -1.0921  -21.7366  -48.8244 C.3       10 UNK         0.1400 
     23 CB         -1.2109  -21.5876  -50.3478 C.3       10 UNK        -0.1800 
     24 N          -0.4580  -20.5332  -48.2714 N.am      10 UNK        -0.5000 
     25 C          -0.2755  -20.2509  -46.9735 C.2       9 UNK         0.5000 
     26 O          -0.7556  -20.9135  -46.0518 O.2       9 UNK        -0.5000 
     27 CA          0.5603  -18.9978  -46.6623 C.3       9 UNK         0.1400 
     28 CB         -0.2870  -17.7336  -46.8329 C.3       9 UNK        -0.1800 
     29 N           1.0947  -19.0349  -45.3018 N.am      9 UNK        -0.5000 
     30 C           2.2083  -19.6946  -44.9517 C.2       8 UNK         0.5000 
     31 O           2.9086  -20.3081  -45.7585 O.2       8 UNK        -0.5000 
     32 CA          2.6386  -19.6611  -43.4708 C.3       8 UNK         0.1400 
     33 CB          4.0251  -19.0157  -43.3089 C.3       8 UNK        -0.1800 
     34 N           1.6777  -18.9675  -42.6086 N.am      8 UNK        -0.5000 
     35 C           0.6659  -19.5858  -41.9840 C.2       7 UNK         0.5000 
     36 O           0.4606  -20.7975  -42.0569 O.2       7 UNK        -0.5000 
     37 CA         -0.2806  -18.7245  -41.1277 C.3       7 UNK         0.1400 
     38 CB          0.2284  -18.6541  -39.6801 C.3       7 UNK        -0.1800 
     39 N          -0.4954  -17.3627  -41.6148 N.am      7 UNK        -0.5000 
     40 C          -1.0086  -17.0010  -42.7960 C.2       6 UNK         0.5000 
     41 O          -1.2829  -17.8032  -43.6859 O.2       6 UNK        -0.5000 
     42 CA         -1.2494  -15.4932  -43.0392 C.3       6 UNK         0.1400 
     43 CB         -2.6232  -15.0549  -42.5024 C.3       6 UNK        -0.1800 
     44 N          -0.1789  -14.6138  -42.5515 N.am      6 UNK        -0.5000 
     45 C           0.2801  -14.4319  -41.3027 C.2       5 UNK         0.5000 
     46 O          -0.2752  -14.8808  -40.2984 O.2       5 UNK        -0.5000 
     47 CA          1.6304  -13.6916  -41.1690 C.3       5 UNK         0.1400 
     48 CB          2.4008  -14.0937  -39.8949 C.3       5 UNK        -0.1800 
     49 N           2.4897  -13.8468  -42.3498 N.am      5 UNK        -0.5000 
     50 C           2.9040  -14.9896  -42.9249 C.2       4 UNK         0.5000 
     51 O           2.6756  -16.1086  -42.4617 O.2       4 UNK        -0.5000 
     52 CA          3.6278  -14.8707  -44.2825 C.3       4 UNK         0.1400 
     53 CB          2.8606  -15.6442  -45.3695 C.3       4 UNK        -0.1800 
     54 N           3.7387  -13.4794  -44.7216 N.am      4 UNK        -0.5000 
     55 C           4.8178  -12.6990  -44.5838 C.2       3 UNK         0.5000 
     56 O           5.8912  -13.0877  -44.1229 O.2       3 UNK        -0.5000 
     57 CA          4.6632  -11.2256  -45.0166 C.3       3 UNK         0.1400 
     58 CB          5.1816  -11.0308  -46.4496 C.3       3 UNK        -0.1800 
     59 N           3.2824  -10.7364  -44.9414 N.am      3 UNK        -0.5000 
     60 C           2.5845  -10.5763  -43.8080 C.2       2 UNK         0.5000 
     61 O           3.0408  -10.8041  -42.6881 O.2       2 UNK        -0.5000 
     62 CA          1.1098  -10.1566  -43.9523 C.3       2 UNK         0.1400 
     63 CB          0.9827   -8.6264  -43.9602 C.3       2 UNK        -0.1800 
     64 N           0.4569  -10.6988  -45.1466 N.am      2 UNK        -0.5000 
     65 C           0.2930  -11.9962  -45.4332 C.2       1 UNK         0.5000 
     66 O           0.7222  -12.9043  -44.7202 O.2       1 UNK        -0.5000 
     67 C          -4.6899  -21.6674  -45.9793 C.2       11 UNK         0.5000 
     68 O          -5.7318  -22.1348  -45.5181 O.2       11 UNK        -0.5000 
     69 N          -3.5594  -21.5437  -45.2719 N.am      12 UNK        -0.5000 
     70 CA         -3.3848  -22.0139  -43.9010 C.3       12 UNK         0.1400 
     71 CB         -2.8282  -20.8667  -43.0448 C.3       12 UNK        -0.1800 
     72 C          -2.4534  -23.2364  -43.8598 C.2       12 UNK         0.5000 
     73 O          -2.8313  -24.2700  -43.3082 O.2       12 UNK        -0.5000 
     74 N          -1.2557  -23.1024  -44.4431 N.am      13 UNK        -0.5000 
     75 CA         -0.1626  -24.0694  -44.3410 C.3       13 UNK         0.1400 
     76 CB          1.1539  -23.3780  -44.7249 C.3       13 UNK        -0.1800 
     77 C          -0.3638  -25.3347  -45.1901 C.2       13 UNK         0.5000 
     78 O           0.0721  -26.4093  -44.7751 O.2       13 UNK        -0.5000 
     79 N          -1.0088  -25.1906  -46.3543 N.am      14 UNK        -0.5000 
     80 CA         -1.2755  -26.2787  -47.2991 C.3       14 UNK         0.1400 
     81 CB         -0.7044  -25.8976  -48.6779 C.3       14 UNK        -0.1800 
     82 C          -2.7780  -26.6002  -47.3852 C.2       14 UNK         0.5000 
     83 O          -3.1840  -27.3272  -48.2913 O.2       14 UNK        -0.5000 
     84 N          -3.5872  -26.0279  -46.4786 N.am      15 UNK        -0.5000 
     85 CA         -5.0490  -26.1527  -46.3933 C.3       15 UNK         0.1400 
     86 CB         -5.4346  -27.5650  -45.9079 C.3       15 UNK        -0.1800 
     87 C          -5.7787  -25.7500  -47.6961 C.2       15 UNK         0.5000 
     88 O          -6.8206  -26.3192  -48.0242 O.2       15 UNK        -0.5000 
     89 N          -5.1918  -24.7862  -48.4200 N.am      16 UNK        -0.5000 
     90 CA         -5.6078  -24.2510  -49.7176 C.3       16 UNK         0.1400 
     91 CB         -7.0321  -23.6585  -49.6660 C.3       16 UNK        -0.1800 
     92 C          -5.4077  -25.2134  -50.9058 C.2       16 UNK         0.5000 
     93 O          -5.8965  -24.9182  -51.9962 O.2       16 UNK        -0.5000 
     94 N          -4.6513  -26.3082  -50.7275 N.am      17 UNK        -0.5000 
     95 CA         -4.2990  -27.2300  -51.8148 C.3       17 UNK         0.1400 
     96 CB         -3.7134  -28.5237  -51.2304 C.3       17 UNK        -0.1800 
     97 C          -3.3172  -26.6041  -52.8255 C.2       17 UNK         0.5000 
     98 O          -3.3899  -26.9070  -54.0165 O.2       17 UNK        -0.5000 
     99 N          -2.4355  -25.7248  -52.3308 N.am      18 UNK        -0.5000 
    100 CA        -1.4397  -24.9941  -53.1178 C.3       18 UNK         0.1400 
    101 CB        -0.1544  -24.8700  -52.2823 C.3       18 UNK        -0.1800 
    102 C         -1.9335  -23.6054  -53.5736 C.2       18 UNK         0.5000 
    103 O         -1.1896  -22.8994  -54.2555 O.2       18 UNK        -0.5000 
    104 N         -3.1661  -23.2213  -53.2022 N.am      19 UNK        -0.5000 
    105 CA        -3.7393  -21.8900  -53.4406 C.3       19 UNK         0.1400 
    106 CB        -5.0488  -21.7374  -52.6568 C.3       19 UNK        -0.1800 
    107 C         -3.9487  -21.5295  -54.9239 C.2       19 UNK         0.5000 
    108 O         -4.1136  -20.3521  -55.2377 O.2       19 UNK        -0.5000 
    109 N         -3.8910  -22.5249  -55.8189 N.am      20 UNK        -0.5000 
    110 CA        -3.8887  -22.3466  -57.2727 C.3       20 UNK         0.1400 
    111 CB        -3.9564  -23.7281  -57.9412 C.3       20 UNK        -0.1800 
    112 C         -2.6728  -21.5508  -57.7971 C.2       20 UNK         0.5000 
    113 O         -2.7642  -20.9520  -58.8692 O.2       20 UNK        -0.5000 
    114 N         -1.5665  -21.5462  -57.0380 N.am      21 UNK        -0.5000 
    115 CA        -0.3618  -20.7707  -57.3350 C.3       21 UNK         0.1400 
    116 CB         0.8385  -21.4490  -56.6557 C.3       21 UNK        -0.1800 
    117 C         -0.4630  -19.2956  -56.8934 C.2       21 UNK         0.5000 
    118 O          0.3434  -18.4814  -57.3460 O.2       21 UNK        -0.5000 
    119 N         -1.4150  -18.9749  -56.0079 N.am      22 UNK        -0.5000 
    120 CA        -1.6283  -17.6290  -55.4544 C.3       22 UNK         0.1400 
    121 C         -2.3327  -16.6794  -56.4618 C.2       22 UNK         0.5000 
    122 N         -2.0442  -15.3860  -56.4055 N.am      22 UNK        -0.7600 
    123 O         -3.1634  -17.0913  -57.2686 O.2       22 UNK        -0.5000 
    124 C124       -2.3998  -17.6776  -54.1103 C.3       23 UNK        -0.0398 
    125 S125       -1.5288  -18.6846  -52.8595 S.3       23 UNK        -0.2404 
    126 C126       -1.1806  -17.4535  -51.5580 C.3       23 UNK        -0.0205 
    127 H127        0.5515  -10.2923  -50.0301 H         1 UNK         0.0600 
    128 H128        0.6678   -8.7334  -49.2082 H         1 UNK         0.0600 
    129 H129       -0.8548   -9.2272  -49.9565 H         1 UNK         0.0600 
    130 H130        0.4195  -11.9649  -48.6121 H         1 UNK         0.3000 
    131 H131       -0.0522  -13.3430  -47.0145 H         1 UNK         0.0600 
    132 H132       -2.1475  -13.1411  -45.6047 H         1 UNK         0.0800 
    133 H133       -2.4332  -11.5659  -46.2855 H         1 UNK         0.0800 
    134 H134       -3.3866  -15.2198  -46.5837 H         1 UNK         0.0800 
    135 H135       -1.7077  -15.2616  -47.0605 H         1 UNK         0.0800 
    136 H136       -1.1000  -15.7782  -49.4743 H         1 UNK         0.1150 
    137 H137       -3.8244  -18.4492  -51.4507 H         1 UNK         0.1150 
    138 H138       -5.0479  -16.3566  -47.9279 H         1 UNK         0.1150 
    139 H139       -6.6553  -17.6355  -49.1209 H         1 UNK         0.0800 
    140 H140       -6.3500  -17.9099  -50.8169 H         1 UNK         0.0800 
    141 H141       -6.5211  -20.1025  -47.2296 H         1 UNK         0.0800 
    142 H142       -5.0946  -19.1023  -47.3814 H         1 UNK         0.0800 
    143 H143       -5.1161  -22.0820  -47.9876 H         1 UNK         0.0600 
    144 H144       -3.0244  -20.1396  -48.2428 H         1 UNK         0.3000 
    145 H145       -0.4272  -22.5761  -48.6126 H         1 UNK         0.0600 
    146 H146       -0.2324  -21.5001  -50.8201 H         1 UNK         0.0600 
    147 H147       -1.7085  -22.4521  -50.7864 H         1 UNK         0.0600 
    148 H148       -1.7960  -20.7080  -50.6186 H         1 UNK         0.0600 
    149 H149       -0.0486  -19.9109  -48.9524 H         1 UNK         0.3000 
    150 H150        1.3929  -18.9481  -47.3672 H         1 UNK         0.0600 
    151 H151       -0.5283  -17.5929  -47.8834 H         1 UNK         0.0600 
    152 H152        0.2457  -16.8436  -46.4994 H         1 UNK         0.0600 
    153 H153       -1.2282  -17.7927  -46.2857 H         1 UNK         0.0600 
    154 H154        0.5102  -18.6326  -44.5791 H         1 UNK         0.3000 
    155 H155        2.7337  -20.6992  -43.1466 H         1 UNK         0.0600 
    156 H156        4.0515  -17.9983  -43.6947 H         1 UNK         0.0600 
    157 H157        4.7846  -19.5848  -43.8461 H         1 UNK         0.0600 
    158 H158        4.3257  -18.9840  -42.2616 H         1 UNK         0.0600 
    159 H159        1.8069  -17.9665  -42.4919 H         1 UNK         0.3000 
    160 H160       -1.2530  -19.2198  -41.1211 H         1 UNK         0.0600 
    161 H161        1.1798  -18.1240  -39.6165 H         1 UNK         0.0600 
    162 H162        0.3785  -19.6526  -39.2674 H         1 UNK         0.0600 
    163 H163       -0.4849  -18.1403  -39.0354 H         1 UNK         0.0600 
    164 H164       -0.3121  -16.6125  -40.9540 H         1 UNK         0.3000 
    165 H165       -1.2638  -15.3565  -44.1219 H         1 UNK         0.0600 
    166 H166       -2.6954  -15.1716  -41.4209 H         1 UNK         0.0600 
    167 H167       -2.8238  -14.0106  -42.7419 H         1 UNK         0.0600 
    168 H168       -3.4213  -15.6502  -42.9479 H         1 UNK         0.0600 
    169 H169        0.3464  -14.1539  -43.2903 H         1 UNK         0.3000 
    170 H170        1.3917  -12.6298  -41.0969 H         1 UNK         0.0600 
    171 H171        1.8267  -13.8591  -38.9978 H         1 UNK         0.0600 
    172 H172        2.6182  -15.1622  -39.8750 H         1 UNK         0.0600 
    173 H173        3.3469  -13.5574  -39.8219 H         1 UNK         0.0600 
    174 H174        2.7394  -12.9792  -42.8063 H         1 UNK         0.3000 
    175 H175        4.6174  -15.3176  -44.1701 H         1 UNK         0.0600 
    176 H176        1.8546  -15.2486  -45.5104 H         1 UNK         0.0600 
    177 H177        3.3771  -15.5933  -46.3280 H         1 UNK         0.0600 
    178 H178        2.7603  -16.6978  -45.1148 H         1 UNK         0.0600 
    179 H179        2.8854  -13.0656  -45.0747 H         1 UNK         0.3000 
    180 H180        5.2742  -10.6195  -44.3445 H         1 UNK         0.0600 
    181 H181        4.5938  -11.5995  -47.1713 H         1 UNK         0.0600 
    182 H182        6.2179  -11.3596  -46.5383 H         1 UNK         0.0600 
    183 H183        5.1495   -9.9810  -46.7417 H         1 UNK         0.0600 
    184 H184        2.8243  -10.5307  -45.8172 H         1 UNK         0.3000 
    185 H185        0.5739  -10.5407  -43.0819 H         1 UNK         0.0600 
    186 H186        1.4704   -8.1867  -44.8311 H         1 UNK         0.0600 
    187 H187       -0.0630   -8.3182  -43.9709 H         1 UNK         0.0600 
    188 H188        1.4402   -8.1905  -43.0709 H         1 UNK         0.0600 
    189 H189        0.0390  -10.0303  -45.7884 H         1 UNK         0.3000 
    190 H190       -2.7275  -21.1867  -45.7300 H         1 UNK         0.3000 
    191 H191       -4.3399  -22.3156  -43.4662 H         1 UNK         0.0600 
    192 H192       -2.6257  -21.1984  -42.0258 H         1 UNK         0.0600 
    193 H193       -3.5355  -20.0395  -42.9865 H         1 UNK         0.0600 
    194 H194       -1.8978  -20.4755  -43.4569 H         1 UNK         0.0600 
    195 H195       -1.0332  -22.2272  -44.9156 H         1 UNK         0.3000 
    196 H196       -0.0852  -24.3819  -43.2974 H         1 UNK         0.0600 
    197 H197        1.1342  -23.0117  -45.7521 H         1 UNK         0.0600 
    198 H198        1.3523  -22.5297  -44.0712 H         1 UNK         0.0600 
    199 H199        1.9989  -24.0617  -44.6346 H         1 UNK         0.0600 
    200 H200       -1.3688  -24.2804  -46.6141 H         1 UNK         0.3000 
    201 H201       -0.7815  -27.1979  -46.9790 H         1 UNK         0.0600 
    202 H202       -1.2230  -25.0443  -49.1125 H         1 UNK         0.0600 
    203 H203       -0.7939  -26.7256  -49.3823 H         1 UNK         0.0600 
    204 H204        0.3542  -25.6466  -48.6103 H         1 UNK         0.0600 
    205 H205       -3.1551  -25.4433  -45.7771 H         1 UNK         0.3000 
    206 H206       -5.3729  -25.4395  -45.6337 H         1 UNK         0.0600 
    207 H207       -4.9203  -27.8166  -44.9804 H         1 UNK         0.0600 
    208 H208       -6.5052  -27.6348  -45.7121 H         1 UNK         0.0600 
    209 H209       -5.1860  -28.3274  -46.6469 H         1 UNK         0.0600 
    210 H210       -4.3131  -24.4108  -48.0727 H         1 UNK         0.3000 
    211 H211       -4.9229  -23.4255  -49.9073 H         1 UNK         0.0600 
    212 H212       -7.2389  -23.0656  -50.5577 H         1 UNK         0.0600 
    213 H213       -7.1627  -23.0012  -48.8068 H         1 UNK         0.0600 
    214 H214       -7.7936  -24.4366  -49.6113 H         1 UNK         0.0600 
    215 H215       -4.2801  -26.5241  -49.8075 H         1 UNK         0.3000 
    216 H216       -5.2138  -27.4876  -52.3528 H         1 UNK         0.0600 
    217 H217       -2.7620  -28.3454  -50.7282 H         1 UNK         0.0600 
    218 H218       -3.5346  -29.2590  -52.0158 H         1 UNK         0.0600 
    219 H219       -4.3943  -28.9760  -50.5090 H         1 UNK         0.0600 
    220 H220       -2.4506  -25.5447  -51.3381 H         1 UNK         0.3000 
    221 H221       -1.1974  -25.5584  -54.0207 H         1 UNK         0.0600 
    222 H222        0.2305  -25.8519  -52.0063 H         1 UNK         0.0600 
    223 H223       -0.3178  -24.3067  -51.3641 H         1 UNK         0.0600 
    224 H224        0.6319  -24.3621  -52.8423 H         1 UNK         0.0600 
    225 H225       -3.7486  -23.8816  -52.7083 H         1 UNK         0.3000 
    226 H226       -3.0315  -21.1636  -53.0401 H         1 UNK         0.0600 
    227 H227       -5.8050  -22.4484  -52.9894 H         1 UNK         0.0600 
    228 H228       -4.8847  -21.8817  -51.5909 H         1 UNK         0.0600 
    229 H229       -5.4644  -20.7363  -52.7803 H         1 UNK         0.0600 
    230 H230       -3.7561  -23.4645  -55.4761 H         1 UNK         0.3000 
    231 H231       -4.7871  -21.7880  -57.5432 H         1 UNK         0.0600 
    232 H232       -3.0908  -24.3408  -57.6859 H         1 UNK         0.0600 
    233 H233       -3.9845  -23.6357  -59.0277 H         1 UNK         0.0600 
    234 H234       -4.8531  -24.2697  -57.6393 H         1 UNK         0.0600 
    235 H235       -1.5634  -22.0617  -56.1642 H         1 UNK         0.3000 
    236 H236       -0.1890  -20.7810  -58.4133 H         1 UNK         0.0600 
    237 H237        0.9420  -22.4854  -56.9777 H         1 UNK         0.0600 
    238 H238        1.7691  -20.9371  -56.9038 H         1 UNK         0.0600 
    239 H239        0.7411  -21.4431  -55.5693 H         1 UNK         0.0600 
    240 H240       -2.0901  -19.6753  -55.7315 H         1 UNK         0.3000 
    241 H241       -0.6434  -17.2052  -55.2465 H         1 UNK         0.0600 
    242 H242       -2.5030  -14.7550  -57.0446 H         1 UNK         0.3800 
    243 H243       -1.3686  -15.0200  -55.7524 H         1 UNK         0.3800 
    244 H244       -3.4004  -18.0868  -54.2509 H         1 UNK         0.0800 
    245 H245       -2.5468  -16.6696  -53.7190 H         1 UNK         0.0800 
    246 H246       -0.8428  -16.5253  -52.0211 H         1 UNK         0.0800 
    247 H247       -0.3357  -17.8267  -50.9780 H         1 UNK         0.0800 
@<TRIPOS>BOND
     1    1    2 1    
     2    1  127 1    
     3    1  128 1    
     4    1  129 1    
     5    2    3 2    
     6    2    4 am   BACKBONE|DICT|INTERRES
     7    4    5 1    
     8    4  130 1    
     9    5    6 1    
    10    5   65 1    
    11    5  131 1    
    12    6    7 1    
    13    6  132 1    
    14    6  133 1    
    15    7    8 1    
    16    8    9 1    
    17    8  134 1    
    18    8  135 1    
    19    9   10 ar   
    20    9   14 ar   
    21   10   11 ar   
    22   10  136 1    
    23   11   12 ar   
    24   11  126 1    
    25   12   13 ar   
    26   12  137 1    
    27   13   14 ar   
    28   13   15 1    
    29   14  138 1    
    30   15   16 1    
    31   15  139 1    
    32   15  140 1    
    33   16   17 1    
    34   17   18 1    
    35   17  141 1    
    36   17  142 1    
    37   18   19 1    
    38   18   67 1    
    39   18  143 1    
    40   19   20 am   BACKBONE|DICT|INTERRES
    41   19  144 1    
    42   20   21 2    
    43   20   22 1    
    44   22   23 1    
    45   22   24 1    
    46   22  145 1    
    47   23  146 1    
    48   23  147 1    
    49   23  148 1    
    50   24   25 am   BACKBONE|DICT|INTERRES
    51   24  149 1    
    52   25   26 2    
    53   25   27 1    
    54   27   28 1    
    55   27   29 1    
    56   27  150 1    
    57   28  151 1    
    58   28  152 1    
    59   28  153 1    
    60   29   30 am   BACKBONE|DICT|INTERRES
    61   29  154 1    
    62   30   31 2    
    63   30   32 1    
    64   32   33 1    
    65   32   34 1    
    66   32  155 1    
    67   33  156 1    
    68   33  157 1    
    69   33  158 1    
    70   34   35 am   BACKBONE|DICT|INTERRES
    71   34  159 1    
    72   35   36 2    
    73   35   37 1    
    74   37   38 1    
    75   37   39 1    
    76   37  160 1    
    77   38  161 1    
    78   38  162 1    
    79   38  163 1    
    80   39   40 am   BACKBONE|DICT|INTERRES
    81   39  164 1    
    82   40   41 2    
    83   40   42 1    
    84   42   43 1    
    85   42   44 1    
    86   42  165 1    
    87   43  166 1    
    88   43  167 1    
    89   43  168 1    
    90   44   45 am   BACKBONE|DICT|INTERRES
    91   44  169 1    
    92   45   46 2    
    93   45   47 1    
    94   47   48 1    
    95   47   49 1    
    96   47  170 1    
    97   48  171 1    
    98   48  172 1    
    99   48  173 1    
   100   49   50 am   BACKBONE|DICT|INTERRES
   101   49  174 1    
   102   50   51 2    
   103   50   52 1    
   104   52   53 1    
   105   52   54 1    
   106   52  175 1    
   107   53  176 1    
   108   53  177 1    
   109   53  178 1    
   110   54   55 am   BACKBONE|DICT|INTERRES
   111   54  179 1    
   112   55   56 2    
   113   55   57 1    
   114   57   58 1    
   115   57   59 1    
   116   57  180 1    
   117   58  181 1    
   118   58  182 1    
   119   58  183 1    
   120   59   60 am   BACKBONE|DICT|INTERRES
   121   59  184 1    
   122   60   61 2    
   123   60   62 1    
   124   62   63 1    
   125   62   64 1    
   126   62  185 1    
   127   63  186 1    
   128   63  187 1    
   129   63  188 1    
   130   64   65 am   BACKBONE|DICT|INTERRES
   131   64  189 1    
   132   65   66 2    
   133   67   68 2    
   134   67   69 am   BACKBONE|DICT|INTERRES
   135   69   70 1    
   136   69  190 1    
   137   70   71 1    
   138   70   72 1    
   139   70  191 1    
   140   71  192 1    
   141   71  193 1    
   142   71  194 1    
   143   72   73 2    
   144   72   74 am   BACKBONE|DICT|INTERRES
   145   74   75 1    
   146   74  195 1    
   147   75   76 1    
   148   75   77 1    
   149   75  196 1    
   150   76  197 1    
   151   76  198 1    
   152   76  199 1    
   153   77   78 2    
   154   77   79 am   BACKBONE|DICT|INTERRES
   155   79   80 1    
   156   79  200 1    
   157   80   81 1    
   158   80   82 1    
   159   80  201 1    
   160   81  202 1    
   161   81  203 1    
   162   81  204 1    
   163   82   83 2    
   164   82   84 am   BACKBONE|DICT|INTERRES
   165   84   85 1    
   166   84  205 1    
   167   85   86 1    
   168   85   87 1    
   169   85  206 1    
   170   86  207 1    
   171   86  208 1    
   172   86  209 1    
   173   87   88 2    
   174   87   89 am   BACKBONE|DICT|INTERRES
   175   89   90 1    
   176   89  210 1    
   177   90   91 1    
   178   90   92 1    
   179   90  211 1    
   180   91  212 1    
   181   91  213 1    
   182   91  214 1    
   183   92   93 2    
   184   92   94 am   BACKBONE|DICT|INTERRES
   185   94   95 1    
   186   94  215 1    
   187   95   96 1    
   188   95   97 1    
   189   95  216 1    
   190   96  217 1    
   191   96  218 1    
   192   96  219 1    
   193   97   98 2    
   194   97   99 am   BACKBONE|DICT|INTERRES
   195   99  100 1    
   196   99  220 1    
   197  100  101 1    
   198  100  102 1    
   199  100  221 1    
   200  101  222 1    
   201  101  223 1    
   202  101  224 1    
   203  102  103 2    
   204  102  104 am   BACKBONE|DICT|INTERRES
   205  104  105 1    
   206  104  225 1    
   207  105  106 1    
   208  105  107 1    
   209  105  226 1    
   210  106  227 1    
   211  106  228 1    
   212  106  229 1    
   213  107  108 2    
   214  107  109 am   BACKBONE|DICT|INTERRES
   215  109  110 1    
   216  109  230 1    
   217  110  111 1    
   218  110  112 1    
   219  110  231 1    
   220  111  232 1    
   221  111  233 1    
   222  111  234 1    
   223  112  113 2    
   224  112  114 am   BACKBONE|DICT|INTERRES
   225  114  115 1    
   226  114  235 1    
   227  115  116 1    
   228  115  117 1    
   229  115  236 1    
   230  116  237 1    
   231  116  238 1    
   232  116  239 1    
   233  117  118 2    
   234  117  119 am   BACKBONE|DICT|INTERRES
   235  119  120 1    
   236  119  240 1    
   237  120  121 1    
   238  120  124 1    
   239  120  241 1    
   240  121  122 am   BACKBONE|DICT|INTERRES
   241  121  123 2    
   242  122  242 1    
   243  122  243 1    
   244  124  125 1    
   245  124  244 1    
   246  124  245 1    
   247  125  126 1    
   248  126  246 1    
   249  126  247 1    
@<TRIPOS>SUBSTRUCTURE
     1 UNK         1 GROUP             0       ****    0 ROOT    
