@<TRIPOS>MOLECULE
3R540
247   249    1
SMALL
USER_CHARGES


@<TRIPOS>ATOM
      1 CA          3.0549  -11.9832  -47.7121 C.3       0 UNK        -0.1800 
      2 C           2.0575  -12.3586  -46.6262 C.2       0 UNK         0.5000 
      3 O           2.3929  -12.3173  -45.4435 O.2       0 UNK        -0.5000 
      4 N           0.8256  -12.7035  -47.0197 N.am      1 UNK        -0.5000 
      5 CA         -0.2736  -13.1673  -46.1590 C.3       1 UNK         0.1400 
      6 C6         -1.3040  -14.0102  -46.9596 C.3       23 UNK        -0.0398 
      7 S7         -0.5928  -15.4825  -47.7721 S.3       23 UNK        -0.2404 
      8 C8         -0.3382  -14.8786  -49.4715 C.3       23 UNK        -0.0205 
      9 C9         -0.0199  -15.9944  -50.4600 C.ar      23 UNK        -0.0193 
     10 C10        -0.7454  -16.0907  -51.6522 C.ar      23 UNK        -0.1150 
     11 C11        -0.4245  -17.0609  -52.6049 C.ar      23 UNK        -0.0193 
     12 C12         0.6178  -17.9562  -52.3497 C.ar      23 UNK        -0.1150 
     13 C13         1.3474  -17.8784  -51.1601 C.ar      23 UNK        -0.0193 
     14 C14         1.0287  -16.8913  -50.2216 C.ar      23 UNK        -0.1150 
     15 C15         2.5072  -18.8344  -50.9215 C.3       23 UNK        -0.0205 
     16 S16         1.9437  -20.4882  -50.4126 S.3       23 UNK        -0.2404 
     17 C17         1.6573  -20.2316  -48.6315 C.3       23 UNK        -0.0398 
     18 CA          0.7512  -21.3235  -48.0100 C.3       11 UNK         0.1400 
     19 N           0.9901  -21.4770  -46.5717 N.am      11 UNK        -0.5000 
     20 C           0.5320  -22.4916  -45.8253 C.2       10 UNK         0.5000 
     21 O          -0.0823  -23.4523  -46.2865 O.2       10 UNK        -0.5000 
     22 CA          0.7725  -22.4119  -44.3060 C.3       10 UNK         0.1400 
     23 CB          2.1354  -23.0188  -43.9413 C.3       10 UNK        -0.1800 
     24 N           0.6875  -21.0458  -43.7872 N.am      10 UNK        -0.5000 
     25 C          -0.4347  -20.3122  -43.7547 C.2       9 UNK         0.5000 
     26 O          -1.5375  -20.7381  -44.0952 O.2       9 UNK        -0.5000 
     27 CA         -0.2948  -18.8402  -43.3201 C.3       9 UNK         0.1400 
     28 CB         -0.2805  -18.7174  -41.7898 C.3       9 UNK        -0.1800 
     29 N           0.8952  -18.1933  -43.8754 N.am      9 UNK        -0.5000 
     30 C           1.1374  -18.0401  -45.1852 C.2       8 UNK         0.5000 
     31 O           0.3643  -18.4049  -46.0691 O.2       8 UNK        -0.5000 
     32 CA          2.5056  -17.4556  -45.5723 C.3       8 UNK         0.1400 
     33 CB          2.5213  -15.9273  -45.4349 C.3       8 UNK        -0.1800 
     34 N           3.5784  -18.0359  -44.7658 N.am      8 UNK        -0.5000 
     35 C           4.0139  -19.2973  -44.8916 C.2       7 UNK         0.5000 
     36 O           3.5781  -20.0889  -45.7268 O.2       7 UNK        -0.5000 
     37 CA          5.0887  -19.7631  -43.8925 C.3       7 UNK         0.1400 
     38 CB          6.4873  -19.3377  -44.3634 C.3       7 UNK        -0.1800 
     39 N           4.8565  -19.2567  -42.5392 N.am      7 UNK        -0.5000 
     40 C           3.8187  -19.6104  -41.7681 C.2       6 UNK         0.5000 
     41 O           2.9661  -20.4302  -42.1049 O.2       6 UNK        -0.5000 
     42 CA          3.6841  -18.8931  -40.4121 C.3       6 UNK         0.1400 
     43 CB          4.4867  -19.6310  -39.3304 C.3       6 UNK        -0.1800 
     44 N           4.0939  -17.4856  -40.4471 N.am      6 UNK        -0.5000 
     45 C           3.5350  -16.5437  -41.2192 C.2       5 UNK         0.5000 
     46 O           2.6316  -16.7760  -42.0236 O.2       5 UNK        -0.5000 
     47 CA          4.1083  -15.1227  -41.0755 C.3       5 UNK         0.1400 
     48 CB          4.6953  -14.6003  -42.4021 C.3       5 UNK        -0.1800 
     49 N           3.1408  -14.1895  -40.4889 N.am      5 UNK        -0.5000 
     50 C           2.0188  -13.6901  -41.0279 C.2       4 UNK         0.5000 
     51 O           1.6243  -13.9081  -42.1767 O.2       4 UNK        -0.5000 
     52 CA          1.2067  -12.7561  -40.1158 C.3       4 UNK         0.1400 
     53 CB          1.9908  -11.4691  -39.7870 C.3       4 UNK        -0.1800 
     54 N          -0.0369  -12.4115  -40.7923 N.am      4 UNK        -0.5000 
     55 C          -1.1418  -11.9124  -40.2298 C.2       3 UNK         0.5000 
     56 O          -1.2695  -11.7436  -39.0154 O.2       3 UNK        -0.5000 
     57 CA         -2.2873  -11.5336  -41.1971 C.3       3 UNK         0.1400 
     58 CB         -3.2754  -10.5178  -40.5869 C.3       3 UNK        -0.1800 
     59 N          -1.8122  -11.0665  -42.5079 N.am      3 UNK        -0.5000 
     60 C          -1.0034  -10.0268  -42.7641 C.2       2 UNK         0.5000 
     61 O          -0.5582   -9.2765  -41.8937 O.2       2 UNK        -0.5000 
     62 CA         -0.6144   -9.8088  -44.2433 C.3       2 UNK         0.1400 
     63 CB          0.4872   -8.7473  -44.4178 C.3       2 UNK        -0.1800 
     64 N          -0.1734  -11.0414  -44.9018 N.am      2 UNK        -0.5000 
     65 C          -0.9602  -12.0014  -45.4016 C.2       1 UNK         0.5000 
     66 O          -2.1865  -11.9781  -45.2794 O.2       1 UNK        -0.5000 
     67 C          -0.7400  -21.0658  -48.3150 C.2       11 UNK         0.5000 
     68 O          -1.2787  -21.6560  -49.2487 O.2       11 UNK        -0.5000 
     69 N          -1.3781  -20.2118  -47.5032 N.am      12 UNK        -0.5000 
     70 CA         -2.7836  -19.8211  -47.6168 C.3       12 UNK         0.1400 
     71 CB         -2.9854  -18.5048  -46.8523 C.3       12 UNK        -0.1800 
     72 C          -3.7863  -20.8795  -47.1151 C.2       12 UNK         0.5000 
     73 O          -4.9809  -20.7385  -47.3862 O.2       12 UNK        -0.5000 
     74 N          -3.3134  -21.8997  -46.3866 N.am      13 UNK        -0.5000 
     75 CA         -4.1250  -22.9567  -45.7776 C.3       13 UNK         0.1400 
     76 CB         -3.2080  -23.9133  -45.0021 C.3       13 UNK        -0.1800 
     77 C          -4.9734  -23.7394  -46.7987 C.2       13 UNK         0.5000 
     78 O          -4.5121  -23.9938  -47.9133 O.2       13 UNK        -0.5000 
     79 N          -6.1986  -24.1036  -46.3915 N.am      14 UNK        -0.5000 
     80 CA         -7.2085  -24.8245  -47.1792 C.3       14 UNK         0.1400 
     81 CB         -6.7649  -26.2827  -47.4222 C.3       14 UNK        -0.1800 
     82 C          -7.5893  -24.0856  -48.4808 C.2       14 UNK         0.5000 
     83 O          -7.6693  -24.7044  -49.5433 O.2       14 UNK        -0.5000 
     84 N          -7.7746  -22.7599  -48.3716 N.am      15 UNK        -0.5000 
     85 CA         -8.0286  -21.8138  -49.4665 C.3       15 UNK         0.1400 
     86 CB         -9.4207  -22.0539  -50.0882 C.3       15 UNK        -0.1800 
     87 C          -6.8910  -21.8318  -50.5077 C.2       15 UNK         0.5000 
     88 O          -7.1403  -21.9773  -51.7047 O.2       15 UNK        -0.5000 
     89 N          -5.6531  -21.7410  -50.0052 N.am      16 UNK        -0.5000 
     90 CA         -4.3864  -21.8786  -50.7263 C.3       16 UNK         0.1400 
     91 CB         -4.1402  -20.6560  -51.6309 C.3       16 UNK        -0.1800 
     92 C          -4.2667  -23.2267  -51.4638 C.2       16 UNK         0.5000 
     93 O          -3.9219  -23.2581  -52.6457 O.2       16 UNK        -0.5000 
     94 N          -4.5976  -24.3130  -50.7504 N.am      17 UNK        -0.5000 
     95 CA         -4.7046  -25.6940  -51.2310 C.3       17 UNK         0.1400 
     96 CB         -3.3040  -26.2598  -51.5459 C.3       17 UNK        -0.1800 
     97 C          -5.6878  -25.8223  -52.4142 C.2       17 UNK         0.5000 
     98 O          -5.3386  -26.3886  -53.4496 O.2       17 UNK        -0.5000 
     99 N          -6.8852  -25.2388  -52.2560 N.am      18 UNK        -0.5000 
    100 CA        -7.9178  -25.0559  -53.2844 C.3       18 UNK         0.1400 
    101 CB        -8.5727  -26.4050  -53.6452 C.3       18 UNK        -0.1800 
    102 C         -7.3807  -24.2889  -54.5148 C.2       18 UNK         0.5000 
    103 O         -7.5650  -24.7189  -55.6546 O.2       18 UNK        -0.5000 
    104 N         -6.6823  -23.1816  -54.2322 N.am      19 UNK        -0.5000 
    105 CA        -5.9695  -22.2743  -55.1365 C.3       19 UNK         0.1400 
    106 CB        -6.9384  -21.6273  -56.1465 C.3       19 UNK        -0.1800 
    107 C         -4.7240  -22.8664  -55.8330 C.2       19 UNK         0.5000 
    108 O         -4.0785  -22.1436  -56.5939 O.2       19 UNK        -0.5000 
    109 N         -4.3715  -24.1335  -55.5671 N.am      20 UNK        -0.5000 
    110 CA        -3.2332  -24.8176  -56.1849 C.3       20 UNK         0.1400 
    111 CB        -3.3118  -26.3253  -55.9087 C.3       20 UNK        -0.1800 
    112 C         -1.8668  -24.2645  -55.7427 C.2       20 UNK         0.5000 
    113 O         -0.9363  -24.2581  -56.5503 O.2       20 UNK        -0.5000 
    114 N         -1.7637  -23.7748  -54.4971 N.am      21 UNK        -0.5000 
    115 CA        -0.5395  -23.1724  -53.9546 C.3       21 UNK         0.1400 
    116 CB        -0.6594  -23.0312  -52.4299 C.3       21 UNK        -0.1800 
    117 C         -0.1994  -21.8158  -54.6035 C.2       21 UNK         0.5000 
    118 O          0.9612  -21.4049  -54.5778 O.2       21 UNK        -0.5000 
    119 N         -1.2087  -21.1686  -55.1973 N.am      22 UNK        -0.5000 
    120 CA        -1.0839  -19.9409  -55.9936 C.3       22 UNK         0.1400 
    121 C         -0.8851  -20.2088  -57.5154 C.2       22 UNK         0.5000 
    122 N         -0.7720  -21.4506  -57.9751 N.am      22 UNK        -0.7600 
    123 O         -0.8081  -19.2670  -58.2997 O.2       22 UNK        -0.5000 
    124 C124       -2.2633  -18.9683  -55.7271 C.3       23 UNK        -0.0398 
    125 S125       -2.3686  -18.4791  -53.9713 S.3       23 UNK        -0.2404 
    126 C126       -1.1657  -17.1159  -53.9314 C.3       23 UNK        -0.0205 
    127 H127        2.6206  -12.0669  -48.7087 H         1 UNK         0.0600 
    128 H128        3.9237  -12.6397  -47.6640 H         1 UNK         0.0600 
    129 H129        3.3931  -10.9565  -47.5724 H         1 UNK         0.0600 
    130 H130        0.6062  -12.6649  -48.0034 H         1 UNK         0.3000 
    131 H131        0.1516  -13.8151  -45.3893 H         1 UNK         0.0600 
    132 H132       -2.0854  -14.3784  -46.2922 H         1 UNK         0.0800 
    133 H133       -1.8139  -13.3931  -47.7011 H         1 UNK         0.0800 
    134 H134       -1.2301  -14.3377  -49.7916 H         1 UNK         0.0800 
    135 H135        0.4835  -14.1623  -49.4822 H         1 UNK         0.0800 
    136 H136       -1.5455  -15.3921  -51.8532 H         1 UNK         0.1150 
    137 H137        0.8681  -18.7101  -53.0839 H         1 UNK         0.1150 
    138 H138        1.6013  -16.8122  -49.3081 H         1 UNK         0.1150 
    139 H139        3.0829  -18.9325  -51.8430 H         1 UNK         0.0800 
    140 H140        3.1964  -18.4333  -50.1765 H         1 UNK         0.0800 
    141 H141        1.2539  -19.2331  -48.4564 H         1 UNK         0.0800 
    142 H142        2.6394  -20.2460  -48.1589 H         1 UNK         0.0800 
    143 H143        1.0145  -22.2803  -48.4667 H         1 UNK         0.0600 
    144 H144        1.5274  -20.7464  -46.1211 H         1 UNK         0.3000 
    145 H145       -0.0034  -23.0049  -43.8173 H         1 UNK         0.0600 
    146 H146        2.2191  -24.0422  -44.3091 H         1 UNK         0.0600 
    147 H147        2.9587  -22.4466  -44.3697 H         1 UNK         0.0600 
    148 H148        2.2760  -23.0496  -42.8608 H         1 UNK         0.0600 
    149 H149        1.5449  -20.6478  -43.4151 H         1 UNK         0.3000 
    150 H150       -1.1658  -18.2996  -43.6961 H         1 UNK         0.0600 
    151 H151       -1.1919  -19.1321  -41.3575 H         1 UNK         0.0600 
    152 H152       -0.2151  -17.6748  -41.4776 H         1 UNK         0.0600 
    153 H153        0.5622  -19.2515  -41.3518 H         1 UNK         0.0600 
    154 H154        1.5707  -17.8247  -43.2103 H         1 UNK         0.3000 
    155 H155        2.6943  -17.7006  -46.6199 H         1 UNK         0.0600 
    156 H156        1.8330  -15.4723  -46.1449 H         1 UNK         0.0600 
    157 H157        3.5101  -15.5169  -45.6395 H         1 UNK         0.0600 
    158 H158        2.2206  -15.6030  -44.4383 H         1 UNK         0.0600 
    159 H159        3.9340  -17.4694  -44.0101 H         1 UNK         0.3000 
    160 H160        5.0579  -20.8542  -43.8565 H         1 UNK         0.0600 
    161 H161        6.5908  -18.2524  -44.3951 H         1 UNK         0.0600 
    162 H162        6.6931  -19.7167  -45.3654 H         1 UNK         0.0600 
    163 H163        7.2615  -19.7301  -43.7038 H         1 UNK         0.0600 
    164 H164        5.5114  -18.5759  -42.1842 H         1 UNK         0.3000 
    165 H165        2.6301  -18.9212  -40.1295 H         1 UNK         0.0600 
    166 H166        4.3230  -19.1896  -38.3471 H         1 UNK         0.0600 
    167 H167        4.1870  -20.6782  -39.2684 H         1 UNK         0.0600 
    168 H168        5.5576  -19.6077  -39.5360 H         1 UNK         0.0600 
    169 H169        4.8349  -17.2221  -39.8135 H         1 UNK         0.3000 
    170 H170        4.9351  -15.1677  -40.3648 H         1 UNK         0.0600 
    171 H171        5.4735  -15.2685  -42.7724 H         1 UNK         0.0600 
    172 H172        3.9423  -14.5174  -43.1849 H         1 UNK         0.0600 
    173 H173        5.1464  -13.6168  -42.2711 H         1 UNK         0.0600 
    174 H174        3.3399  -13.9365  -39.5311 H         1 UNK         0.3000 
    175 H175        0.9757  -13.2956  -39.1951 H         1 UNK         0.0600 
    176 H176        1.4165  -10.8075  -39.1385 H         1 UNK         0.0600 
    177 H177        2.9245  -11.6901  -39.2694 H         1 UNK         0.0600 
    178 H178        2.2389  -10.9125  -40.6919 H         1 UNK         0.0600 
    179 H179       -0.0150  -12.5819  -41.7902 H         1 UNK         0.3000 
    180 H180       -2.8386  -12.4559  -41.3847 H         1 UNK         0.0600 
    181 H181       -2.7806   -9.5847  -40.3159 H         1 UNK         0.0600 
    182 H182       -3.7396  -10.9160  -39.6839 H         1 UNK         0.0600 
    183 H183       -4.0786  -10.2812  -41.2846 H         1 UNK         0.0600 
    184 H184       -2.1269  -11.6023  -43.3106 H         1 UNK         0.3000 
    185 H185       -1.5078   -9.4422  -44.7529 H         1 UNK         0.0600 
    186 H186        0.1797   -7.7876  -44.0003 H         1 UNK         0.0600 
    187 H187        1.4117   -9.0436  -43.9206 H         1 UNK         0.0600 
    188 H188        0.7119   -8.5823  -45.4717 H         1 UNK         0.0600 
    189 H189        0.8289  -11.1822  -44.9819 H         1 UNK         0.3000 
    190 H190       -0.8337  -19.7254  -46.7954 H         1 UNK         0.3000 
    191 H191       -3.0038  -19.6390  -48.6706 H         1 UNK         0.0600 
    192 H192       -2.3462  -17.7202  -47.2528 H         1 UNK         0.0600 
    193 H193       -4.0153  -18.1545  -46.9310 H         1 UNK         0.0600 
    194 H194       -2.7534  -18.6170  -45.7925 H         1 UNK         0.0600 
    195 H195       -2.3205  -21.9303  -46.2031 H         1 UNK         0.3000 
    196 H196       -4.7961  -22.4716  -45.0662 H         1 UNK         0.0600 
    197 H197       -3.7889  -24.6703  -44.4738 H         1 UNK         0.0600 
    198 H198       -2.6158  -23.3801  -44.2583 H         1 UNK         0.0600 
    199 H199       -2.5209  -24.4354  -45.6689 H         1 UNK         0.0600 
    200 H200       -6.4860  -23.8471  -45.4570 H         1 UNK         0.3000 
    201 H201       -8.1146  -24.8541  -46.5725 H         1 UNK         0.0600 
    202 H202       -6.5449  -26.7883  -46.4821 H         1 UNK         0.0600 
    203 H203       -5.8736  -26.3384  -48.0473 H         1 UNK         0.0600 
    204 H204       -7.5497  -26.8533  -47.9201 H         1 UNK         0.0600 
    205 H205       -7.6498  -22.3438  -47.4593 H         1 UNK         0.3000 
    206 H206       -8.0289  -20.8158  -49.0259 H         1 UNK         0.0600 
    207 H207      -10.2023  -22.0172  -49.3296 H         1 UNK         0.0600 
    208 H208       -9.6521  -21.2888  -50.8301 H         1 UNK         0.0600 
    209 H209       -9.4840  -23.0209  -50.5881 H         1 UNK         0.0600 
    210 H210       -5.5599  -21.6083  -49.0020 H         1 UNK         0.3000 
    211 H211       -3.6149  -21.8912  -49.9622 H         1 UNK         0.0600 
    212 H212       -4.8871  -20.5748  -52.4196 H         1 UNK         0.0600 
    213 H213       -3.1630  -20.7163  -52.1094 H         1 UNK         0.0600 
    214 H214       -4.1593  -19.7305  -51.0559 H         1 UNK         0.0600 
    215 H215       -4.8068  -24.1782  -49.7636 H         1 UNK         0.3000 
    216 H216       -5.1258  -26.2777  -50.4119 H         1 UNK         0.0600 
    217 H217       -3.3598  -27.3174  -51.8056 H         1 UNK         0.0600 
    218 H218       -2.6415  -26.1706  -50.6850 H         1 UNK         0.0600 
    219 H219       -2.8352  -25.7424  -52.3833 H         1 UNK         0.0600 
    220 H220       -7.0961  -24.8330  -51.3467 H         1 UNK         0.3000 
    221 H221       -8.6861  -24.4228  -52.8379 H         1 UNK         0.0600 
    222 H222       -7.8691  -27.0818  -54.1307 H         1 UNK         0.0600 
    223 H223       -8.9594  -26.9040  -52.7566 H         1 UNK         0.0600 
    224 H224       -9.4112  -26.2608  -54.3274 H         1 UNK         0.0600 
    225 H225       -6.6341  -22.9096  -53.2522 H         1 UNK         0.3000 
    226 H226       -5.5901  -21.4763  -54.4982 H         1 UNK         0.0600 
    227 H227       -7.7928  -21.1777  -55.6406 H         1 UNK         0.0600 
    228 H228       -6.4443  -20.8355  -56.7105 H         1 UNK         0.0600 
    229 H229       -7.3164  -22.3516  -56.8682 H         1 UNK         0.0600 
    230 H230       -4.9118  -24.6623  -54.8936 H         1 UNK         0.3000 
    231 H231       -3.3120  -24.6733  -57.2645 H         1 UNK         0.0600 
    232 H232       -3.1421  -26.5502  -54.8556 H         1 UNK         0.0600 
    233 H233       -2.5553  -26.8640  -56.4805 H         1 UNK         0.0600 
    234 H234       -4.2839  -26.7316  -56.1892 H         1 UNK         0.0600 
    235 H235       -2.5882  -23.7513  -53.8998 H         1 UNK         0.3000 
    236 H236        0.2889  -23.8525  -54.1634 H         1 UNK         0.0600 
    237 H237       -0.9255  -23.9776  -51.9592 H         1 UNK         0.0600 
    238 H238        0.2858  -22.7053  -51.9945 H         1 UNK         0.0600 
    239 H239       -1.4108  -22.2935  -52.1512 H         1 UNK         0.0600 
    240 H240       -2.1230  -21.5987  -55.1949 H         1 UNK         0.3000 
    241 H241       -0.1726  -19.4258  -55.6864 H         1 UNK         0.0600 
    242 H242       -0.6374  -21.5986  -58.9627 H         1 UNK         0.3800 
    243 H243       -0.8188  -22.2475  -57.3538 H         1 UNK         0.3800 
    244 H244       -2.1760  -18.0654  -56.3339 H         1 UNK         0.0800 
    245 H245       -3.2081  -19.4347  -56.0114 H         1 UNK         0.0800 
    246 H246       -1.6858  -16.1768  -54.1259 H         1 UNK         0.0800 
    247 H247       -0.4354  -17.2292  -54.7335 H         1 UNK         0.0800 
@<TRIPOS>BOND
     1    1    2 1    
     2    1  127 1    
     3    1  128 1    
     4    1  129 1    
     5    2    3 2    
     6    2    4 am   BACKBONE|DICT|INTERRES
     7    4    5 1    
     8    4  130 1    
     9    5    6 1    
    10    5   65 1    
    11    5  131 1    
    12    6    7 1    
    13    6  132 1    
    14    6  133 1    
    15    7    8 1    
    16    8    9 1    
    17    8  134 1    
    18    8  135 1    
    19    9   10 ar   
    20    9   14 ar   
    21   10   11 ar   
    22   10  136 1    
    23   11   12 ar   
    24   11  126 1    
    25   12   13 ar   
    26   12  137 1    
    27   13   14 ar   
    28   13   15 1    
    29   14  138 1    
    30   15   16 1    
    31   15  139 1    
    32   15  140 1    
    33   16   17 1    
    34   17   18 1    
    35   17  141 1    
    36   17  142 1    
    37   18   19 1    
    38   18   67 1    
    39   18  143 1    
    40   19   20 am   BACKBONE|DICT|INTERRES
    41   19  144 1    
    42   20   21 2    
    43   20   22 1    
    44   22   23 1    
    45   22   24 1    
    46   22  145 1    
    47   23  146 1    
    48   23  147 1    
    49   23  148 1    
    50   24   25 am   BACKBONE|DICT|INTERRES
    51   24  149 1    
    52   25   26 2    
    53   25   27 1    
    54   27   28 1    
    55   27   29 1    
    56   27  150 1    
    57   28  151 1    
    58   28  152 1    
    59   28  153 1    
    60   29   30 am   BACKBONE|DICT|INTERRES
    61   29  154 1    
    62   30   31 2    
    63   30   32 1    
    64   32   33 1    
    65   32   34 1    
    66   32  155 1    
    67   33  156 1    
    68   33  157 1    
    69   33  158 1    
    70   34   35 am   BACKBONE|DICT|INTERRES
    71   34  159 1    
    72   35   36 2    
    73   35   37 1    
    74   37   38 1    
    75   37   39 1    
    76   37  160 1    
    77   38  161 1    
    78   38  162 1    
    79   38  163 1    
    80   39   40 am   BACKBONE|DICT|INTERRES
    81   39  164 1    
    82   40   41 2    
    83   40   42 1    
    84   42   43 1    
    85   42   44 1    
    86   42  165 1    
    87   43  166 1    
    88   43  167 1    
    89   43  168 1    
    90   44   45 am   BACKBONE|DICT|INTERRES
    91   44  169 1    
    92   45   46 2    
    93   45   47 1    
    94   47   48 1    
    95   47   49 1    
    96   47  170 1    
    97   48  171 1    
    98   48  172 1    
    99   48  173 1    
   100   49   50 am   BACKBONE|DICT|INTERRES
   101   49  174 1    
   102   50   51 2    
   103   50   52 1    
   104   52   53 1    
   105   52   54 1    
   106   52  175 1    
   107   53  176 1    
   108   53  177 1    
   109   53  178 1    
   110   54   55 am   BACKBONE|DICT|INTERRES
   111   54  179 1    
   112   55   56 2    
   113   55   57 1    
   114   57   58 1    
   115   57   59 1    
   116   57  180 1    
   117   58  181 1    
   118   58  182 1    
   119   58  183 1    
   120   59   60 am   BACKBONE|DICT|INTERRES
   121   59  184 1    
   122   60   61 2    
   123   60   62 1    
   124   62   63 1    
   125   62   64 1    
   126   62  185 1    
   127   63  186 1    
   128   63  187 1    
   129   63  188 1    
   130   64   65 am   BACKBONE|DICT|INTERRES
   131   64  189 1    
   132   65   66 2    
   133   67   68 2    
   134   67   69 am   BACKBONE|DICT|INTERRES
   135   69   70 1    
   136   69  190 1    
   137   70   71 1    
   138   70   72 1    
   139   70  191 1    
   140   71  192 1    
   141   71  193 1    
   142   71  194 1    
   143   72   73 2    
   144   72   74 am   BACKBONE|DICT|INTERRES
   145   74   75 1    
   146   74  195 1    
   147   75   76 1    
   148   75   77 1    
   149   75  196 1    
   150   76  197 1    
   151   76  198 1    
   152   76  199 1    
   153   77   78 2    
   154   77   79 am   BACKBONE|DICT|INTERRES
   155   79   80 1    
   156   79  200 1    
   157   80   81 1    
   158   80   82 1    
   159   80  201 1    
   160   81  202 1    
   161   81  203 1    
   162   81  204 1    
   163   82   83 2    
   164   82   84 am   BACKBONE|DICT|INTERRES
   165   84   85 1    
   166   84  205 1    
   167   85   86 1    
   168   85   87 1    
   169   85  206 1    
   170   86  207 1    
   171   86  208 1    
   172   86  209 1    
   173   87   88 2    
   174   87   89 am   BACKBONE|DICT|INTERRES
   175   89   90 1    
   176   89  210 1    
   177   90   91 1    
   178   90   92 1    
   179   90  211 1    
   180   91  212 1    
   181   91  213 1    
   182   91  214 1    
   183   92   93 2    
   184   92   94 am   BACKBONE|DICT|INTERRES
   185   94   95 1    
   186   94  215 1    
   187   95   96 1    
   188   95   97 1    
   189   95  216 1    
   190   96  217 1    
   191   96  218 1    
   192   96  219 1    
   193   97   98 2    
   194   97   99 am   BACKBONE|DICT|INTERRES
   195   99  100 1    
   196   99  220 1    
   197  100  101 1    
   198  100  102 1    
   199  100  221 1    
   200  101  222 1    
   201  101  223 1    
   202  101  224 1    
   203  102  103 2    
   204  102  104 am   BACKBONE|DICT|INTERRES
   205  104  105 1    
   206  104  225 1    
   207  105  106 1    
   208  105  107 1    
   209  105  226 1    
   210  106  227 1    
   211  106  228 1    
   212  106  229 1    
   213  107  108 2    
   214  107  109 am   BACKBONE|DICT|INTERRES
   215  109  110 1    
   216  109  230 1    
   217  110  111 1    
   218  110  112 1    
   219  110  231 1    
   220  111  232 1    
   221  111  233 1    
   222  111  234 1    
   223  112  113 2    
   224  112  114 am   BACKBONE|DICT|INTERRES
   225  114  115 1    
   226  114  235 1    
   227  115  116 1    
   228  115  117 1    
   229  115  236 1    
   230  116  237 1    
   231  116  238 1    
   232  116  239 1    
   233  117  118 2    
   234  117  119 am   BACKBONE|DICT|INTERRES
   235  119  120 1    
   236  119  240 1    
   237  120  121 1    
   238  120  124 1    
   239  120  241 1    
   240  121  122 am   BACKBONE|DICT|INTERRES
   241  121  123 2    
   242  122  242 1    
   243  122  243 1    
   244  124  125 1    
   245  124  244 1    
   246  124  245 1    
   247  125  126 1    
   248  126  246 1    
   249  126  247 1    
@<TRIPOS>SUBSTRUCTURE
     1 UNK         1 GROUP             0       ****    0 ROOT    
