@<TRIPOS>MOLECULE
3R540
247   249    1
SMALL
USER_CHARGES


@<TRIPOS>ATOM
      1 CA          2.4383   -9.6790  -47.3007 C.3       0 UNK        -0.1800 
      2 C           1.2822  -10.4198  -46.6464 C.2       0 UNK         0.5000 
      3 O           1.2176  -10.4942  -45.4201 O.2       0 UNK        -0.5000 
      4 N           0.3557  -10.9517  -47.4539 N.am      1 UNK        -0.5000 
      5 CA         -0.8045  -11.7494  -47.0252 C.3       1 UNK         0.1400 
      6 C6         -1.5738  -12.3361  -48.2337 C.3       23 UNK        -0.0398 
      7 S7         -0.5283  -13.4175  -49.2694 S.3       23 UNK        -0.2404 
      8 C8         -1.5501  -14.9193  -49.3485 C.3       23 UNK        -0.0205 
      9 C9         -0.8842  -15.9975  -50.1883 C.ar      23 UNK        -0.0193 
     10 C10        -1.0092  -15.9868  -51.5793 C.ar      23 UNK        -0.1150 
     11 C11        -0.4170  -16.9877  -52.3569 C.ar      23 UNK        -0.0193 
     12 C12         0.3139  -18.0025  -51.7279 C.ar      23 UNK        -0.1150 
     13 C13         0.4581  -18.0158  -50.3358 C.ar      23 UNK        -0.0193 
     14 C14        -0.1453  -17.0107  -49.5752 C.ar      23 UNK        -0.1150 
     15 C15         1.2971  -19.0882  -49.6527 C.3       23 UNK        -0.0205 
     16 S16         0.4608  -20.7039  -49.5842 S.3       23 UNK        -0.2404 
     17 C17        -0.9517  -20.3725  -48.4806 C.3       23 UNK        -0.0398 
     18 CA         -1.3317  -21.6228  -47.6454 C.3       11 UNK         0.1400 
     19 N          -0.5091  -21.7841  -46.4399 N.am      11 UNK        -0.5000 
     20 C          -0.5627  -22.8472  -45.6219 C.2       10 UNK         0.5000 
     21 O          -1.2761  -23.8290  -45.8218 O.2       10 UNK        -0.5000 
     22 CA          0.2657  -22.7858  -44.3277 C.3       10 UNK         0.1400 
     23 CB          1.7511  -23.0588  -44.6064 C.3       10 UNK        -0.1800 
     24 N           0.1052  -21.5142  -43.6225 N.am      10 UNK        -0.5000 
     25 C          -1.0541  -21.0694  -43.1145 C.2       9 UNK         0.5000 
     26 O          -2.1020  -21.7146  -43.1368 O.2       9 UNK        -0.5000 
     27 CA         -1.0597  -19.6430  -42.5333 C.3       9 UNK         0.1400 
     28 CB         -0.4939  -19.6245  -41.1059 C.3       9 UNK        -0.1800 
     29 N          -0.3182  -18.6982  -43.3677 N.am      9 UNK        -0.5000 
     30 C          -0.6415  -18.3819  -44.6295 C.2       8 UNK         0.5000 
     31 O          -1.6414  -18.8019  -45.2106 O.2       8 UNK        -0.5000 
     32 CA          0.3574  -17.5005  -45.3944 C.3       8 UNK         0.1400 
     33 CB          0.1408  -16.0097  -45.0922 C.3       8 UNK        -0.1800 
     34 N           1.7433  -17.8811  -45.1202 N.am      8 UNK        -0.5000 
     35 C           2.2955  -19.0316  -45.5323 C.2       7 UNK         0.5000 
     36 O           1.6979  -19.8683  -46.2084 O.2       7 UNK        -0.5000 
     37 CA          3.7410  -19.3099  -45.0821 C.3       7 UNK         0.1400 
     38 CB          4.7399  -18.5877  -45.9982 C.3       7 UNK        -0.1800 
     39 N           3.9814  -18.9172  -43.6926 N.am      7 UNK        -0.5000 
     40 C           3.4170  -19.5092  -42.6299 C.2       6 UNK         0.5000 
     41 O           2.6710  -20.4838  -42.7090 O.2       6 UNK        -0.5000 
     42 CA          3.6857  -18.8699  -41.2528 C.3       6 UNK         0.1400 
     43 CB          4.9687  -19.4428  -40.6330 C.3       6 UNK        -0.1800 
     44 N           3.7770  -17.4064  -41.2974 N.am      6 UNK        -0.5000 
     45 C           2.7976  -16.5983  -41.7232 C.2       5 UNK         0.5000 
     46 O           1.6974  -17.0066  -42.1105 O.2       5 UNK        -0.5000 
     47 CA          3.1144  -15.0965  -41.7804 C.3       5 UNK         0.1400 
     48 CB          4.2295  -14.8109  -42.8080 C.3       5 UNK        -0.1800 
     49 N           1.8891  -14.4078  -42.1654 N.am      5 UNK        -0.5000 
     50 C           1.6507  -13.0954  -42.1301 C.2       4 UNK         0.5000 
     51 O           2.4620  -12.2645  -41.7143 O.2       4 UNK        -0.5000 
     52 CA          0.2810  -12.6683  -42.6949 C.3       4 UNK         0.1400 
     53 CB         -0.8984  -13.2460  -41.8844 C.3       4 UNK        -0.1800 
     54 N           0.1578  -11.2211  -42.8738 N.am      4 UNK        -0.5000 
     55 C           0.0319  -10.2599  -41.9472 C.2       3 UNK         0.5000 
     56 O          -0.0625  -10.4589  -40.7353 O.2       3 UNK        -0.5000 
     57 CA         -0.0216   -8.8174  -42.4831 C.3       3 UNK         0.1400 
     58 CB          1.3952   -8.2411  -42.6328 C.3       3 UNK        -0.1800 
     59 N          -0.7077   -8.7528  -43.7753 N.am      3 UNK        -0.5000 
     60 C          -2.0370   -8.6636  -43.9220 C.2       2 UNK         0.5000 
     61 O          -2.8216   -8.5268  -42.9825 O.2       2 UNK        -0.5000 
     62 CA         -2.5874   -8.7507  -45.3595 C.3       2 UNK         0.1400 
     63 CB         -2.6400   -7.3562  -46.0023 C.3       2 UNK        -0.1800 
     64 N          -1.8067   -9.6449  -46.2168 N.am      2 UNK        -0.5000 
     65 C          -1.7744  -10.9808  -46.0986 C.2       1 UNK         0.5000 
     66 O          -2.4561  -11.6091  -45.2887 O.2       1 UNK        -0.5000 
     67 C          -2.8399  -21.6408  -47.3258 C.2       11 UNK         0.5000 
     68 O          -3.5856  -22.3394  -48.0098 O.2       11 UNK        -0.5000 
     69 N          -3.2624  -20.9193  -46.2788 N.am      12 UNK        -0.5000 
     70 CA         -4.6507  -20.8858  -45.8140 C.3       12 UNK         0.1400 
     71 CB         -4.7990  -19.8241  -44.7138 C.3       12 UNK        -0.1800 
     72 C          -5.1659  -22.2549  -45.3271 C.2       12 UNK         0.5000 
     73 O          -6.3160  -22.5995  -45.6016 O.2       12 UNK        -0.5000 
     74 N          -4.3094  -23.0098  -44.6264 N.am      13 UNK        -0.5000 
     75 CA         -4.6102  -24.3474  -44.1200 C.3       13 UNK         0.1400 
     76 CB         -3.5841  -24.7260  -43.0403 C.3       13 UNK        -0.1800 
     77 C          -4.6514  -25.4126  -45.2310 C.2       13 UNK         0.5000 
     78 O          -5.5929  -26.2057  -45.2765 O.2       13 UNK        -0.5000 
     79 N          -3.6238  -25.4280  -46.0896 N.am      14 UNK        -0.5000 
     80 CA         -3.4426  -26.4261  -47.1453 C.3       14 UNK         0.1400 
     81 CB         -1.9641  -26.4483  -47.5497 C.3       14 UNK        -0.1800 
     82 C          -4.3299  -26.1872  -48.3792 C.2       14 UNK         0.5000 
     83 O          -4.6798  -27.1511  -49.0626 O.2       14 UNK        -0.5000 
     84 N          -4.6696  -24.9191  -48.6494 N.am      15 UNK        -0.5000 
     85 CA         -5.4815  -24.4442  -49.7689 C.3       15 UNK         0.1400 
     86 CB         -6.9560  -24.8670  -49.5814 C.3       15 UNK        -0.1800 
     87 C          -4.8661  -24.8484  -51.1258 C.2       15 UNK         0.5000 
     88 O          -3.7373  -24.4500  -51.4268 O.2       15 UNK        -0.5000 
     89 N          -5.5967  -25.6472  -51.9141 N.am      16 UNK        -0.5000 
     90 CA         -5.1923  -26.1444  -53.2297 C.3       16 UNK         0.1400 
     91 CB         -6.3561  -26.9328  -53.8478 C.3       16 UNK        -0.1800 
     92 C          -3.9094  -26.9980  -53.2155 C.2       16 UNK         0.5000 
     93 O          -3.1848  -26.9977  -54.2102 O.2       16 UNK        -0.5000 
     94 N          -3.6160  -27.6659  -52.0892 N.am      17 UNK        -0.5000 
     95 CA         -2.4036  -28.4696  -51.9035 C.3       17 UNK         0.1400 
     96 CB         -2.5637  -29.3626  -50.6643 C.3       17 UNK        -0.1800 
     97 C          -1.1130  -27.6277  -51.8174 C.2       17 UNK         0.5000 
     98 O          -0.0384  -28.1484  -52.1176 O.2       17 UNK        -0.5000 
     99 N          -1.2397  -26.3465  -51.4437 N.am      18 UNK        -0.5000 
    100 CA        -0.1573  -25.3576  -51.4570 C.3       18 UNK         0.1400 
    101 CB        -0.1884  -24.5729  -50.1372 C.3       18 UNK        -0.1800 
    102 C         -0.2594  -24.4020  -52.6624 C.2       18 UNK         0.5000 
    103 O          0.5587  -23.4886  -52.7741 O.2       18 UNK        -0.5000 
    104 N         -1.2584  -24.6180  -53.5326 N.am      19 UNK        -0.5000 
    105 CA        -1.6290  -23.7922  -54.6840 C.3       19 UNK         0.1400 
    106 CB        -0.5346  -23.8317  -55.7708 C.3       19 UNK        -0.1800 
    107 C         -2.0357  -22.3583  -54.2833 C.2       19 UNK         0.5000 
    108 O         -1.7207  -21.4041  -54.9961 O.2       19 UNK        -0.5000 
    109 N         -2.7686  -22.2285  -53.1660 N.am      20 UNK        -0.5000 
    110 CA        -3.2296  -20.9544  -52.5966 C.3       20 UNK         0.1400 
    111 CB        -3.7156  -21.1951  -51.1621 C.3       20 UNK        -0.1800 
    112 C         -4.3090  -20.2245  -53.4285 C.2       20 UNK         0.5000 
    113 O         -4.7296  -19.1322  -53.0475 O.2       20 UNK        -0.5000 
    114 N         -4.7277  -20.8181  -54.5553 N.am      21 UNK        -0.5000 
    115 CA        -5.4622  -20.1468  -55.6295 C.3       21 UNK         0.1400 
    116 CB        -6.0341  -21.2105  -56.5791 C.3       21 UNK        -0.1800 
    117 C         -4.5800  -19.1424  -56.4057 C.2       21 UNK         0.5000 
    118 O         -5.1152  -18.2117  -57.0087 O.2       21 UNK        -0.5000 
    119 N         -3.2534  -19.3408  -56.3587 N.am      22 UNK        -0.5000 
    120 CA        -2.1986  -18.4483  -56.8719 C.3       22 UNK         0.1400 
    121 C         -2.0993  -18.3645  -58.4254 C.2       22 UNK         0.5000 
    122 N         -2.7312  -19.2561  -59.1788 N.am      22 UNK        -0.7600 
    123 O         -1.4138  -17.4977  -58.9616 O.2       22 UNK        -0.5000 
    124 C124       -2.1915  -17.0445  -56.1983 C.3       23 UNK        -0.0398 
    125 S125       -2.2990  -17.1075  -54.3752 S.3       23 UNK        -0.2404 
    126 C126       -0.5582  -16.9551  -53.8734 C.3       23 UNK        -0.0205 
    127 H127        2.3582   -9.6817  -48.3880 H         1 UNK         0.0600 
    128 H128        2.4587   -8.6432  -46.9623 H         1 UNK         0.0600 
    129 H129        3.3840  -10.1468  -47.0273 H         1 UNK         0.0600 
    130 H130        0.4696  -10.8652  -48.4541 H         1 UNK         0.3000 
    131 H131       -0.4154  -12.5845  -46.4384 H         1 UNK         0.0600 
    132 H132       -2.4410  -12.9036  -47.8902 H         1 UNK         0.0800 
    133 H133       -1.9670  -11.5363  -48.8637 H         1 UNK         0.0800 
    134 H134       -1.7343  -15.2876  -48.3378 H         1 UNK         0.0800 
    135 H135       -2.5252  -14.6742  -49.7726 H         1 UNK         0.0800 
    136 H136       -1.5738  -15.1997  -52.0595 H         1 UNK         0.1150 
    137 H137        0.7803  -18.7785  -52.3187 H         1 UNK         0.1150 
    138 H138       -0.0327  -17.0061  -48.5036 H         1 UNK         0.1150 
    139 H139        2.2355  -19.2056  -50.1961 H         1 UNK         0.0800 
    140 H140        1.5717  -18.7794  -48.6437 H         1 UNK         0.0800 
    141 H141       -0.7305  -19.5279  -47.8274 H         1 UNK         0.0800 
    142 H142       -1.7734  -20.0490  -49.1222 H         1 UNK         0.0800 
    143 H143       -1.1553  -22.5072  -48.2595 H         1 UNK         0.0600 
    144 H144        0.1465  -21.0360  -46.2323 H         1 UNK         0.3000 
    145 H145       -0.0992  -23.5746  -43.6665 H         1 UNK         0.0600 
    146 H146        2.3245  -23.0978  -43.6802 H         1 UNK         0.0600 
    147 H147        1.8825  -24.0169  -45.1106 H         1 UNK         0.0600 
    148 H148        2.1935  -22.2919  -45.2412 H         1 UNK         0.0600 
    149 H149        0.9415  -20.9501  -43.5077 H         1 UNK         0.3000 
    150 H150       -2.0970  -19.3046  -42.4915 H         1 UNK         0.0600 
    151 H151       -1.0690  -20.2802  -40.4511 H         1 UNK         0.0600 
    152 H152       -0.5318  -18.6218  -40.6795 H         1 UNK         0.0600 
    153 H153        0.5423  -19.9603  -41.0778 H         1 UNK         0.0600 
    154 H154        0.5060  -18.2707  -42.9556 H         1 UNK         0.3000 
    155 H155        0.1766  -17.6579  -46.4563 H         1 UNK         0.0600 
    156 H156       -0.8604  -15.6965  -45.3911 H         1 UNK         0.0600 
    157 H157        0.2434  -15.7945  -44.0300 H         1 UNK         0.0600 
    158 H158        0.8511  -15.3864  -45.6357 H         1 UNK         0.0600 
    159 H159        2.2755  -17.2724  -44.5175 H         1 UNK         0.3000 
    160 H160        3.9154  -20.3846  -45.1672 H         1 UNK         0.0600 
    161 H161        4.6357  -17.5037  -45.9363 H         1 UNK         0.0600 
    162 H162        4.5893  -18.8731  -47.0404 H         1 UNK         0.0600 
    163 H163        5.7676  -18.8418  -45.7383 H         1 UNK         0.0600 
    164 H164        4.5869  -18.1251  -43.5377 H         1 UNK         0.3000 
    165 H165        2.8482  -19.1290  -40.6020 H         1 UNK         0.0600 
    166 H166        5.8503  -19.1880  -41.2225 H         1 UNK         0.0600 
    167 H167        5.1202  -19.0667  -39.6211 H         1 UNK         0.0600 
    168 H168        4.9192  -20.5308  -40.5696 H         1 UNK         0.0600 
    169 H169        4.6518  -17.0014  -40.9965 H         1 UNK         0.3000 
    170 H170        3.4199  -14.7642  -40.7865 H         1 UNK         0.0600 
    171 H171        5.1562  -15.3210  -42.5437 H         1 UNK         0.0600 
    172 H172        3.9463  -15.1391  -43.8090 H         1 UNK         0.0600 
    173 H173        4.4611  -13.7473  -42.8617 H         1 UNK         0.0600 
    174 H174        1.1599  -15.0485  -42.4535 H         1 UNK         0.3000 
    175 H175        0.2203  -13.0812  -43.7031 H         1 UNK         0.0600 
    176 H176       -1.8532  -12.8950  -42.2767 H         1 UNK         0.0600 
    177 H177       -0.9137  -14.3353  -41.9316 H         1 UNK         0.0600 
    178 H178       -0.8448  -12.9696  -40.8313 H         1 UNK         0.0600 
    179 H179        0.3356  -10.9079  -43.8243 H         1 UNK         0.3000 
    180 H180       -0.5587   -8.2056  -41.7549 H         1 UNK         0.0600 
    181 H181        1.3657   -7.2055  -42.9718 H         1 UNK         0.0600 
    182 H182        1.9239   -8.2569  -41.6789 H         1 UNK         0.0600 
    183 H183        1.9911   -8.8114  -43.3464 H         1 UNK         0.0600 
    184 H184       -0.1376   -8.9138  -44.5948 H         1 UNK         0.3000 
    185 H185       -3.6072   -9.1372  -45.3014 H         1 UNK         0.0600 
    186 H186       -3.0962   -7.3948  -46.9916 H         1 UNK         0.0600 
    187 H187       -3.2350   -6.6703  -45.3977 H         1 UNK         0.0600 
    188 H188       -1.6447   -6.9224  -46.1072 H         1 UNK         0.0600 
    189 H189       -1.2168   -9.2112  -46.9120 H         1 UNK         0.3000 
    190 H190       -2.5999  -20.3300  -45.7805 H         1 UNK         0.3000 
    191 H191       -5.2726  -20.5837  -46.6592 H         1 UNK         0.0600 
    192 H192       -5.8318  -19.7597  -44.3692 H         1 UNK         0.0600 
    193 H193       -4.5152  -18.8366  -45.0783 H         1 UNK         0.0600 
    194 H194       -4.1771  -20.0519  -43.8480 H         1 UNK         0.0600 
    195 H195       -3.3977  -22.6280  -44.3950 H         1 UNK         0.3000 
    196 H196       -5.5951  -24.3201  -43.6488 H         1 UNK         0.0600 
    197 H197       -3.7854  -25.7202  -42.6396 H         1 UNK         0.0600 
    198 H198       -3.6162  -24.0258  -42.2054 H         1 UNK         0.0600 
    199 H199       -2.5666  -24.7282  -43.4330 H         1 UNK         0.0600 
    200 H200       -2.8711  -24.7519  -45.9739 H         1 UNK         0.3000 
    201 H201       -3.6972  -27.4094  -46.7444 H         1 UNK         0.0600 
    202 H202       -1.3292  -26.7342  -46.7111 H         1 UNK         0.0600 
    203 H203       -1.6470  -25.4632  -47.8863 H         1 UNK         0.0600 
    204 H204       -1.7754  -27.1527  -48.3593 H         1 UNK         0.0600 
    205 H205       -4.2685  -24.1785  -48.0817 H         1 UNK         0.3000 
    206 H206       -5.4498  -23.3562  -49.7272 H         1 UNK         0.0600 
    207 H207       -7.3431  -24.4984  -48.6311 H         1 UNK         0.0600 
    208 H208       -7.5895  -24.4503  -50.3655 H         1 UNK         0.0600 
    209 H209       -7.0826  -25.9502  -49.5864 H         1 UNK         0.0600 
    210 H210       -6.4988  -25.9509  -51.5776 H         1 UNK         0.3000 
    211 H211       -4.9957  -25.2756  -53.8613 H         1 UNK         0.0600 
    212 H212       -6.6218  -27.7992  -53.2407 H         1 UNK         0.0600 
    213 H213       -6.0977  -27.2961  -54.8434 H         1 UNK         0.0600 
    214 H214       -7.2444  -26.3094  -53.9520 H         1 UNK         0.0600 
    215 H215       -4.2375  -27.5871  -51.2930 H         1 UNK         0.3000 
    216 H216       -2.3011  -29.1240  -52.7718 H         1 UNK         0.0600 
    217 H217       -1.6914  -30.0032  -50.5290 H         1 UNK         0.0600 
    218 H218       -3.4329  -30.0137  -50.7577 H         1 UNK         0.0600 
    219 H219       -2.6825  -28.7765  -49.7546 H         1 UNK         0.0600 
    220 H220       -2.1635  -25.9863  -51.2356 H         1 UNK         0.3000 
    221 H221        0.8141  -25.8503  -51.5302 H         1 UNK         0.0600 
    222 H222       -1.1743  -24.1451  -49.9512 H         1 UNK         0.0600 
    223 H223        0.0759  -25.2184  -49.3012 H         1 UNK         0.0600 
    224 H224        0.5325  -23.7547  -50.1391 H         1 UNK         0.0600 
    225 H225       -1.8505  -25.4224  -53.3740 H         1 UNK         0.3000 
    226 H226       -2.5237  -24.2505  -55.1074 H         1 UNK         0.0600 
    227 H227       -0.2790  -24.8579  -56.0350 H         1 UNK         0.0600 
    228 H228       -0.8719  -23.3374  -56.6826 H         1 UNK         0.0600 
    229 H229        0.3782  -23.3304  -55.4479 H         1 UNK         0.0600 
    230 H230       -2.9949  -23.0609  -52.6289 H         1 UNK         0.3000 
    231 H231       -2.3653  -20.2880  -52.5480 H         1 UNK         0.0600 
    232 H232       -3.8833  -20.2523  -50.6403 H         1 UNK         0.0600 
    233 H233       -2.9835  -21.7620  -50.5870 H         1 UNK         0.0600 
    234 H234       -4.6555  -21.7445  -51.1523 H         1 UNK         0.0600 
    235 H235       -4.3531  -21.7296  -54.7681 H         1 UNK         0.3000 
    236 H236       -6.2936  -19.5918  -55.1901 H         1 UNK         0.0600 
    237 H237       -5.2450  -21.8048  -57.0416 H         1 UNK         0.0600 
    238 H238       -6.7027  -21.8913  -56.0519 H         1 UNK         0.0600 
    239 H239       -6.6100  -20.7476  -57.3816 H         1 UNK         0.0600 
    240 H240       -2.8990  -20.1392  -55.8405 H         1 UNK         0.3000 
    241 H241       -1.2687  -18.9347  -56.5755 H         1 UNK         0.0600 
    242 H242       -2.6554  -19.2037  -60.1827 H         1 UNK         0.3800 
    243 H243       -3.2915  -19.9768  -58.7531 H         1 UNK         0.3800 
    244 H244       -3.0337  -16.4527  -56.5596 H         1 UNK         0.0800 
    245 H245       -1.2948  -16.4894  -56.4785 H         1 UNK         0.0800 
    246 H246        0.0175  -17.7595  -54.3340 H         1 UNK         0.0800 
    247 H247       -0.1495  -16.0168  -54.2511 H         1 UNK         0.0800 
@<TRIPOS>BOND
     1    1    2 1    
     2    1  127 1    
     3    1  128 1    
     4    1  129 1    
     5    2    3 2    
     6    2    4 am   BACKBONE|DICT|INTERRES
     7    4    5 1    
     8    4  130 1    
     9    5    6 1    
    10    5   65 1    
    11    5  131 1    
    12    6    7 1    
    13    6  132 1    
    14    6  133 1    
    15    7    8 1    
    16    8    9 1    
    17    8  134 1    
    18    8  135 1    
    19    9   10 ar   
    20    9   14 ar   
    21   10   11 ar   
    22   10  136 1    
    23   11   12 ar   
    24   11  126 1    
    25   12   13 ar   
    26   12  137 1    
    27   13   14 ar   
    28   13   15 1    
    29   14  138 1    
    30   15   16 1    
    31   15  139 1    
    32   15  140 1    
    33   16   17 1    
    34   17   18 1    
    35   17  141 1    
    36   17  142 1    
    37   18   19 1    
    38   18   67 1    
    39   18  143 1    
    40   19   20 am   BACKBONE|DICT|INTERRES
    41   19  144 1    
    42   20   21 2    
    43   20   22 1    
    44   22   23 1    
    45   22   24 1    
    46   22  145 1    
    47   23  146 1    
    48   23  147 1    
    49   23  148 1    
    50   24   25 am   BACKBONE|DICT|INTERRES
    51   24  149 1    
    52   25   26 2    
    53   25   27 1    
    54   27   28 1    
    55   27   29 1    
    56   27  150 1    
    57   28  151 1    
    58   28  152 1    
    59   28  153 1    
    60   29   30 am   BACKBONE|DICT|INTERRES
    61   29  154 1    
    62   30   31 2    
    63   30   32 1    
    64   32   33 1    
    65   32   34 1    
    66   32  155 1    
    67   33  156 1    
    68   33  157 1    
    69   33  158 1    
    70   34   35 am   BACKBONE|DICT|INTERRES
    71   34  159 1    
    72   35   36 2    
    73   35   37 1    
    74   37   38 1    
    75   37   39 1    
    76   37  160 1    
    77   38  161 1    
    78   38  162 1    
    79   38  163 1    
    80   39   40 am   BACKBONE|DICT|INTERRES
    81   39  164 1    
    82   40   41 2    
    83   40   42 1    
    84   42   43 1    
    85   42   44 1    
    86   42  165 1    
    87   43  166 1    
    88   43  167 1    
    89   43  168 1    
    90   44   45 am   BACKBONE|DICT|INTERRES
    91   44  169 1    
    92   45   46 2    
    93   45   47 1    
    94   47   48 1    
    95   47   49 1    
    96   47  170 1    
    97   48  171 1    
    98   48  172 1    
    99   48  173 1    
   100   49   50 am   BACKBONE|DICT|INTERRES
   101   49  174 1    
   102   50   51 2    
   103   50   52 1    
   104   52   53 1    
   105   52   54 1    
   106   52  175 1    
   107   53  176 1    
   108   53  177 1    
   109   53  178 1    
   110   54   55 am   BACKBONE|DICT|INTERRES
   111   54  179 1    
   112   55   56 2    
   113   55   57 1    
   114   57   58 1    
   115   57   59 1    
   116   57  180 1    
   117   58  181 1    
   118   58  182 1    
   119   58  183 1    
   120   59   60 am   BACKBONE|DICT|INTERRES
   121   59  184 1    
   122   60   61 2    
   123   60   62 1    
   124   62   63 1    
   125   62   64 1    
   126   62  185 1    
   127   63  186 1    
   128   63  187 1    
   129   63  188 1    
   130   64   65 am   BACKBONE|DICT|INTERRES
   131   64  189 1    
   132   65   66 2    
   133   67   68 2    
   134   67   69 am   BACKBONE|DICT|INTERRES
   135   69   70 1    
   136   69  190 1    
   137   70   71 1    
   138   70   72 1    
   139   70  191 1    
   140   71  192 1    
   141   71  193 1    
   142   71  194 1    
   143   72   73 2    
   144   72   74 am   BACKBONE|DICT|INTERRES
   145   74   75 1    
   146   74  195 1    
   147   75   76 1    
   148   75   77 1    
   149   75  196 1    
   150   76  197 1    
   151   76  198 1    
   152   76  199 1    
   153   77   78 2    
   154   77   79 am   BACKBONE|DICT|INTERRES
   155   79   80 1    
   156   79  200 1    
   157   80   81 1    
   158   80   82 1    
   159   80  201 1    
   160   81  202 1    
   161   81  203 1    
   162   81  204 1    
   163   82   83 2    
   164   82   84 am   BACKBONE|DICT|INTERRES
   165   84   85 1    
   166   84  205 1    
   167   85   86 1    
   168   85   87 1    
   169   85  206 1    
   170   86  207 1    
   171   86  208 1    
   172   86  209 1    
   173   87   88 2    
   174   87   89 am   BACKBONE|DICT|INTERRES
   175   89   90 1    
   176   89  210 1    
   177   90   91 1    
   178   90   92 1    
   179   90  211 1    
   180   91  212 1    
   181   91  213 1    
   182   91  214 1    
   183   92   93 2    
   184   92   94 am   BACKBONE|DICT|INTERRES
   185   94   95 1    
   186   94  215 1    
   187   95   96 1    
   188   95   97 1    
   189   95  216 1    
   190   96  217 1    
   191   96  218 1    
   192   96  219 1    
   193   97   98 2    
   194   97   99 am   BACKBONE|DICT|INTERRES
   195   99  100 1    
   196   99  220 1    
   197  100  101 1    
   198  100  102 1    
   199  100  221 1    
   200  101  222 1    
   201  101  223 1    
   202  101  224 1    
   203  102  103 2    
   204  102  104 am   BACKBONE|DICT|INTERRES
   205  104  105 1    
   206  104  225 1    
   207  105  106 1    
   208  105  107 1    
   209  105  226 1    
   210  106  227 1    
   211  106  228 1    
   212  106  229 1    
   213  107  108 2    
   214  107  109 am   BACKBONE|DICT|INTERRES
   215  109  110 1    
   216  109  230 1    
   217  110  111 1    
   218  110  112 1    
   219  110  231 1    
   220  111  232 1    
   221  111  233 1    
   222  111  234 1    
   223  112  113 2    
   224  112  114 am   BACKBONE|DICT|INTERRES
   225  114  115 1    
   226  114  235 1    
   227  115  116 1    
   228  115  117 1    
   229  115  236 1    
   230  116  237 1    
   231  116  238 1    
   232  116  239 1    
   233  117  118 2    
   234  117  119 am   BACKBONE|DICT|INTERRES
   235  119  120 1    
   236  119  240 1    
   237  120  121 1    
   238  120  124 1    
   239  120  241 1    
   240  121  122 am   BACKBONE|DICT|INTERRES
   241  121  123 2    
   242  122  242 1    
   243  122  243 1    
   244  124  125 1    
   245  124  244 1    
   246  124  245 1    
   247  125  126 1    
   248  126  246 1    
   249  126  247 1    
@<TRIPOS>SUBSTRUCTURE
     1 UNK         1 GROUP             0       ****    0 ROOT    
