@<TRIPOS>MOLECULE
3R540
247   249    1
SMALL
USER_CHARGES


@<TRIPOS>ATOM
      1 CA         -3.6811  -13.9550  -41.3196 C.3       0 UNK        -0.1800 
      2 C          -2.8759  -13.3605  -42.4658 C.2       0 UNK         0.5000 
      3 O          -2.2228  -12.3309  -42.2912 O.2       0 UNK        -0.5000 
      4 N          -2.9068  -14.0104  -43.6351 N.am      1 UNK        -0.5000 
      5 CA         -2.1987  -13.6124  -44.8571 C.3       1 UNK         0.1400 
      6 C6         -2.9099  -14.1508  -46.1227 C.3       23 UNK        -0.0398 
      7 S7         -4.4569  -13.2517  -46.4839 S.3       23 UNK        -0.2404 
      8 C8         -5.7424  -14.3205  -45.7610 C.3       23 UNK        -0.0205 
      9 C9         -5.8369  -15.6891  -46.4234 C.ar      23 UNK        -0.0193 
     10 C10        -6.3022  -15.8157  -47.7376 C.ar      23 UNK        -0.1150 
     11 C11        -6.4404  -17.0792  -48.3228 C.ar      23 UNK        -0.0193 
     12 C12        -6.1107  -18.2185  -47.5830 C.ar      23 UNK        -0.1150 
     13 C13        -5.6566  -18.1053  -46.2674 C.ar      23 UNK        -0.0193 
     14 C14        -5.5141  -16.8385  -45.6958 C.ar      23 UNK        -0.1150 
     15 C15        -5.3653  -19.3504  -45.4469 C.3       23 UNK        -0.0205 
     16 S16        -3.5822  -19.6652  -45.3299 S.3       23 UNK        -0.2404 
     17 C17        -3.5625  -21.1717  -44.3040 C.3       23 UNK        -0.0398 
     18 CA         -3.0921  -22.4003  -45.1149 C.3       11 UNK         0.1400 
     19 N          -1.6554  -22.3487  -45.4310 N.am      11 UNK        -0.5000 
     20 C          -0.9890  -23.2152  -46.2098 C.2       10 UNK         0.5000 
     21 O          -1.5293  -24.1838  -46.7474 O.2       10 UNK        -0.5000 
     22 CA          0.5142  -22.9794  -46.4420 C.3       10 UNK         0.1400 
     23 CB          0.7722  -22.5675  -47.8988 C.3       10 UNK        -0.1800 
     24 N           1.0601  -21.9424  -45.5694 N.am      10 UNK        -0.5000 
     25 C           1.8023  -22.1592  -44.4762 C.2       9 UNK         0.5000 
     26 O           2.0850  -23.2811  -44.0549 O.2       9 UNK        -0.5000 
     27 CA          2.3282  -20.9177  -43.7255 C.3       9 UNK         0.1400 
     28 CB          3.7764  -20.6165  -44.1408 C.3       9 UNK        -0.1800 
     29 N           1.5203  -19.7161  -43.9405 N.am      9 UNK        -0.5000 
     30 C           0.2851  -19.5330  -43.4564 C.2       8 UNK         0.5000 
     31 O          -0.2966  -20.3507  -42.7433 O.2       8 UNK        -0.5000 
     32 CA         -0.4375  -18.2355  -43.8676 C.3       8 UNK         0.1400 
     33 CB         -0.1420  -17.1220  -42.8515 C.3       8 UNK        -0.1800 
     34 N          -0.1408  -17.7517  -45.2235 N.am      8 UNK        -0.5000 
     35 C          -0.1988  -18.4657  -46.3608 C.2       7 UNK         0.5000 
     36 O          -0.4275  -19.6726  -46.4038 O.2       7 UNK        -0.5000 
     37 CA          0.0796  -17.7184  -47.6742 C.3       7 UNK         0.1400 
     38 CB         -1.2303  -17.2126  -48.2954 C.3       7 UNK        -0.1800 
     39 N           0.9910  -16.5933  -47.4836 N.am      7 UNK        -0.5000 
     40 C           2.3142  -16.6978  -47.3129 C.2       6 UNK         0.5000 
     41 O           2.9102  -17.7762  -47.3123 O.2       6 UNK        -0.5000 
     42 CA          3.0977  -15.3861  -47.0748 C.3       6 UNK         0.1400 
     43 CB          4.5302  -15.4504  -47.6424 C.3       6 UNK        -0.1800 
     44 N           2.4188  -14.1698  -47.5428 N.am      6 UNK        -0.5000 
     45 C           2.0403  -13.8740  -48.7958 C.2       5 UNK         0.5000 
     46 O           2.1690  -14.6266  -49.7614 O.2       5 UNK        -0.5000 
     47 CA          1.4462  -12.4713  -48.9979 C.3       5 UNK         0.1400 
     48 CB          0.0110  -12.3896  -48.4520 C.3       5 UNK        -0.1800 
     49 N           2.2881  -11.4542  -48.3634 N.am      5 UNK        -0.5000 
     50 C           3.4357  -11.0057  -48.8953 C.2       4 UNK         0.5000 
     51 O           3.8513  -11.3508  -50.0023 O.2       4 UNK        -0.5000 
     52 CA          4.2634   -9.9970  -48.0752 C.3       4 UNK         0.1400 
     53 CB          3.9674   -8.5614  -48.5364 C.3       4 UNK        -0.1800 
     54 N           4.0415  -10.0837  -46.6324 N.am      4 UNK        -0.5000 
     55 C           4.4955  -11.0635  -45.8397 C.2       3 UNK         0.5000 
     56 O           5.1588  -12.0188  -46.2451 O.2       3 UNK        -0.5000 
     57 CA          4.1518  -10.9704  -44.3359 C.3       3 UNK         0.1400 
     58 CB          3.4762   -9.6420  -43.9254 C.3       3 UNK        -0.1800 
     59 N           3.3415  -12.0993  -43.8650 N.am      3 UNK        -0.5000 
     60 C           2.1845  -12.5336  -44.3843 C.2       2 UNK         0.5000 
     61 O           1.7004  -12.0890  -45.4288 O.2       2 UNK        -0.5000 
     62 CA          1.4465  -13.6536  -43.6184 C.3       2 UNK         0.1400 
     63 CB          1.7528  -13.6725  -42.1084 C.3       2 UNK        -0.1800 
     64 N           0.0040  -13.5094  -43.7943 N.am      2 UNK        -0.5000 
     65 C          -0.7147  -14.0344  -44.7907 C.2       1 UNK         0.5000 
     66 O          -0.2540  -14.8321  -45.6088 O.2       1 UNK        -0.5000 
     67 C          -3.5207  -23.7109  -44.4222 C.2       11 UNK         0.5000 
     68 O          -4.6506  -24.1550  -44.6280 O.2       11 UNK        -0.5000 
     69 N          -2.5984  -24.3479  -43.6865 N.am      12 UNK        -0.5000 
     70 CA         -2.7633  -25.6789  -43.0932 C.3       12 UNK         0.1400 
     71 CB         -1.5472  -25.9745  -42.2022 C.3       12 UNK        -0.1800 
     72 C          -2.9567  -26.8070  -44.1315 C.2       12 UNK         0.5000 
     73 O          -3.5109  -27.8520  -43.7899 O.2       12 UNK        -0.5000 
     74 N          -2.5179  -26.5687  -45.3744 N.am      13 UNK        -0.5000 
     75 CA         -2.6704  -27.4512  -46.5285 C.3       13 UNK         0.1400 
     76 CB         -1.2722  -27.7443  -47.1029 C.3       13 UNK        -0.1800 
     77 C          -3.6060  -26.8239  -47.5831 C.2       13 UNK         0.5000 
     78 O          -3.4698  -27.1291  -48.7680 O.2       13 UNK        -0.5000 
     79 N          -4.5212  -25.9394  -47.1523 N.am      14 UNK        -0.5000 
     80 CA         -5.4940  -25.2057  -47.9744 C.3       14 UNK         0.1400 
     81 CB         -6.5324  -26.1695  -48.5863 C.3       14 UNK        -0.1800 
     82 C          -4.8129  -24.3065  -49.0270 C.2       14 UNK         0.5000 
     83 O          -5.1558  -24.3538  -50.2099 O.2       14 UNK        -0.5000 
     84 N          -3.8136  -23.5398  -48.5673 N.am      15 UNK        -0.5000 
     85 CA         -2.9153  -22.6905  -49.3567 C.3       15 UNK         0.1400 
     86 CB         -3.6769  -21.5162  -50.0052 C.3       15 UNK        -0.1800 
     87 C          -2.0930  -23.5277  -50.3557 C.2       15 UNK         0.5000 
     88 O          -1.9593  -23.1472  -51.5181 O.2       15 UNK        -0.5000 
     89 N          -1.5955  -24.6797  -49.8769 N.am      16 UNK        -0.5000 
     90 CA         -0.8968  -25.7299  -50.6282 C.3       16 UNK         0.1400 
     91 CB          0.5027  -25.2468  -51.0632 C.3       16 UNK        -0.1800 
     92 C          -1.7426  -26.2553  -51.8067 C.2       16 UNK         0.5000 
     93 O          -1.2741  -26.2745  -52.9441 O.2       16 UNK        -0.5000 
     94 N          -3.0039  -26.6083  -51.5192 N.am      17 UNK        -0.5000 
     95 CA         -4.0579  -26.9645  -52.4785 C.3       17 UNK         0.1400 
     96 CB         -3.7783  -28.3477  -53.1010 C.3       17 UNK        -0.1800 
     97 C          -4.2861  -25.8573  -53.5337 C.2       17 UNK         0.5000 
     98 O          -4.3940  -26.1398  -54.7281 O.2       17 UNK        -0.5000 
     99 N          -4.3082  -24.6078  -53.0514 N.am      18 UNK        -0.5000 
    100 CA        -4.3963  -23.3436  -53.7863 C.3       18 UNK         0.1400 
    101 CB        -5.7288  -23.2418  -54.5560 C.3       18 UNK        -0.1800 
    102 C         -3.1772  -23.0023  -54.6749 C.2       18 UNK         0.5000 
    103 O         -3.2464  -22.0247  -55.4210 O.2       18 UNK        -0.5000 
    104 N         -2.0686  -23.7527  -54.5782 N.am      19 UNK        -0.5000 
    105 CA        -0.8290  -23.4658  -55.3099 C.3       19 UNK         0.1400 
    106 CB         0.0598  -24.7173  -55.3462 C.3       19 UNK        -0.1800 
    107 C         -0.0461  -22.2728  -54.7264 C.2       19 UNK         0.5000 
    108 O          0.7058  -21.6309  -55.4606 O.2       19 UNK        -0.5000 
    109 N         -0.2409  -21.9907  -53.4323 N.am      20 UNK        -0.5000 
    110 CA         0.3604  -20.8789  -52.6954 C.3       20 UNK         0.1400 
    111 CB         1.0935  -21.4366  -51.4619 C.3       20 UNK        -0.1800 
    112 C         -0.7019  -19.8292  -52.3112 C.2       20 UNK         0.5000 
    113 O         -0.5027  -19.0792  -51.3543 O.2       20 UNK        -0.5000 
    114 N         -1.8176  -19.7913  -53.0542 N.am      21 UNK        -0.5000 
    115 CA        -2.8834  -18.8009  -52.9118 C.3       21 UNK         0.1400 
    116 CB        -4.0665  -19.2246  -53.7966 C.3       21 UNK        -0.1800 
    117 C         -2.3907  -17.3884  -53.3047 C.2       21 UNK         0.5000 
    118 O         -1.6808  -17.2712  -54.3050 O.2       21 UNK        -0.5000 
    119 N         -2.7464  -16.3154  -52.5892 N.am      22 UNK        -0.5000 
    120 CA        -3.5408  -16.2323  -51.3566 C.3       22 UNK         0.1400 
    121 C         -3.1982  -14.9248  -50.5942 C.2       22 UNK         0.5000 
    122 N         -3.6887  -14.7803  -49.3740 N.am      22 UNK        -0.7600 
    123 O         -2.5154  -14.0346  -51.0979 O.2       22 UNK        -0.5000 
    124 C124       -5.0715  -16.3636  -51.6243 C.3       23 UNK        -0.0398 
    125 S125       -5.7869  -17.8811  -50.9079 S.3       23 UNK        -0.2404 
    126 C126       -7.0119  -17.2347  -49.7245 C.3       23 UNK        -0.0205 
    127 H127       -4.4159  -13.2329  -40.9636 H         1 UNK         0.0600 
    128 H128       -3.0208  -14.2091  -40.4903 H         1 UNK         0.0600 
    129 H129       -4.2111  -14.8585  -41.6219 H         1 UNK         0.0600 
    130 H130       -3.4341  -14.8678  -43.7018 H         1 UNK         0.3000 
    131 H131       -2.1960  -12.5219  -44.9218 H         1 UNK         0.0600 
    132 H132       -3.0939  -15.2228  -46.0450 H         1 UNK         0.0800 
    133 H133       -2.2738  -14.0191  -46.9992 H         1 UNK         0.0800 
    134 H134       -5.5672  -14.4161  -44.6888 H         1 UNK         0.0800 
    135 H135       -6.7051  -13.8177  -45.8618 H         1 UNK         0.0800 
    136 H136       -6.5765  -14.9295  -48.2933 H         1 UNK         0.1150 
    137 H137       -6.2312  -19.1964  -48.0282 H         1 UNK         0.1150 
    138 H138       -5.1720  -16.7538  -44.6741 H         1 UNK         0.1150 
    139 H139       -5.7805  -19.2296  -44.4452 H         1 UNK         0.0800 
    140 H140       -5.8573  -20.2204  -45.8848 H         1 UNK         0.0800 
    141 H141       -4.5636  -21.3280  -43.8970 H         1 UNK         0.0800 
    142 H142       -2.9129  -21.0056  -43.4433 H         1 UNK         0.0800 
    143 H143       -3.6235  -22.3832  -46.0673 H         1 UNK         0.0600 
    144 H144       -1.1532  -21.5438  -45.0823 H         1 UNK         0.3000 
    145 H145        1.0213  -23.9299  -46.2651 H         1 UNK         0.0600 
    146 H146        0.2460  -21.6491  -48.1618 H         1 UNK         0.0600 
    147 H147        1.8348  -22.4065  -48.0811 H         1 UNK         0.0600 
    148 H148        0.4445  -23.3449  -48.5861 H         1 UNK         0.0600 
    149 H149        0.8158  -20.9886  -45.8220 H         1 UNK         0.3000 
    150 H150        2.3190  -21.1503  -42.6586 H         1 UNK         0.0600 
    151 H151        4.4193  -21.4822  -43.9762 H         1 UNK         0.0600 
    152 H152        4.1900  -19.7914  -43.5606 H         1 UNK         0.0600 
    153 H153        3.8447  -20.3521  -45.1970 H         1 UNK         0.0600 
    154 H154        1.9125  -19.0037  -44.5391 H         1 UNK         0.3000 
    155 H155       -1.5065  -18.4412  -43.8244 H         1 UNK         0.0600 
    156 H156       -0.2816  -17.4735  -41.8283 H         1 UNK         0.0600 
    157 H157       -0.8147  -16.2769  -42.9879 H         1 UNK         0.0600 
    158 H158        0.8829  -16.7599  -42.9374 H         1 UNK         0.0600 
    159 H159        0.0210  -16.7539  -45.3173 H         1 UNK         0.3000 
    160 H160        0.5349  -18.4248  -48.3721 H         1 UNK         0.0600 
    161 H161       -1.0454  -16.7376  -49.2589 H         1 UNK         0.0600 
    162 H162       -1.7297  -16.4887  -47.6520 H         1 UNK         0.0600 
    163 H163       -1.9253  -18.0361  -48.4668 H         1 UNK         0.0600 
    164 H164        0.5676  -15.6818  -47.3605 H         1 UNK         0.3000 
    165 H165        3.1811  -15.2836  -45.9926 H         1 UNK         0.0600 
    166 H166        4.5302  -15.6183  -48.7197 H         1 UNK         0.0600 
    167 H167        5.0730  -14.5254  -47.4480 H         1 UNK         0.0600 
    168 H168        5.0999  -16.2599  -47.1848 H         1 UNK         0.0600 
    169 H169        2.2336  -13.4689  -46.8335 H         1 UNK         0.3000 
    170 H170        1.4020  -12.2758  -50.0716 H         1 UNK         0.0600 
    171 H171       -0.0281  -12.5537  -47.3760 H         1 UNK         0.0600 
    172 H172       -0.4322  -11.4151  -48.6567 H         1 UNK         0.0600 
    173 H173       -0.6261  -13.1409  -48.9211 H         1 UNK         0.0600 
    174 H174        2.0413  -11.1784  -47.4207 H         1 UNK         0.3000 
    175 H175        5.3176  -10.2049  -48.2706 H         1 UNK         0.0600 
    176 H176        2.9283   -8.2857  -48.3523 H         1 UNK         0.0600 
    177 H177        4.6034   -7.8417  -48.0205 H         1 UNK         0.0600 
    178 H178        4.1524   -8.4481  -49.6055 H         1 UNK         0.0600 
    179 H179        3.4901   -9.3477  -46.2160 H         1 UNK         0.3000 
    180 H180        5.1042  -11.0307  -43.8072 H         1 UNK         0.0600 
    181 H181        2.4970   -9.5172  -44.3896 H         1 UNK         0.0600 
    182 H182        4.0911   -8.7827  -44.1964 H         1 UNK         0.0600 
    183 H183        3.3323   -9.5992  -42.8457 H         1 UNK         0.0600 
    184 H184        3.6840  -12.5541  -43.0307 H         1 UNK         0.3000 
    185 H185        1.7720  -14.6059  -44.0405 H         1 UNK         0.0600 
    186 H186        1.1514  -14.4254  -41.5981 H         1 UNK         0.0600 
    187 H187        2.7968  -13.9194  -41.9134 H         1 UNK         0.0600 
    188 H188        1.5410  -12.7097  -41.6414 H         1 UNK         0.0600 
    189 H189       -0.4708  -12.8711  -43.1646 H         1 UNK         0.3000 
    190 H190       -1.6927  -23.9149  -43.5771 H         1 UNK         0.3000 
    191 H191       -3.6552  -25.6577  -42.4637 H         1 UNK         0.0600 
    192 H192       -0.6204  -25.9839  -42.7775 H         1 UNK         0.0600 
    193 H193       -1.4455  -25.2297  -41.4126 H         1 UNK         0.0600 
    194 H194       -1.6434  -26.9475  -41.7183 H         1 UNK         0.0600 
    195 H195       -2.0954  -25.6694  -45.5805 H         1 UNK         0.3000 
    196 H196       -3.1230  -28.3991  -46.2321 H         1 UNK         0.0600 
    197 H197       -0.6298  -28.2047  -46.3523 H         1 UNK         0.0600 
    198 H198       -0.7810  -26.8337  -47.4476 H         1 UNK         0.0600 
    199 H199       -1.3253  -28.4334  -47.9467 H         1 UNK         0.0600 
    200 H200       -4.5444  -25.7245  -46.1625 H         1 UNK         0.3000 
    201 H201       -6.0263  -24.5354  -47.2979 H         1 UNK         0.0600 
    202 H202       -7.3194  -25.6175  -49.1014 H         1 UNK         0.0600 
    203 H203       -7.0113  -26.7732  -47.8155 H         1 UNK         0.0600 
    204 H204       -6.0829  -26.8477  -49.3122 H         1 UNK         0.0600 
    205 H205       -3.5419  -23.6644  -47.6024 H         1 UNK         0.3000 
    206 H206       -2.1985  -22.2539  -48.6622 H         1 UNK         0.0600 
    207 H207       -4.2134  -20.9338  -49.2559 H         1 UNK         0.0600 
    208 H208       -4.3996  -21.8524  -50.7476 H         1 UNK         0.0600 
    209 H209       -2.9859  -20.8376  -50.5042 H         1 UNK         0.0600 
    210 H210       -1.7718  -24.8865  -48.9021 H         1 UNK         0.3000 
    211 H211       -0.7622  -26.5707  -49.9471 H         1 UNK         0.0600 
    212 H212        1.0996  -24.9362  -50.2067 H         1 UNK         0.0600 
    213 H213        1.0519  -26.0447  -51.5641 H         1 UNK         0.0600 
    214 H214        0.4458  -24.4076  -51.7563 H         1 UNK         0.0600 
    215 H215       -3.2838  -26.6051  -50.5402 H         1 UNK         0.3000 
    216 H216       -4.9829  -27.0379  -51.9047 H         1 UNK         0.0600 
    217 H217       -4.6106  -28.6690  -53.7280 H         1 UNK         0.0600 
    218 H218       -2.8834  -28.3387  -53.7239 H         1 UNK         0.0600 
    219 H219       -3.6423  -29.1054  -52.3294 H         1 UNK         0.0600 
    220 H220       -4.2457  -24.5044  -52.0432 H         1 UNK         0.3000 
    221 H221       -4.4116  -22.5728  -53.0163 H         1 UNK         0.0600 
    222 H222       -5.7669  -23.9367  -55.3950 H         1 UNK         0.0600 
    223 H223       -6.5770  -23.4524  -53.9047 H         1 UNK         0.0600 
    224 H224       -5.8734  -22.2384  -54.9582 H         1 UNK         0.0600 
    225 H225       -2.0485  -24.5346  -53.9330 H         1 UNK         0.3000 
    226 H226       -1.0917  -23.2173  -56.3404 H         1 UNK         0.0600 
    227 H227       -0.4909  -25.5870  -55.7050 H         1 UNK         0.0600 
    228 H228        0.9089  -24.5697  -56.0145 H         1 UNK         0.0600 
    229 H229        0.4623  -24.9539  -54.3610 H         1 UNK         0.0600 
    230 H230       -0.9046  -22.5511  -52.8989 H         1 UNK         0.3000 
    231 H231        1.0954  -20.3638  -53.3164 H         1 UNK         0.0600 
    232 H232        1.6187  -20.6469  -50.9234 H         1 UNK         0.0600 
    233 H233        1.8361  -22.1815  -51.7477 H         1 UNK         0.0600 
    234 H234        0.4016  -21.9048  -50.7632 H         1 UNK         0.0600 
    235 H235       -1.8918  -20.4245  -53.8373 H         1 UNK         0.3000 
    236 H236       -3.2023  -18.8273  -51.8724 H         1 UNK         0.0600 
    237 H237       -3.7715  -19.3244  -54.8418 H         1 UNK         0.0600 
    238 H238       -4.4794  -20.1784  -53.4702 H         1 UNK         0.0600 
    239 H239       -4.8747  -18.4951  -53.7577 H         1 UNK         0.0600 
    240 H240       -2.3712  -15.4152  -52.8580 H         1 UNK         0.3000 
    241 H241       -3.1983  -17.0220  -50.6872 H         1 UNK         0.0600 
    242 H242       -4.2630  -15.4897  -48.9450 H         1 UNK         0.3800 
    243 H243       -3.5174  -13.9193  -48.8803 H         1 UNK         0.3800 
    244 H244       -5.6286  -15.5008  -51.2550 H         1 UNK         0.0800 
    245 H245       -5.2793  -16.3740  -52.6948 H         1 UNK         0.0800 
    246 H246       -7.8445  -17.9381  -49.6792 H         1 UNK         0.0800 
    247 H247       -7.4377  -16.2976  -50.0858 H         1 UNK         0.0800 
@<TRIPOS>BOND
     1    1    2 1    
     2    1  127 1    
     3    1  128 1    
     4    1  129 1    
     5    2    3 2    
     6    2    4 am   BACKBONE|DICT|INTERRES
     7    4    5 1    
     8    4  130 1    
     9    5    6 1    
    10    5   65 1    
    11    5  131 1    
    12    6    7 1    
    13    6  132 1    
    14    6  133 1    
    15    7    8 1    
    16    8    9 1    
    17    8  134 1    
    18    8  135 1    
    19    9   10 ar   
    20    9   14 ar   
    21   10   11 ar   
    22   10  136 1    
    23   11   12 ar   
    24   11  126 1    
    25   12   13 ar   
    26   12  137 1    
    27   13   14 ar   
    28   13   15 1    
    29   14  138 1    
    30   15   16 1    
    31   15  139 1    
    32   15  140 1    
    33   16   17 1    
    34   17   18 1    
    35   17  141 1    
    36   17  142 1    
    37   18   19 1    
    38   18   67 1    
    39   18  143 1    
    40   19   20 am   BACKBONE|DICT|INTERRES
    41   19  144 1    
    42   20   21 2    
    43   20   22 1    
    44   22   23 1    
    45   22   24 1    
    46   22  145 1    
    47   23  146 1    
    48   23  147 1    
    49   23  148 1    
    50   24   25 am   BACKBONE|DICT|INTERRES
    51   24  149 1    
    52   25   26 2    
    53   25   27 1    
    54   27   28 1    
    55   27   29 1    
    56   27  150 1    
    57   28  151 1    
    58   28  152 1    
    59   28  153 1    
    60   29   30 am   BACKBONE|DICT|INTERRES
    61   29  154 1    
    62   30   31 2    
    63   30   32 1    
    64   32   33 1    
    65   32   34 1    
    66   32  155 1    
    67   33  156 1    
    68   33  157 1    
    69   33  158 1    
    70   34   35 am   BACKBONE|DICT|INTERRES
    71   34  159 1    
    72   35   36 2    
    73   35   37 1    
    74   37   38 1    
    75   37   39 1    
    76   37  160 1    
    77   38  161 1    
    78   38  162 1    
    79   38  163 1    
    80   39   40 am   BACKBONE|DICT|INTERRES
    81   39  164 1    
    82   40   41 2    
    83   40   42 1    
    84   42   43 1    
    85   42   44 1    
    86   42  165 1    
    87   43  166 1    
    88   43  167 1    
    89   43  168 1    
    90   44   45 am   BACKBONE|DICT|INTERRES
    91   44  169 1    
    92   45   46 2    
    93   45   47 1    
    94   47   48 1    
    95   47   49 1    
    96   47  170 1    
    97   48  171 1    
    98   48  172 1    
    99   48  173 1    
   100   49   50 am   BACKBONE|DICT|INTERRES
   101   49  174 1    
   102   50   51 2    
   103   50   52 1    
   104   52   53 1    
   105   52   54 1    
   106   52  175 1    
   107   53  176 1    
   108   53  177 1    
   109   53  178 1    
   110   54   55 am   BACKBONE|DICT|INTERRES
   111   54  179 1    
   112   55   56 2    
   113   55   57 1    
   114   57   58 1    
   115   57   59 1    
   116   57  180 1    
   117   58  181 1    
   118   58  182 1    
   119   58  183 1    
   120   59   60 am   BACKBONE|DICT|INTERRES
   121   59  184 1    
   122   60   61 2    
   123   60   62 1    
   124   62   63 1    
   125   62   64 1    
   126   62  185 1    
   127   63  186 1    
   128   63  187 1    
   129   63  188 1    
   130   64   65 am   BACKBONE|DICT|INTERRES
   131   64  189 1    
   132   65   66 2    
   133   67   68 2    
   134   67   69 am   BACKBONE|DICT|INTERRES
   135   69   70 1    
   136   69  190 1    
   137   70   71 1    
   138   70   72 1    
   139   70  191 1    
   140   71  192 1    
   141   71  193 1    
   142   71  194 1    
   143   72   73 2    
   144   72   74 am   BACKBONE|DICT|INTERRES
   145   74   75 1    
   146   74  195 1    
   147   75   76 1    
   148   75   77 1    
   149   75  196 1    
   150   76  197 1    
   151   76  198 1    
   152   76  199 1    
   153   77   78 2    
   154   77   79 am   BACKBONE|DICT|INTERRES
   155   79   80 1    
   156   79  200 1    
   157   80   81 1    
   158   80   82 1    
   159   80  201 1    
   160   81  202 1    
   161   81  203 1    
   162   81  204 1    
   163   82   83 2    
   164   82   84 am   BACKBONE|DICT|INTERRES
   165   84   85 1    
   166   84  205 1    
   167   85   86 1    
   168   85   87 1    
   169   85  206 1    
   170   86  207 1    
   171   86  208 1    
   172   86  209 1    
   173   87   88 2    
   174   87   89 am   BACKBONE|DICT|INTERRES
   175   89   90 1    
   176   89  210 1    
   177   90   91 1    
   178   90   92 1    
   179   90  211 1    
   180   91  212 1    
   181   91  213 1    
   182   91  214 1    
   183   92   93 2    
   184   92   94 am   BACKBONE|DICT|INTERRES
   185   94   95 1    
   186   94  215 1    
   187   95   96 1    
   188   95   97 1    
   189   95  216 1    
   190   96  217 1    
   191   96  218 1    
   192   96  219 1    
   193   97   98 2    
   194   97   99 am   BACKBONE|DICT|INTERRES
   195   99  100 1    
   196   99  220 1    
   197  100  101 1    
   198  100  102 1    
   199  100  221 1    
   200  101  222 1    
   201  101  223 1    
   202  101  224 1    
   203  102  103 2    
   204  102  104 am   BACKBONE|DICT|INTERRES
   205  104  105 1    
   206  104  225 1    
   207  105  106 1    
   208  105  107 1    
   209  105  226 1    
   210  106  227 1    
   211  106  228 1    
   212  106  229 1    
   213  107  108 2    
   214  107  109 am   BACKBONE|DICT|INTERRES
   215  109  110 1    
   216  109  230 1    
   217  110  111 1    
   218  110  112 1    
   219  110  231 1    
   220  111  232 1    
   221  111  233 1    
   222  111  234 1    
   223  112  113 2    
   224  112  114 am   BACKBONE|DICT|INTERRES
   225  114  115 1    
   226  114  235 1    
   227  115  116 1    
   228  115  117 1    
   229  115  236 1    
   230  116  237 1    
   231  116  238 1    
   232  116  239 1    
   233  117  118 2    
   234  117  119 am   BACKBONE|DICT|INTERRES
   235  119  120 1    
   236  119  240 1    
   237  120  121 1    
   238  120  124 1    
   239  120  241 1    
   240  121  122 am   BACKBONE|DICT|INTERRES
   241  121  123 2    
   242  122  242 1    
   243  122  243 1    
   244  124  125 1    
   245  124  244 1    
   246  124  245 1    
   247  125  126 1    
   248  126  246 1    
   249  126  247 1    
@<TRIPOS>SUBSTRUCTURE
     1 UNK         1 GROUP             0       ****    0 ROOT    
