@<TRIPOS>MOLECULE
3R540
247   249    1
SMALL
USER_CHARGES


@<TRIPOS>ATOM
      1 CA          3.4924  -10.3392  -47.0237 C.3       0 UNK        -0.1800 
      2 C           3.2939  -11.8183  -47.3215 C.2       0 UNK         0.5000 
      3 O           3.1378  -12.6125  -46.3955 O.2       0 UNK        -0.5000 
      4 N           3.2897  -12.1868  -48.6102 N.am      1 UNK        -0.5000 
      5 CA          3.1196  -13.5585  -49.1107 C.3       1 UNK         0.1400 
      6 C6          3.3001  -13.6044  -50.6515 C.3       23 UNK        -0.0398 
      7 S7          3.5255  -15.2873  -51.3209 S.3       23 UNK        -0.2404 
      8 C8          1.8386  -15.6361  -51.9260 C.3       23 UNK        -0.0205 
      9 C9          1.5789  -17.1190  -52.1615 C.ar      23 UNK        -0.0193 
     10 C10         0.9369  -17.5363  -53.3304 C.ar      23 UNK        -0.1150 
     11 C11         0.6544  -18.8884  -53.5409 C.ar      23 UNK        -0.0193 
     12 C12         1.0166  -19.8296  -52.5719 C.ar      23 UNK        -0.1150 
     13 C13         1.6741  -19.4313  -51.4050 C.ar      23 UNK        -0.0193 
     14 C14         1.9424  -18.0731  -51.2043 C.ar      23 UNK        -0.1150 
     15 C15         2.1614  -20.4753  -50.4059 C.3       23 UNK        -0.0205 
     16 S16         1.6980  -20.1049  -48.6837 S.3       23 UNK        -0.2404 
     17 C17         0.0711  -20.9141  -48.5362 C.3       23 UNK        -0.0398 
     18 CA          0.1598  -22.2235  -47.7196 C.3       11 UNK         0.1400 
     19 N           0.6324  -21.9843  -46.3540 N.am      11 UNK        -0.5000 
     20 C           1.0449  -22.9405  -45.5136 C.2       10 UNK         0.5000 
     21 O           1.0952  -24.1345  -45.8077 O.2       10 UNK        -0.5000 
     22 CA          1.4201  -22.4871  -44.0921 C.3       10 UNK         0.1400 
     23 CB          2.8527  -21.9354  -44.0612 C.3       10 UNK        -0.1800 
     24 N           0.4909  -21.4876  -43.5585 N.am      10 UNK        -0.5000 
     25 C          -0.8056  -21.7276  -43.3122 C.2       9 UNK         0.5000 
     26 O          -1.3360  -22.8251  -43.4774 O.2       9 UNK        -0.5000 
     27 CA         -1.6721  -20.5453  -42.8454 C.3       9 UNK         0.1400 
     28 CB         -1.5218  -20.3286  -41.3339 C.3       9 UNK        -0.1800 
     29 N          -1.3938  -19.3001  -43.5633 N.am      9 UNK        -0.5000 
     30 C          -1.5735  -19.1320  -44.8829 C.2       8 UNK         0.5000 
     31 O          -1.9788  -20.0159  -45.6385 O.2       8 UNK        -0.5000 
     32 CA         -1.2118  -17.7584  -45.4730 C.3       8 UNK         0.1400 
     33 CB         -2.4007  -16.7927  -45.3723 C.3       8 UNK        -0.1800 
     34 N          -0.0283  -17.1651  -44.8517 N.am      8 UNK        -0.5000 
     35 C           1.2019  -17.6887  -44.9606 C.2       7 UNK         0.5000 
     36 O           1.4544  -18.7156  -45.5913 O.2       7 UNK        -0.5000 
     37 CA          2.3276  -16.9817  -44.1859 C.3       7 UNK         0.1400 
     38 CB          2.5229  -15.5357  -44.6685 C.3       7 UNK        -0.1800 
     39 N           2.0997  -16.9908  -42.7404 N.am      7 UNK        -0.5000 
     40 C           1.9819  -18.0916  -41.9824 C.2       6 UNK         0.5000 
     41 O           2.0617  -19.2397  -42.4168 O.2       6 UNK        -0.5000 
     42 CA          1.7029  -17.8812  -40.4816 C.3       6 UNK         0.1400 
     43 CB          3.0229  -17.7952  -39.7008 C.3       6 UNK        -0.1800 
     44 N           0.8855  -16.7055  -40.1704 N.am      6 UNK        -0.5000 
     45 C          -0.3325  -16.4427  -40.6632 C.2       5 UNK         0.5000 
     46 O          -0.8955  -17.1496  -41.5042 O.2       5 UNK        -0.5000 
     47 CA         -1.0338  -15.1719  -40.1534 C.3       5 UNK         0.1400 
     48 CB         -0.0835  -14.1223  -39.5378 C.3       5 UNK        -0.1800 
     49 N          -1.7470  -14.5920  -41.2783 N.am      5 UNK        -0.5000 
     50 C          -2.8518  -13.8498  -41.2431 C.2       4 UNK         0.5000 
     51 O          -3.4097  -13.4997  -40.2012 O.2       4 UNK        -0.5000 
     52 CA         -3.4058  -13.4270  -42.6207 C.3       4 UNK         0.1400 
     53 CB         -4.7065  -12.6110  -42.5124 C.3       4 UNK        -0.1800 
     54 N          -2.4384  -12.6628  -43.4143 N.am      4 UNK        -0.5000 
     55 C          -1.3544  -13.1490  -44.0331 C.2       3 UNK         0.5000 
     56 O          -0.9767  -14.3226  -43.9554 O.2       3 UNK        -0.5000 
     57 CA         -0.5493  -12.1500  -44.8824 C.3       3 UNK         0.1400 
     58 CB          0.7463  -11.7469  -44.1632 C.3       3 UNK        -0.1800 
     59 N          -0.2312  -12.7194  -46.1917 N.am      3 UNK        -0.5000 
     60 C          -1.1505  -13.0213  -47.1214 C.2       2 UNK         0.5000 
     61 O          -2.3430  -12.7317  -47.0107 O.2       2 UNK        -0.5000 
     62 CA         -0.6593  -13.7626  -48.3771 C.3       2 UNK         0.1400 
     63 CB         -1.5660  -13.5292  -49.6005 C.3       2 UNK        -0.1800 
     64 N           0.7074  -13.3737  -48.7196 N.am      2 UNK        -0.5000 
     65 C           1.7729  -14.1829  -48.6786 C.2       1 UNK         0.5000 
     66 O           1.7299  -15.3574  -48.3142 O.2       1 UNK        -0.5000 
     67 C          -1.1792  -22.9903  -47.7220 C.2       11 UNK         0.5000 
     68 O          -1.3519  -23.9163  -48.5155 O.2       11 UNK        -0.5000 
     69 N          -2.0919  -22.6274  -46.8089 N.am      12 UNK        -0.5000 
     70 CA         -3.3672  -23.3128  -46.5969 C.3       12 UNK         0.1400 
     71 CB         -4.2506  -22.4876  -45.6512 C.3       12 UNK        -0.1800 
     72 C          -3.1889  -24.7523  -46.0811 C.2       12 UNK         0.5000 
     73 O          -3.8682  -25.6534  -46.5716 O.2       12 UNK        -0.5000 
     74 N          -2.2426  -24.9603  -45.1539 N.am      13 UNK        -0.5000 
     75 CA         -1.8475  -26.2773  -44.6429 C.3       13 UNK         0.1400 
     76 CB         -0.8893  -26.1028  -43.4553 C.3       13 UNK        -0.1800 
     77 C          -1.2192  -27.1818  -45.7222 C.2       13 UNK         0.5000 
     78 O          -1.4111  -28.3973  -45.6835 O.2       13 UNK        -0.5000 
     79 N          -0.5245  -26.5697  -46.6908 N.am      14 UNK        -0.5000 
     80 CA          0.0083  -27.2178  -47.8915 C.3       14 UNK         0.1400 
     81 CB          1.1637  -26.3661  -48.4438 C.3       14 UNK        -0.1800 
     82 C          -1.0594  -27.4757  -48.9798 C.2       14 UNK         0.5000 
     83 O          -0.7237  -28.0490  -50.0169 O.2       14 UNK        -0.5000 
     84 N          -2.3115  -27.0567  -48.7347 N.am      15 UNK        -0.5000 
     85 CA         -3.4885  -27.1766  -49.6014 C.3       15 UNK         0.1400 
     86 CB         -3.8509  -28.6565  -49.8474 C.3       15 UNK        -0.1800 
     87 C          -3.3772  -26.3513  -50.8999 C.2       15 UNK         0.5000 
     88 O          -3.9156  -26.7515  -51.9338 O.2       15 UNK        -0.5000 
     89 N          -2.6971  -25.2022  -50.8211 N.am      16 UNK        -0.5000 
     90 CA         -2.4838  -24.2736  -51.9253 C.3       16 UNK         0.1400 
     91 CB         -1.1803  -24.6399  -52.6608 C.3       16 UNK        -0.1800 
     92 C          -2.4845  -22.8467  -51.3616 C.2       16 UNK         0.5000 
     93 O          -1.4865  -22.1392  -51.4931 O.2       16 UNK        -0.5000 
     94 N          -3.5935  -22.4840  -50.6945 N.am      17 UNK        -0.5000 
     95 CA         -3.7967  -21.2424  -49.9386 C.3       17 UNK         0.1400 
     96 CB         -5.2581  -21.1601  -49.4730 C.3       17 UNK        -0.1800 
     97 C          -3.4043  -19.9744  -50.7154 C.2       17 UNK         0.5000 
     98 O          -3.8368  -19.8100  -51.8588 O.2       17 UNK        -0.5000 
     99 N          -2.5851  -19.1333  -50.0706 N.am      18 UNK        -0.5000 
    100 CA        -1.9258  -17.9577  -50.6349 C.3       18 UNK         0.1400 
    101 CB        -1.0711  -17.2996  -49.5425 C.3       18 UNK        -0.1800 
    102 C         -2.9253  -16.9505  -51.2191 C.2       18 UNK         0.5000 
    103 O         -3.7126  -16.3750  -50.4663 O.2       18 UNK        -0.5000 
    104 N         -2.9125  -16.8107  -52.5508 N.am      19 UNK        -0.5000 
    105 CA        -3.7963  -16.0074  -53.4079 C.3       19 UNK         0.1400 
    106 CB        -3.6972  -14.5098  -53.0598 C.3       19 UNK        -0.1800 
    107 C         -5.2676  -16.4772  -53.4444 C.2       19 UNK         0.5000 
    108 O         -5.9223  -16.3248  -54.4761 O.2       19 UNK        -0.5000 
    109 N         -5.7610  -17.0390  -52.3354 N.am      20 UNK        -0.5000 
    110 CA        -7.1186  -17.5409  -52.1472 C.3       20 UNK         0.1400 
    111 CB        -7.3373  -17.8145  -50.6515 C.3       20 UNK        -0.1800 
    112 C         -7.4403  -18.7985  -52.9743 C.2       20 UNK         0.5000 
    113 O         -8.6033  -18.9870  -53.3353 O.2       20 UNK        -0.5000 
    114 N         -6.4306  -19.6334  -53.2546 N.am      21 UNK        -0.5000 
    115 CA        -6.5857  -20.8645  -54.0259 C.3       21 UNK         0.1400 
    116 CB        -6.8254  -22.0565  -53.0817 C.3       21 UNK        -0.1800 
    117 C         -5.3777  -21.1076  -54.9370 C.2       21 UNK         0.5000 
    118 O         -5.5537  -21.2285  -56.1495 O.2       21 UNK        -0.5000 
    119 N         -4.1811  -21.1950  -54.3397 N.am      22 UNK        -0.5000 
    120 CA        -2.8983  -21.5013  -55.0023 C.3       22 UNK         0.1400 
    121 C         -2.8145  -22.8858  -55.7215 C.2       22 UNK         0.5000 
    122 N         -3.7322  -23.8163  -55.4890 N.am      22 UNK        -0.7600 
    123 O         -1.8753  -23.1450  -56.4684 O.2       22 UNK        -0.5000 
    124 C124       -2.3955  -20.3229  -55.8825 C.3       23 UNK        -0.0398 
    125 S125       -1.7925  -18.9599  -54.8343 S.3       23 UNK        -0.2404 
    126 C126       -0.0129  -19.3375  -54.8289 C.3       23 UNK        -0.0205 
    127 H127        3.7299   -9.7725  -47.9242 H         1 UNK         0.0600 
    128 H128        4.3087  -10.2057  -46.3140 H         1 UNK         0.0600 
    129 H129        2.5867   -9.9197  -46.5863 H         1 UNK         0.0600 
    130 H130        3.4263  -11.4777  -49.3166 H         1 UNK         0.3000 
    131 H131        3.9127  -14.1571  -48.6571 H         1 UNK         0.0600 
    132 H132        2.4731  -13.1066  -51.1613 H         1 UNK         0.0800 
    133 H133        4.1941  -13.0436  -50.9278 H         1 UNK         0.0800 
    134 H134        1.1015  -15.2770  -51.2096 H         1 UNK         0.0800 
    135 H135        1.6781  -15.0665  -52.8427 H         1 UNK         0.0800 
    136 H136        0.6506  -16.8106  -54.0789 H         1 UNK         0.1150 
    137 H137        0.8054  -20.8773  -52.7367 H         1 UNK         0.1150 
    138 H138        2.4422  -17.7578  -50.2989 H         1 UNK         0.1150 
    139 H139        1.8069  -21.4725  -50.6722 H         1 UNK         0.0800 
    140 H140        3.2497  -20.5145  -50.4650 H         1 UNK         0.0800 
    141 H141       -0.3236  -21.0962  -49.5343 H         1 UNK         0.0800 
    142 H142       -0.6121  -20.2131  -48.0562 H         1 UNK         0.0800 
    143 H143        0.8905  -22.8697  -48.2111 H         1 UNK         0.0600 
    144 H144        0.6452  -21.0222  -46.0403 H         1 UNK         0.3000 
    145 H145        1.3800  -23.3642  -43.4430 H         1 UNK         0.0600 
    146 H146        3.1670  -21.7153  -43.0410 H         1 UNK         0.0600 
    147 H147        3.5602  -22.6576  -44.4704 H         1 UNK         0.0600 
    148 H148        2.9426  -21.0176  -44.6441 H         1 UNK         0.0600 
    149 H149        0.8742  -20.5662  -43.3700 H         1 UNK         0.3000 
    150 H150       -2.7140  -20.8060  -43.0416 H         1 UNK         0.0600 
    151 H151       -1.7658  -21.2378  -40.7829 H         1 UNK         0.0600 
    152 H152       -2.1897  -19.5441  -40.9781 H         1 UNK         0.0600 
    153 H153       -0.5027  -20.0496  -41.0710 H         1 UNK         0.0600 
    154 H154       -1.0735  -18.5149  -43.0048 H         1 UNK         0.3000 
    155 H155       -0.9889  -17.9085  -46.5310 H         1 UNK         0.0600 
    156 H156       -2.6418  -16.5601  -44.3342 H         1 UNK         0.0600 
    157 H157       -2.1915  -15.8555  -45.8881 H         1 UNK         0.0600 
    158 H158       -3.2931  -17.2210  -45.8305 H         1 UNK         0.0600 
    159 H159       -0.1706  -16.3169  -44.3160 H         1 UNK         0.3000 
    160 H160        3.2535  -17.5281  -44.3774 H         1 UNK         0.0600 
    161 H161        3.3718  -15.0630  -44.1747 H         1 UNK         0.0600 
    162 H162        1.6428  -14.9215  -44.4808 H         1 UNK         0.0600 
    163 H163        2.7174  -15.5067  -45.7411 H         1 UNK         0.0600 
    164 H164        1.9990  -16.0930  -42.2917 H         1 UNK         0.3000 
    165 H165        1.1601  -18.7569  -40.1235 H         1 UNK         0.0600 
    166 H166        2.8449  -17.7544  -38.6260 H         1 UNK         0.0600 
    167 H167        3.6474  -18.6692  -39.8914 H         1 UNK         0.0600 
    168 H168        3.5994  -16.9126  -39.9806 H         1 UNK         0.0600 
    169 H169        1.2742  -16.0607  -39.4978 H         1 UNK         0.3000 
    170 H170       -1.7548  -15.4879  -39.3970 H         1 UNK         0.0600 
    171 H171       -0.6289  -13.2261  -39.2414 H         1 UNK         0.0600 
    172 H172        0.6910  -13.8173  -40.2429 H         1 UNK         0.0600 
    173 H173        0.4055  -14.5026  -38.6404 H         1 UNK         0.0600 
    174 H174       -1.3740  -14.8275  -42.1953 H         1 UNK         0.3000 
    175 H175       -3.6387  -14.3456  -43.1635 H         1 UNK         0.0600 
    176 H176       -5.1140  -12.3861  -43.4983 H         1 UNK         0.0600 
    177 H177       -4.5475  -11.6662  -41.9910 H         1 UNK         0.0600 
    178 H178       -5.4720  -13.1640  -41.9665 H         1 UNK         0.0600 
    179 H179       -2.6442  -11.6797  -43.5153 H         1 UNK         0.3000 
    180 H180       -1.1476  -11.2502  -45.0402 H         1 UNK         0.0600 
    181 H181        1.4092  -12.5991  -44.0126 H         1 UNK         0.0600 
    182 H182        0.5326  -11.3209  -43.1822 H         1 UNK         0.0600 
    183 H183        1.2939  -10.9949  -44.7304 H         1 UNK         0.0600 
    184 H184        0.7278  -13.0031  -46.3416 H         1 UNK         0.3000 
    185 H185       -0.7023  -14.8226  -48.1246 H         1 UNK         0.0600 
    186 H186       -1.6302  -12.4715  -49.8577 H         1 UNK         0.0600 
    187 H187       -1.1966  -14.0641  -50.4754 H         1 UNK         0.0600 
    188 H188       -2.5795  -13.8865  -49.4131 H         1 UNK         0.0600 
    189 H189        0.8442  -12.4075  -48.9814 H         1 UNK         0.3000 
    190 H190       -1.9050  -21.8239  -46.2141 H         1 UNK         0.3000 
    191 H191       -3.8743  -23.3742  -47.5617 H         1 UNK         0.0600 
    192 H192       -4.4345  -21.4913  -46.0538 H         1 UNK         0.0600 
    193 H193       -5.2205  -22.9649  -45.5071 H         1 UNK         0.0600 
    194 H194       -3.7918  -22.3721  -44.6694 H         1 UNK         0.0600 
    195 H195       -1.7698  -24.1569  -44.7469 H         1 UNK         0.3000 
    196 H196       -2.7485  -26.7764  -44.2806 H         1 UNK         0.0600 
    197 H197       -0.5988  -27.0693  -43.0417 H         1 UNK         0.0600 
    198 H198       -1.3568  -25.5330  -42.6523 H         1 UNK         0.0600 
    199 H199        0.0231  -25.5827  -43.7472 H         1 UNK         0.0600 
    200 H200       -0.3655  -25.5722  -46.6117 H         1 UNK         0.3000 
    201 H201        0.4160  -28.1898  -47.6067 H         1 UNK         0.0600 
    202 H202        1.9302  -26.2017  -47.6861 H         1 UNK         0.0600 
    203 H203        0.8196  -25.3912  -48.7877 H         1 UNK         0.0600 
    204 H204        1.6451  -26.8587  -49.2893 H         1 UNK         0.0600 
    205 H205       -2.4848  -26.5824  -47.8566 H         1 UNK         0.3000 
    206 H206       -4.3143  -26.7336  -49.0438 H         1 UNK         0.0600 
    207 H207       -3.9257  -29.2049  -48.9083 H         1 UNK         0.0600 
    208 H208       -4.8148  -28.7441  -50.3500 H         1 UNK         0.0600 
    209 H209       -3.1119  -29.1585  -50.4723 H         1 UNK         0.0600 
    210 H210       -2.2807  -24.9255  -49.9346 H         1 UNK         0.3000 
    211 H211       -3.3124  -24.3330  -52.6335 H         1 UNK         0.0600 
    212 H212       -0.3222  -24.6176  -51.9877 H         1 UNK         0.0600 
    213 H213       -0.9786  -23.9453  -53.4766 H         1 UNK         0.0600 
    214 H214       -1.2402  -25.6389  -53.0928 H         1 UNK         0.0600 
    215 H215       -4.3468  -23.1534  -50.6462 H         1 UNK         0.3000 
    216 H216       -3.1680  -21.3084  -49.0511 H         1 UNK         0.0600 
    217 H217       -5.4132  -20.2890  -48.8351 H         1 UNK         0.0600 
    218 H218       -5.5427  -22.0376  -48.8927 H         1 UNK         0.0600 
    219 H219       -5.9470  -21.0751  -50.3135 H         1 UNK         0.0600 
    220 H220       -2.3554  -19.3336  -49.1106 H         1 UNK         0.3000 
    221 H221       -1.2626  -18.3037  -51.4286 H         1 UNK         0.0600 
    222 H222       -1.6794  -16.9656  -48.7015 H         1 UNK         0.0600 
    223 H223       -0.3126  -17.9802  -49.1604 H         1 UNK         0.0600 
    224 H224       -0.5451  -16.4310  -49.9361 H         1 UNK         0.0600 
    225 H225       -2.2799  -17.4087  -53.0682 H         1 UNK         0.3000 
    226 H226       -3.4105  -16.1336  -54.4207 H         1 UNK         0.0600 
    227 H227       -2.6630  -14.1663  -53.0862 H         1 UNK         0.0600 
    228 H228       -4.2585  -13.9077  -53.7752 H         1 UNK         0.0600 
    229 H229       -4.0975  -14.2924  -52.0693 H         1 UNK         0.0600 
    230 H230       -5.1493  -17.0621  -51.5258 H         1 UNK         0.3000 
    231 H231       -7.8119  -16.7565  -52.4573 H         1 UNK         0.0600 
    232 H232       -6.6384  -18.5620  -50.2754 H         1 UNK         0.0600 
    233 H233       -8.3469  -18.1819  -50.4625 H         1 UNK         0.0600 
    234 H234       -7.2057  -16.9073  -50.0615 H         1 UNK         0.0600 
    235 H235       -5.4971  -19.4165  -52.9180 H         1 UNK         0.3000 
    236 H236       -7.4537  -20.7779  -54.6833 H         1 UNK         0.0600 
    237 H237       -7.7177  -21.9044  -52.4742 H         1 UNK         0.0600 
    238 H238       -6.9712  -22.9779  -53.6466 H         1 UNK         0.0600 
    239 H239       -5.9850  -22.2151  -52.4067 H         1 UNK         0.0600 
    240 H240       -4.1121  -20.9791  -53.3496 H         1 UNK         0.3000 
    241 H241       -2.1854  -21.6167  -54.1853 H         1 UNK         0.0600 
    242 H242       -4.5261  -23.6238  -54.9022 H         1 UNK         0.3800 
    243 H243       -3.6558  -24.7082  -55.9521 H         1 UNK         0.3800 
    244 H244       -1.5898  -20.6225  -56.5541 H         1 UNK         0.0800 
    245 H245       -3.1897  -19.9504  -56.5300 H         1 UNK         0.0800 
    246 H246        0.4612  -18.8510  -55.6826 H         1 UNK         0.0800 
    247 H247        0.1412  -20.4094  -54.9635 H         1 UNK         0.0800 
@<TRIPOS>BOND
     1    1    2 1    
     2    1  127 1    
     3    1  128 1    
     4    1  129 1    
     5    2    3 2    
     6    2    4 am   BACKBONE|DICT|INTERRES
     7    4    5 1    
     8    4  130 1    
     9    5    6 1    
    10    5   65 1    
    11    5  131 1    
    12    6    7 1    
    13    6  132 1    
    14    6  133 1    
    15    7    8 1    
    16    8    9 1    
    17    8  134 1    
    18    8  135 1    
    19    9   10 ar   
    20    9   14 ar   
    21   10   11 ar   
    22   10  136 1    
    23   11   12 ar   
    24   11  126 1    
    25   12   13 ar   
    26   12  137 1    
    27   13   14 ar   
    28   13   15 1    
    29   14  138 1    
    30   15   16 1    
    31   15  139 1    
    32   15  140 1    
    33   16   17 1    
    34   17   18 1    
    35   17  141 1    
    36   17  142 1    
    37   18   19 1    
    38   18   67 1    
    39   18  143 1    
    40   19   20 am   BACKBONE|DICT|INTERRES
    41   19  144 1    
    42   20   21 2    
    43   20   22 1    
    44   22   23 1    
    45   22   24 1    
    46   22  145 1    
    47   23  146 1    
    48   23  147 1    
    49   23  148 1    
    50   24   25 am   BACKBONE|DICT|INTERRES
    51   24  149 1    
    52   25   26 2    
    53   25   27 1    
    54   27   28 1    
    55   27   29 1    
    56   27  150 1    
    57   28  151 1    
    58   28  152 1    
    59   28  153 1    
    60   29   30 am   BACKBONE|DICT|INTERRES
    61   29  154 1    
    62   30   31 2    
    63   30   32 1    
    64   32   33 1    
    65   32   34 1    
    66   32  155 1    
    67   33  156 1    
    68   33  157 1    
    69   33  158 1    
    70   34   35 am   BACKBONE|DICT|INTERRES
    71   34  159 1    
    72   35   36 2    
    73   35   37 1    
    74   37   38 1    
    75   37   39 1    
    76   37  160 1    
    77   38  161 1    
    78   38  162 1    
    79   38  163 1    
    80   39   40 am   BACKBONE|DICT|INTERRES
    81   39  164 1    
    82   40   41 2    
    83   40   42 1    
    84   42   43 1    
    85   42   44 1    
    86   42  165 1    
    87   43  166 1    
    88   43  167 1    
    89   43  168 1    
    90   44   45 am   BACKBONE|DICT|INTERRES
    91   44  169 1    
    92   45   46 2    
    93   45   47 1    
    94   47   48 1    
    95   47   49 1    
    96   47  170 1    
    97   48  171 1    
    98   48  172 1    
    99   48  173 1    
   100   49   50 am   BACKBONE|DICT|INTERRES
   101   49  174 1    
   102   50   51 2    
   103   50   52 1    
   104   52   53 1    
   105   52   54 1    
   106   52  175 1    
   107   53  176 1    
   108   53  177 1    
   109   53  178 1    
   110   54   55 am   BACKBONE|DICT|INTERRES
   111   54  179 1    
   112   55   56 2    
   113   55   57 1    
   114   57   58 1    
   115   57   59 1    
   116   57  180 1    
   117   58  181 1    
   118   58  182 1    
   119   58  183 1    
   120   59   60 am   BACKBONE|DICT|INTERRES
   121   59  184 1    
   122   60   61 2    
   123   60   62 1    
   124   62   63 1    
   125   62   64 1    
   126   62  185 1    
   127   63  186 1    
   128   63  187 1    
   129   63  188 1    
   130   64   65 am   BACKBONE|DICT|INTERRES
   131   64  189 1    
   132   65   66 2    
   133   67   68 2    
   134   67   69 am   BACKBONE|DICT|INTERRES
   135   69   70 1    
   136   69  190 1    
   137   70   71 1    
   138   70   72 1    
   139   70  191 1    
   140   71  192 1    
   141   71  193 1    
   142   71  194 1    
   143   72   73 2    
   144   72   74 am   BACKBONE|DICT|INTERRES
   145   74   75 1    
   146   74  195 1    
   147   75   76 1    
   148   75   77 1    
   149   75  196 1    
   150   76  197 1    
   151   76  198 1    
   152   76  199 1    
   153   77   78 2    
   154   77   79 am   BACKBONE|DICT|INTERRES
   155   79   80 1    
   156   79  200 1    
   157   80   81 1    
   158   80   82 1    
   159   80  201 1    
   160   81  202 1    
   161   81  203 1    
   162   81  204 1    
   163   82   83 2    
   164   82   84 am   BACKBONE|DICT|INTERRES
   165   84   85 1    
   166   84  205 1    
   167   85   86 1    
   168   85   87 1    
   169   85  206 1    
   170   86  207 1    
   171   86  208 1    
   172   86  209 1    
   173   87   88 2    
   174   87   89 am   BACKBONE|DICT|INTERRES
   175   89   90 1    
   176   89  210 1    
   177   90   91 1    
   178   90   92 1    
   179   90  211 1    
   180   91  212 1    
   181   91  213 1    
   182   91  214 1    
   183   92   93 2    
   184   92   94 am   BACKBONE|DICT|INTERRES
   185   94   95 1    
   186   94  215 1    
   187   95   96 1    
   188   95   97 1    
   189   95  216 1    
   190   96  217 1    
   191   96  218 1    
   192   96  219 1    
   193   97   98 2    
   194   97   99 am   BACKBONE|DICT|INTERRES
   195   99  100 1    
   196   99  220 1    
   197  100  101 1    
   198  100  102 1    
   199  100  221 1    
   200  101  222 1    
   201  101  223 1    
   202  101  224 1    
   203  102  103 2    
   204  102  104 am   BACKBONE|DICT|INTERRES
   205  104  105 1    
   206  104  225 1    
   207  105  106 1    
   208  105  107 1    
   209  105  226 1    
   210  106  227 1    
   211  106  228 1    
   212  106  229 1    
   213  107  108 2    
   214  107  109 am   BACKBONE|DICT|INTERRES
   215  109  110 1    
   216  109  230 1    
   217  110  111 1    
   218  110  112 1    
   219  110  231 1    
   220  111  232 1    
   221  111  233 1    
   222  111  234 1    
   223  112  113 2    
   224  112  114 am   BACKBONE|DICT|INTERRES
   225  114  115 1    
   226  114  235 1    
   227  115  116 1    
   228  115  117 1    
   229  115  236 1    
   230  116  237 1    
   231  116  238 1    
   232  116  239 1    
   233  117  118 2    
   234  117  119 am   BACKBONE|DICT|INTERRES
   235  119  120 1    
   236  119  240 1    
   237  120  121 1    
   238  120  124 1    
   239  120  241 1    
   240  121  122 am   BACKBONE|DICT|INTERRES
   241  121  123 2    
   242  122  242 1    
   243  122  243 1    
   244  124  125 1    
   245  124  244 1    
   246  124  245 1    
   247  125  126 1    
   248  126  246 1    
   249  126  247 1    
@<TRIPOS>SUBSTRUCTURE
     1 UNK         1 GROUP             0       ****    0 ROOT    
