@<TRIPOS>MOLECULE
3R540
247   249    1
SMALL
USER_CHARGES


@<TRIPOS>ATOM
      1 CA         -2.2213  -15.0682  -46.4525 C.3       0 UNK        -0.1800 
      2 C          -2.1633  -13.6020  -46.8542 C.2       0 UNK         0.5000 
      3 O          -2.6407  -12.7437  -46.1127 O.2       0 UNK        -0.5000 
      4 N          -1.5690  -13.3112  -48.0194 N.am      1 UNK        -0.5000 
      5 CA         -1.3803  -11.9507  -48.5464 C.3       1 UNK         0.1400 
      6 C6         -1.2114  -11.9341  -50.0873 C.3       23 UNK        -0.0398 
      7 S7         -2.6704  -12.5997  -50.9687 S.3       23 UNK        -0.2404 
      8 C8         -1.9534  -13.9278  -51.9943 C.3       23 UNK        -0.0205 
      9 C9         -2.6833  -15.2493  -51.8045 C.ar      23 UNK        -0.0193 
     10 C10        -3.3834  -15.8415  -52.8608 C.ar      23 UNK        -0.1150 
     11 C11        -4.0089  -17.0821  -52.6910 C.ar      23 UNK        -0.0193 
     12 C12        -3.9365  -17.7240  -51.4514 C.ar      23 UNK        -0.1150 
     13 C13        -3.2474  -17.1387  -50.3877 C.ar      23 UNK        -0.0193 
     14 C14        -2.6243  -15.9031  -50.5725 C.ar      23 UNK        -0.1150 
     15 C15        -3.1665  -17.8295  -49.0377 C.3       23 UNK        -0.0205 
     16 S16        -1.4509  -18.2799  -48.6434 S.3       23 UNK        -0.2404 
     17 C17        -1.6113  -18.7854  -46.9062 C.3       23 UNK        -0.0398 
     18 CA         -1.1755  -20.2523  -46.6904 C.3       11 UNK         0.1400 
     19 N          -0.5750  -20.4385  -45.3673 N.am      11 UNK        -0.5000 
     20 C           0.0327  -21.5557  -44.9490 C.2       10 UNK         0.5000 
     21 O           0.1766  -22.5561  -45.6495 O.2       10 UNK        -0.5000 
     22 CA          0.5050  -21.5816  -43.4833 C.3       10 UNK         0.1400 
     23 CB          1.9177  -20.9936  -43.3549 C.3       10 UNK        -0.1800 
     24 N          -0.3997  -20.8975  -42.5542 N.am      10 UNK        -0.5000 
     25 C          -1.7010  -21.1855  -42.3887 C.2       9 UNK         0.5000 
     26 O          -2.2960  -22.0337  -43.0568 O.2       9 UNK        -0.5000 
     27 CA         -2.4602  -20.3895  -41.3046 C.3       9 UNK         0.1400 
     28 CB         -3.7858  -21.0558  -40.8824 C.3       9 UNK        -0.1800 
     29 N          -1.6316  -20.0894  -40.1339 N.am      9 UNK        -0.5000 
     30 C          -1.0051  -20.9671  -39.3320 C.2       8 UNK         0.5000 
     31 O          -1.1501  -22.1879  -39.4127 O.2       8 UNK        -0.5000 
     32 CA         -0.0468  -20.3881  -38.2642 C.3       8 UNK         0.1400 
     33 CB          1.2018  -21.2730  -38.0648 C.3       8 UNK        -0.1800 
     34 N           0.3501  -18.9918  -38.4962 N.am      8 UNK        -0.5000 
     35 C           0.9942  -18.4965  -39.5630 C.2       7 UNK         0.5000 
     36 O           1.3631  -19.1702  -40.5274 O.2       7 UNK        -0.5000 
     37 CA          1.2124  -16.9732  -39.5666 C.3       7 UNK         0.1400 
     38 CB          2.7083  -16.6446  -39.4430 C.3       7 UNK        -0.1800 
     39 N           0.6699  -16.3345  -40.7669 N.am      7 UNK        -0.5000 
     40 C          -0.5877  -16.4429  -41.2224 C.2       6 UNK         0.5000 
     41 O          -1.4739  -17.0801  -40.6498 O.2       6 UNK        -0.5000 
     42 CA         -0.9088  -15.7303  -42.5503 C.3       6 UNK         0.1400 
     43 CB         -1.3181  -14.2713  -42.3022 C.3       6 UNK        -0.1800 
     44 N           0.2077  -15.7619  -43.4945 N.am      6 UNK        -0.5000 
     45 C           0.6444  -16.8662  -44.1157 C.2       5 UNK         0.5000 
     46 O           0.1076  -17.9689  -44.0017 O.2       5 UNK        -0.5000 
     47 CA          1.8881  -16.7112  -45.0094 C.3       5 UNK         0.1400 
     48 CB          1.5011  -16.2701  -46.4304 C.3       5 UNK        -0.1800 
     49 N           2.8216  -15.7353  -44.4489 N.am      5 UNK        -0.5000 
     50 C           3.7651  -16.0252  -43.5427 C.2       4 UNK         0.5000 
     51 O           3.9942  -17.1636  -43.1348 O.2       4 UNK        -0.5000 
     52 CA          4.5961  -14.8477  -42.9938 C.3       4 UNK         0.1400 
     53 CB          5.9101  -14.7077  -43.7771 C.3       4 UNK        -0.1800 
     54 N           3.8876  -13.5661  -43.0225 N.am      4 UNK        -0.5000 
     55 C           2.8215  -13.2684  -42.2676 C.2       3 UNK         0.5000 
     56 O           2.3223  -14.0441  -41.4551 O.2       3 UNK        -0.5000 
     57 CA          2.1676  -11.8940  -42.5012 C.3       3 UNK         0.1400 
     58 CB          2.8373  -10.8242  -41.6261 C.3       3 UNK        -0.1800 
     59 N           2.1853  -11.4579  -43.9013 N.am      3 UNK        -0.5000 
     60 C           1.6349  -12.1283  -44.9214 C.2       2 UNK         0.5000 
     61 O           1.1075  -13.2398  -44.8091 O.2       2 UNK        -0.5000 
     62 CA          1.7303  -11.4677  -46.3021 C.3       2 UNK         0.1400 
     63 CB          3.0611  -11.8293  -46.9807 C.3       2 UNK        -0.1800 
     64 N           0.6293  -11.9608  -47.1187 N.am      2 UNK        -0.5000 
     65 C          -0.2000  -11.2198  -47.8630 C.2       1 UNK         0.5000 
     66 O          -0.0679  -10.0054  -48.0230 O.2       1 UNK        -0.5000 
     67 C          -2.3523  -21.2136  -46.9612 C.2       11 UNK         0.5000 
     68 O          -2.4946  -21.7038  -48.0837 O.2       11 UNK        -0.5000 
     69 N          -3.1641  -21.4706  -45.9256 N.am      12 UNK        -0.5000 
     70 CA         -4.2929  -22.3974  -45.9721 C.3       12 UNK         0.1400 
     71 CB         -5.2767  -22.0811  -44.8361 C.3       12 UNK        -0.1800 
     72 C          -3.8177  -23.8560  -45.9009 C.2       12 UNK         0.5000 
     73 O          -4.3315  -24.6924  -46.6429 O.2       12 UNK        -0.5000 
     74 N          -2.8077  -24.1250  -45.0598 N.am      13 UNK        -0.5000 
     75 CA         -2.1415  -25.4261  -44.9377 C.3       13 UNK         0.1400 
     76 CB         -1.1417  -25.3805  -43.7732 C.3       13 UNK        -0.1800 
     77 C          -1.4454  -25.8703  -46.2407 C.2       13 UNK         0.5000 
     78 O          -1.4310  -27.0619  -46.5496 O.2       13 UNK        -0.5000 
     79 N          -0.9331  -24.8964  -47.0052 N.am      14 UNK        -0.5000 
     80 CA         -0.3832  -25.0636  -48.3510 C.3       14 UNK         0.1400 
     81 CB          0.4748  -23.8319  -48.6889 C.3       14 UNK        -0.1800 
     82 C          -1.4514  -25.2890  -49.4433 C.2       14 UNK         0.5000 
     83 O          -1.0754  -25.5057  -50.5929 O.2       14 UNK        -0.5000 
     84 N          -2.7446  -25.2251  -49.0905 N.am      15 UNK        -0.5000 
     85 CA         -3.9108  -25.3197  -49.9729 C.3       15 UNK         0.1400 
     86 CB         -3.9779  -26.6868  -50.6871 C.3       15 UNK        -0.1800 
     87 C          -3.9843  -24.1175  -50.9324 C.2       15 UNK         0.5000 
     88 O          -3.9449  -24.2846  -52.1523 O.2       15 UNK        -0.5000 
     89 N          -4.0736  -22.9199  -50.3358 N.am      16 UNK        -0.5000 
     90 CA         -4.1595  -21.6070  -50.9795 C.3       16 UNK         0.1400 
     91 CB         -5.4470  -21.4759  -51.8176 C.3       16 UNK        -0.1800 
     92 C          -2.8725  -21.2722  -51.7533 C.2       16 UNK         0.5000 
     93 O          -2.8969  -21.0869  -52.9718 O.2       16 UNK        -0.5000 
     94 N          -1.7630  -21.2382  -51.0025 N.am      17 UNK        -0.5000 
     95 CA         -0.3960  -20.9096  -51.4319 C.3       17 UNK         0.1400 
     96 CB         -0.3312  -19.4919  -52.0397 C.3       17 UNK        -0.1800 
     97 C           0.2559  -21.9471  -52.3717 C.2       17 UNK         0.5000 
     98 O           1.3437  -21.6837  -52.8870 O.2       17 UNK        -0.5000 
     99 N          -0.4016  -23.0967  -52.5789 N.am      18 UNK        -0.5000 
    100 CA        -0.0322  -24.2458  -53.4150 C.3       18 UNK         0.1400 
    101 CB         1.2899  -24.8877  -52.9469 C.3       18 UNK        -0.1800 
    102 C          0.0053  -23.9456  -54.9249 C.2       18 UNK         0.5000 
    103 O         -0.6742  -24.6231  -55.6960 O.2       18 UNK        -0.5000 
    104 N          0.8094  -22.9539  -55.3222 N.am      19 UNK        -0.5000 
    105 CA         1.0226  -22.5484  -56.7094 C.3       19 UNK         0.1400 
    106 CB         2.3252  -21.7389  -56.7999 C.3       19 UNK        -0.1800 
    107 C         -0.1557  -21.7424  -57.2807 C.2       19 UNK         0.5000 
    108 O         -0.4650  -21.8843  -58.4645 O.2       19 UNK        -0.5000 
    109 N         -0.7817  -20.9071  -56.4397 N.am      20 UNK        -0.5000 
    110 CA        -1.9285  -20.0812  -56.8152 C.3       20 UNK         0.1400 
    111 CB        -2.0388  -18.8837  -55.8620 C.3       20 UNK        -0.1800 
    112 C         -3.2253  -20.9075  -56.8508 C.2       20 UNK         0.5000 
    113 O         -3.9303  -20.8798  -57.8601 O.2       20 UNK        -0.5000 
    114 N         -3.4874  -21.6500  -55.7633 N.am      21 UNK        -0.5000 
    115 CA        -4.5805  -22.6133  -55.5885 C.3       21 UNK         0.1400 
    116 CB        -4.3669  -23.8383  -56.5017 C.3       21 UNK        -0.1800 
    117 C         -5.9849  -21.9863  -55.7388 C.2       21 UNK         0.5000 
    118 O         -6.8770  -22.5993  -56.3281 O.2       21 UNK        -0.5000 
    119 N         -6.1531  -20.7650  -55.2138 N.am      22 UNK        -0.5000 
    120 CA        -7.3879  -19.9660  -55.3183 C.3       22 UNK         0.1400 
    121 C         -8.5794  -20.4241  -54.4221 C.2       22 UNK         0.5000 
    122 N         -8.4268  -21.4237  -53.5628 N.am      22 UNK        -0.7600 
    123 O         -9.6721  -19.8726  -54.5233 O.2       22 UNK        -0.5000 
    124 C124       -7.1023  -18.4446  -55.2060 C.3       23 UNK        -0.0398 
    125 S125       -6.5210  -17.8812  -53.5657 S.3       23 UNK        -0.2404 
    126 C126       -4.7314  -17.7461  -53.8533 C.3       23 UNK        -0.0205 
    127 H127       -3.2526  -15.4198  -46.4574 H         1 UNK         0.0600 
    128 H128       -1.6401  -15.6925  -47.1296 H         1 UNK         0.0600 
    129 H129       -1.8210  -15.1974  -45.4480 H         1 UNK         0.0600 
    130 H130       -1.1978  -14.0547  -48.5912 H         1 UNK         0.3000 
    131 H131       -2.2756  -11.3705  -48.3121 H         1 UNK         0.0600 
    132 H132       -1.0704  -10.9108  -50.4404 H         1 UNK         0.0800 
    133 H133       -0.3074  -12.4726  -50.3734 H         1 UNK         0.0800 
    134 H134       -0.8996  -14.0835  -51.7632 H         1 UNK         0.0800 
    135 H135       -1.9886  -13.6151  -53.0390 H         1 UNK         0.0800 
    136 H136       -3.4269  -15.3448  -53.8198 H         1 UNK         0.1150 
    137 H137       -4.4224  -18.6775  -51.3175 H         1 UNK         0.1150 
    138 H138       -2.0805  -15.4558  -49.7550 H         1 UNK         0.1150 
    139 H139       -3.5585  -17.1558  -48.2751 H         1 UNK         0.0800 
    140 H140       -3.7883  -18.7253  -49.0150 H         1 UNK         0.0800 
    141 H141       -0.9731  -18.1117  -46.3402 H         1 UNK         0.0800 
    142 H142       -2.6197  -18.5976  -46.5323 H         1 UNK         0.0800 
    143 H143       -0.3905  -20.4963  -47.4100 H         1 UNK         0.0600 
    144 H144       -0.5808  -19.6386  -44.7400 H         1 UNK         0.3000 
    145 H145        0.5490  -22.6270  -43.1744 H         1 UNK         0.0600 
    146 H146        2.3073  -21.1253  -42.3453 H         1 UNK         0.0600 
    147 H147        2.6116  -21.4859  -44.0373 H         1 UNK         0.0600 
    148 H148        1.9347  -19.9269  -43.5802 H         1 UNK         0.0600 
    149 H149        0.0220  -20.1889  -41.9642 H         1 UNK         0.3000 
    150 H150       -2.7052  -19.4272  -41.7561 H         1 UNK         0.0600 
    151 H151       -4.4727  -21.1272  -41.7258 H         1 UNK         0.0600 
    152 H152       -4.2880  -20.4783  -40.1064 H         1 UNK         0.0600 
    153 H153       -3.6294  -22.0656  -40.5021 H         1 UNK         0.0600 
    154 H154       -1.4412  -19.1028  -39.9954 H         1 UNK         0.3000 
    155 H155       -0.6066  -20.3922  -37.3280 H         1 UNK         0.0600 
    156 H156        1.8630  -20.8573  -37.3045 H         1 UNK         0.0600 
    157 H157        1.7745  -21.3779  -38.9868 H         1 UNK         0.0600 
    158 H158        0.9253  -22.2757  -37.7370 H         1 UNK         0.0600 
    159 H159        0.0629  -18.3442  -37.7751 H         1 UNK         0.3000 
    160 H160        0.6968  -16.5390  -38.7080 H         1 UNK         0.0600 
    161 H161        3.2635  -16.9688  -40.3243 H         1 UNK         0.0600 
    162 H162        3.1485  -17.1391  -38.5762 H         1 UNK         0.0600 
    163 H163        2.8692  -15.5739  -39.3191 H         1 UNK         0.0600 
    164 H164        1.3106  -15.7330  -41.2741 H         1 UNK         0.3000 
    165 H165       -1.7544  -16.2474  -43.0087 H         1 UNK         0.0600 
    166 H166       -0.5195  -13.7073  -41.8204 H         1 UNK         0.0600 
    167 H167       -1.5697  -13.7661  -43.2353 H         1 UNK         0.0600 
    168 H168       -2.1943  -14.2174  -41.6550 H         1 UNK         0.0600 
    169 H169        0.6629  -14.8786  -43.6954 H         1 UNK         0.3000 
    170 H170        2.3782  -17.6847  -45.0803 H         1 UNK         0.0600 
    171 H171        0.9386  -17.0487  -46.9431 H         1 UNK         0.0600 
    172 H172        0.8895  -15.3679  -46.4266 H         1 UNK         0.0600 
    173 H173        2.3858  -16.0696  -47.0349 H         1 UNK         0.0600 
    174 H174        2.6627  -14.7675  -44.6960 H         1 UNK         0.3000 
    175 H175        4.8397  -15.0759  -41.9538 H         1 UNK         0.0600 
    176 H176        5.7302  -14.4571  -44.8234 H         1 UNK         0.0600 
    177 H177        6.5442  -13.9311  -43.3490 H         1 UNK         0.0600 
    178 H178        6.4790  -15.6382  -43.7554 H         1 UNK         0.0600 
    179 H179        4.2271  -12.8709  -43.6706 H         1 UNK         0.3000 
    180 H180        1.1223  -11.9735  -42.1974 H         1 UNK         0.0600 
    181 H181        2.8205  -11.1134  -40.5743 H         1 UNK         0.0600 
    182 H182        3.8795  -10.6677  -41.9071 H         1 UNK         0.0600 
    183 H183        2.3199   -9.8679  -41.7062 H         1 UNK         0.0600 
    184 H184        2.6148  -10.5620  -44.0827 H         1 UNK         0.3000 
    185 H185        1.6631  -10.3850  -46.1766 H         1 UNK         0.0600 
    186 H186        3.9104  -11.4717  -46.3974 H         1 UNK         0.0600 
    187 H187        3.1730  -12.9081  -47.0996 H         1 UNK         0.0600 
    188 H188        3.1327  -11.3757  -47.9694 H         1 UNK         0.0600 
    189 H189        0.3962  -12.9319  -46.9633 H         1 UNK         0.3000 
    190 H190       -2.9280  -21.0968  -45.0163 H         1 UNK         0.3000 
    191 H191       -4.8186  -22.2585  -46.9194 H         1 UNK         0.0600 
    192 H192       -6.1608  -22.7163  -44.9019 H         1 UNK         0.0600 
    193 H193       -5.6155  -21.0461  -44.8830 H         1 UNK         0.0600 
    194 H194       -4.8314  -22.2453  -43.8552 H         1 UNK         0.0600 
    195 H195       -2.4744  -23.3813  -44.4526 H         1 UNK         0.3000 
    196 H196       -2.9076  -26.1672  -44.7013 H         1 UNK         0.0600 
    197 H197       -0.7027  -26.3636  -43.5992 H         1 UNK         0.0600 
    198 H198       -1.6250  -25.0695  -42.8466 H         1 UNK         0.0600 
    199 H199       -0.3239  -24.6893  -43.9738 H         1 UNK         0.0600 
    200 H200       -0.9028  -23.9564  -46.6239 H         1 UNK         0.3000 
    201 H201        0.2663  -25.9412  -48.3504 H         1 UNK         0.0600 
    202 H202        1.2805  -23.7032  -47.9661 H         1 UNK         0.0600 
    203 H203       -0.1191  -22.9181  -48.6935 H         1 UNK         0.0600 
    204 H204        0.9368  -23.9277  -49.6722 H         1 UNK         0.0600 
    205 H205       -2.9651  -25.0486  -48.1170 H         1 UNK         0.3000 
    206 H206       -4.7883  -25.2536  -49.3282 H         1 UNK         0.0600 
    207 H207       -3.9307  -27.5072  -49.9711 H         1 UNK         0.0600 
    208 H208       -4.9141  -26.7882  -51.2371 H         1 UNK         0.0600 
    209 H209       -3.1677  -26.8201  -51.4041 H         1 UNK         0.0600 
    210 H210       -3.9883  -22.8892  -49.3280 H         1 UNK         0.3000 
    211 H211       -4.2284  -20.8758  -50.1733 H         1 UNK         0.0600 
    212 H212       -5.4958  -22.2168  -52.6124 H         1 UNK         0.0600 
    213 H213       -5.5171  -20.4936  -52.2830 H         1 UNK         0.0600 
    214 H214       -6.3316  -21.6004  -51.1933 H         1 UNK         0.0600 
    215 H215       -1.8736  -21.4303  -50.0113 H         1 UNK         0.3000 
    216 H216        0.2043  -20.9049  -50.5211 H         1 UNK         0.0600 
    217 H217       -0.7709  -19.4585  -53.0350 H         1 UNK         0.0600 
    218 H218        0.7013  -19.1536  -52.1316 H         1 UNK         0.0600 
    219 H219       -0.8557  -18.7627  -51.4249 H         1 UNK         0.0600 
    220 H220       -1.2968  -23.1935  -52.1201 H         1 UNK         0.3000 
    221 H221       -0.8237  -24.9816  -53.2635 H         1 UNK         0.0600 
    222 H222        2.1425  -24.2213  -53.0782 H         1 UNK         0.0600 
    223 H223        1.2449  -25.1655  -51.8945 H         1 UNK         0.0600 
    224 H224        1.4991  -25.7966  -53.5120 H         1 UNK         0.0600 
    225 H225        1.2967  -22.4312  -54.5984 H         1 UNK         0.3000 
    226 H226        1.1385  -23.4473  -57.3187 H         1 UNK         0.0600 
    227 H227        3.1792  -22.3292  -56.4674 H         1 UNK         0.0600 
    228 H228        2.5236  -21.4309  -57.8273 H         1 UNK         0.0600 
    229 H229        2.2826  -20.8370  -56.1879 H         1 UNK         0.0600 
    230 H230       -0.4726  -20.8637  -55.4805 H         1 UNK         0.3000 
    231 H231       -1.7588  -19.6842  -57.8187 H         1 UNK         0.0600 
    232 H232       -2.2044  -19.1987  -54.8331 H         1 UNK         0.0600 
    233 H233       -1.1323  -18.2787  -55.8828 H         1 UNK         0.0600 
    234 H234       -2.8660  -18.2359  -56.1523 H         1 UNK         0.0600 
    235 H235       -2.8985  -21.5323  -54.9448 H         1 UNK         0.3000 
    236 H236       -4.5088  -22.9658  -54.5599 H         1 UNK         0.0600 
    237 H237       -3.3773  -24.2703  -56.3537 H         1 UNK         0.0600 
    238 H238       -5.0954  -24.6203  -56.2851 H         1 UNK         0.0600 
    239 H239       -4.4655  -23.5802  -57.5565 H         1 UNK         0.0600 
    240 H240       -5.3793  -20.3370  -54.7295 H         1 UNK         0.3000 
    241 H241       -7.7542  -20.1166  -56.3359 H         1 UNK         0.0600 
    242 H242       -7.5456  -21.9018  -53.4866 H         1 UNK         0.3800 
    243 H243       -9.2091  -21.7133  -52.9973 H         1 UNK         0.3800 
    244 H244       -8.0052  -17.8807  -55.4459 H         1 UNK         0.0800 
    245 H245       -6.3786  -18.1532  -55.9682 H         1 UNK         0.0800 
    246 H246       -4.5559  -17.1884  -54.7741 H         1 UNK         0.0800 
    247 H247       -4.3213  -18.7445  -54.0011 H         1 UNK         0.0800 
@<TRIPOS>BOND
     1    1    2 1    
     2    1  127 1    
     3    1  128 1    
     4    1  129 1    
     5    2    3 2    
     6    2    4 am   BACKBONE|DICT|INTERRES
     7    4    5 1    
     8    4  130 1    
     9    5    6 1    
    10    5   65 1    
    11    5  131 1    
    12    6    7 1    
    13    6  132 1    
    14    6  133 1    
    15    7    8 1    
    16    8    9 1    
    17    8  134 1    
    18    8  135 1    
    19    9   10 ar   
    20    9   14 ar   
    21   10   11 ar   
    22   10  136 1    
    23   11   12 ar   
    24   11  126 1    
    25   12   13 ar   
    26   12  137 1    
    27   13   14 ar   
    28   13   15 1    
    29   14  138 1    
    30   15   16 1    
    31   15  139 1    
    32   15  140 1    
    33   16   17 1    
    34   17   18 1    
    35   17  141 1    
    36   17  142 1    
    37   18   19 1    
    38   18   67 1    
    39   18  143 1    
    40   19   20 am   BACKBONE|DICT|INTERRES
    41   19  144 1    
    42   20   21 2    
    43   20   22 1    
    44   22   23 1    
    45   22   24 1    
    46   22  145 1    
    47   23  146 1    
    48   23  147 1    
    49   23  148 1    
    50   24   25 am   BACKBONE|DICT|INTERRES
    51   24  149 1    
    52   25   26 2    
    53   25   27 1    
    54   27   28 1    
    55   27   29 1    
    56   27  150 1    
    57   28  151 1    
    58   28  152 1    
    59   28  153 1    
    60   29   30 am   BACKBONE|DICT|INTERRES
    61   29  154 1    
    62   30   31 2    
    63   30   32 1    
    64   32   33 1    
    65   32   34 1    
    66   32  155 1    
    67   33  156 1    
    68   33  157 1    
    69   33  158 1    
    70   34   35 am   BACKBONE|DICT|INTERRES
    71   34  159 1    
    72   35   36 2    
    73   35   37 1    
    74   37   38 1    
    75   37   39 1    
    76   37  160 1    
    77   38  161 1    
    78   38  162 1    
    79   38  163 1    
    80   39   40 am   BACKBONE|DICT|INTERRES
    81   39  164 1    
    82   40   41 2    
    83   40   42 1    
    84   42   43 1    
    85   42   44 1    
    86   42  165 1    
    87   43  166 1    
    88   43  167 1    
    89   43  168 1    
    90   44   45 am   BACKBONE|DICT|INTERRES
    91   44  169 1    
    92   45   46 2    
    93   45   47 1    
    94   47   48 1    
    95   47   49 1    
    96   47  170 1    
    97   48  171 1    
    98   48  172 1    
    99   48  173 1    
   100   49   50 am   BACKBONE|DICT|INTERRES
   101   49  174 1    
   102   50   51 2    
   103   50   52 1    
   104   52   53 1    
   105   52   54 1    
   106   52  175 1    
   107   53  176 1    
   108   53  177 1    
   109   53  178 1    
   110   54   55 am   BACKBONE|DICT|INTERRES
   111   54  179 1    
   112   55   56 2    
   113   55   57 1    
   114   57   58 1    
   115   57   59 1    
   116   57  180 1    
   117   58  181 1    
   118   58  182 1    
   119   58  183 1    
   120   59   60 am   BACKBONE|DICT|INTERRES
   121   59  184 1    
   122   60   61 2    
   123   60   62 1    
   124   62   63 1    
   125   62   64 1    
   126   62  185 1    
   127   63  186 1    
   128   63  187 1    
   129   63  188 1    
   130   64   65 am   BACKBONE|DICT|INTERRES
   131   64  189 1    
   132   65   66 2    
   133   67   68 2    
   134   67   69 am   BACKBONE|DICT|INTERRES
   135   69   70 1    
   136   69  190 1    
   137   70   71 1    
   138   70   72 1    
   139   70  191 1    
   140   71  192 1    
   141   71  193 1    
   142   71  194 1    
   143   72   73 2    
   144   72   74 am   BACKBONE|DICT|INTERRES
   145   74   75 1    
   146   74  195 1    
   147   75   76 1    
   148   75   77 1    
   149   75  196 1    
   150   76  197 1    
   151   76  198 1    
   152   76  199 1    
   153   77   78 2    
   154   77   79 am   BACKBONE|DICT|INTERRES
   155   79   80 1    
   156   79  200 1    
   157   80   81 1    
   158   80   82 1    
   159   80  201 1    
   160   81  202 1    
   161   81  203 1    
   162   81  204 1    
   163   82   83 2    
   164   82   84 am   BACKBONE|DICT|INTERRES
   165   84   85 1    
   166   84  205 1    
   167   85   86 1    
   168   85   87 1    
   169   85  206 1    
   170   86  207 1    
   171   86  208 1    
   172   86  209 1    
   173   87   88 2    
   174   87   89 am   BACKBONE|DICT|INTERRES
   175   89   90 1    
   176   89  210 1    
   177   90   91 1    
   178   90   92 1    
   179   90  211 1    
   180   91  212 1    
   181   91  213 1    
   182   91  214 1    
   183   92   93 2    
   184   92   94 am   BACKBONE|DICT|INTERRES
   185   94   95 1    
   186   94  215 1    
   187   95   96 1    
   188   95   97 1    
   189   95  216 1    
   190   96  217 1    
   191   96  218 1    
   192   96  219 1    
   193   97   98 2    
   194   97   99 am   BACKBONE|DICT|INTERRES
   195   99  100 1    
   196   99  220 1    
   197  100  101 1    
   198  100  102 1    
   199  100  221 1    
   200  101  222 1    
   201  101  223 1    
   202  101  224 1    
   203  102  103 2    
   204  102  104 am   BACKBONE|DICT|INTERRES
   205  104  105 1    
   206  104  225 1    
   207  105  106 1    
   208  105  107 1    
   209  105  226 1    
   210  106  227 1    
   211  106  228 1    
   212  106  229 1    
   213  107  108 2    
   214  107  109 am   BACKBONE|DICT|INTERRES
   215  109  110 1    
   216  109  230 1    
   217  110  111 1    
   218  110  112 1    
   219  110  231 1    
   220  111  232 1    
   221  111  233 1    
   222  111  234 1    
   223  112  113 2    
   224  112  114 am   BACKBONE|DICT|INTERRES
   225  114  115 1    
   226  114  235 1    
   227  115  116 1    
   228  115  117 1    
   229  115  236 1    
   230  116  237 1    
   231  116  238 1    
   232  116  239 1    
   233  117  118 2    
   234  117  119 am   BACKBONE|DICT|INTERRES
   235  119  120 1    
   236  119  240 1    
   237  120  121 1    
   238  120  124 1    
   239  120  241 1    
   240  121  122 am   BACKBONE|DICT|INTERRES
   241  121  123 2    
   242  122  242 1    
   243  122  243 1    
   244  124  125 1    
   245  124  244 1    
   246  124  245 1    
   247  125  126 1    
   248  126  246 1    
   249  126  247 1    
@<TRIPOS>SUBSTRUCTURE
     1 UNK         1 GROUP             0       ****    0 ROOT    
