@<TRIPOS>MOLECULE
3R540
247   249    1
SMALL
USER_CHARGES


@<TRIPOS>ATOM
      1 CA         -0.9606   -9.8917  -46.8117 C.3       0 UNK        -0.1800 
      2 C          -0.5044  -10.9718  -45.8433 C.2       0 UNK         0.5000 
      3 O           0.4918  -10.7884  -45.1445 O.2       0 UNK        -0.5000 
      4 N          -1.2403  -12.0888  -45.7766 N.am      1 UNK        -0.5000 
      5 CA         -0.9550  -13.2743  -44.9514 C.3       1 UNK         0.1400 
      6 C6         -1.8502  -14.4770  -45.3405 C.3       23 UNK        -0.0398 
      7 S7         -3.6465  -14.1285  -45.2754 S.3       23 UNK        -0.2404 
      8 C8         -4.1290  -14.1819  -47.0359 C.3       23 UNK        -0.0205 
      9 C9         -3.9345  -15.5658  -47.6387 C.ar      23 UNK        -0.0193 
     10 C10        -2.9138  -15.7977  -48.5646 C.ar      23 UNK        -0.1150 
     11 C11        -2.6769  -17.0823  -49.0640 C.ar      23 UNK        -0.0193 
     12 C12        -3.4864  -18.1394  -48.6332 C.ar      23 UNK        -0.1150 
     13 C13        -4.5270  -17.9148  -47.7254 C.ar      23 UNK        -0.0193 
     14 C14        -4.7539  -16.6242  -47.2424 C.ar      23 UNK        -0.1150 
     15 C15        -5.3767  -19.0723  -47.2242 C.3       23 UNK        -0.0205 
     16 S16        -5.0672  -19.4553  -45.4651 S.3       23 UNK        -0.2404 
     17 C17        -3.2567  -19.6921  -45.4218 C.3       23 UNK        -0.0398 
     18 CA         -2.8115  -21.0272  -46.0637 C.3       11 UNK         0.1400 
     19 N          -1.4678  -20.9317  -46.6400 N.am      11 UNK        -0.5000 
     20 C          -0.9248  -21.8370  -47.4651 C.2       10 UNK         0.5000 
     21 O          -1.5203  -22.8329  -47.8713 O.2       10 UNK        -0.5000 
     22 CA          0.5497  -21.6275  -47.8555 C.3       10 UNK         0.1400 
     23 CB          0.6753  -20.6369  -49.0201 C.3       10 UNK        -0.1800 
     24 N           1.3667  -21.1775  -46.7267 N.am      10 UNK        -0.5000 
     25 C           1.6021  -21.9149  -45.6320 C.2       9 UNK         0.5000 
     26 O           1.2320  -23.0819  -45.5087 O.2       9 UNK        -0.5000 
     27 CA          2.3247  -21.2255  -44.4594 C.3       9 UNK         0.1400 
     28 CB          3.8480  -21.2933  -44.6406 C.3       9 UNK        -0.1800 
     29 N           1.9092  -19.8341  -44.2692 N.am      9 UNK        -0.5000 
     30 C           0.6726  -19.4450  -43.9248 C.2       8 UNK         0.5000 
     31 O          -0.2461  -20.2279  -43.6880 O.2       8 UNK        -0.5000 
     32 CA          0.3979  -17.9286  -43.8991 C.3       8 UNK         0.1400 
     33 CB          0.9082  -17.3014  -42.5944 C.3       8 UNK        -0.1800 
     34 N           0.9862  -17.2391  -45.0490 N.am      8 UNK        -0.5000 
     35 C           0.6417  -17.4781  -46.3227 C.2       7 UNK         0.5000 
     36 O          -0.2718  -18.2349  -46.6472 O.2       7 UNK        -0.5000 
     37 CA          1.5017  -16.8193  -47.4152 C.3       7 UNK         0.1400 
     38 CB          1.0095  -15.4049  -47.7460 C.3       7 UNK        -0.1800 
     39 N           2.9125  -16.7758  -47.0377 N.am      7 UNK        -0.5000 
     40 C           3.7176  -17.8470  -47.0405 C.2       6 UNK         0.5000 
     41 O           3.3584  -18.9678  -47.4014 O.2       6 UNK        -0.5000 
     42 CA          5.1499  -17.6356  -46.5150 C.3       6 UNK         0.1400 
     43 CB          6.0636  -17.1103  -47.6320 C.3       6 UNK        -0.1800 
     44 N           5.2004  -16.7179  -45.3748 N.am      6 UNK        -0.5000 
     45 C           4.6736  -16.9820  -44.1707 C.2       5 UNK         0.5000 
     46 O           4.1331  -18.0494  -43.8865 O.2       5 UNK        -0.5000 
     47 CA          4.7151  -15.8534  -43.1230 C.3       5 UNK         0.1400 
     48 CB          6.0001  -15.9427  -42.2872 C.3       5 UNK        -0.1800 
     49 N           4.6039  -14.5101  -43.6974 N.am      5 UNK        -0.5000 
     50 C           3.5571  -14.0564  -44.3984 C.2       4 UNK         0.5000 
     51 O           2.5610  -14.7347  -44.6592 O.2       4 UNK        -0.5000 
     52 CA          3.6544  -12.6073  -44.9036 C.3       4 UNK         0.1400 
     53 CB          3.1455  -12.4762  -46.3488 C.3       4 UNK        -0.1800 
     54 N           2.9008  -11.6990  -44.0441 N.am      4 UNK        -0.5000 
     55 C           3.2960  -11.2817  -42.8336 C.2       3 UNK         0.5000 
     56 O           4.3535  -11.6305  -42.3070 O.2       3 UNK        -0.5000 
     57 CA          2.3714  -10.3051  -42.0875 C.3       3 UNK         0.1400 
     58 CB          2.5812   -8.8712  -42.5997 C.3       3 UNK        -0.1800 
     59 N           0.9625  -10.6658  -42.2451 N.am      3 UNK        -0.5000 
     60 C           0.1336  -10.9943  -41.2432 C.2       2 UNK         0.5000 
     61 O           0.4660  -11.0126  -40.0572 O.2       2 UNK        -0.5000 
     62 CA         -1.3187  -11.3637  -41.6174 C.3       2 UNK         0.1400 
     63 CB         -2.2442  -10.1504  -41.4390 C.3       2 UNK        -0.1800 
     64 N          -1.4497  -11.8598  -42.9872 N.am      2 UNK        -0.5000 
     65 C          -0.9519  -13.0239  -43.4254 C.2       1 UNK         0.5000 
     66 O          -0.4641  -13.8697  -42.6766 O.2       1 UNK        -0.5000 
     67 C          -2.9513  -22.2131  -45.0850 C.2       11 UNK         0.5000 
     68 O          -3.9781  -22.8921  -45.0953 O.2       11 UNK        -0.5000 
     69 N          -1.9020  -22.4842  -44.2946 N.am      12 UNK        -0.5000 
     70 CA         -1.7997  -23.6518  -43.4126 C.3       12 UNK         0.1400 
     71 CB         -0.5790  -23.4983  -42.4935 C.3       12 UNK        -0.1800 
     72 C          -1.7475  -24.9880  -44.1832 C.2       12 UNK         0.5000 
     73 O          -2.1949  -26.0080  -43.6594 O.2       12 UNK        -0.5000 
     74 N          -1.2646  -24.9462  -45.4325 N.am      13 UNK        -0.5000 
     75 CA         -1.3117  -26.0334  -46.4126 C.3       13 UNK         0.1400 
     76 CB         -0.0720  -25.9375  -47.3202 C.3       13 UNK        -0.1800 
     77 C          -2.6276  -26.0381  -47.2275 C.2       13 UNK         0.5000 
     78 O          -2.6715  -26.6258  -48.3083 O.2       13 UNK        -0.5000 
     79 N          -3.6702  -25.3702  -46.7114 N.am      14 UNK        -0.5000 
     80 CA         -5.0430  -25.2207  -47.2095 C.3       14 UNK         0.1400 
     81 CB         -5.7056  -26.5852  -47.4816 C.3       14 UNK        -0.1800 
     82 C          -5.2017  -24.2750  -48.4136 C.2       14 UNK         0.5000 
     83 O          -6.2858  -23.7169  -48.5863 O.2       14 UNK        -0.5000 
     84 N          -4.1531  -24.1197  -49.2320 N.am      15 UNK        -0.5000 
     85 CA         -4.0184  -23.2799  -50.4318 C.3       15 UNK         0.1400 
     86 CB         -4.1568  -21.7871  -50.0840 C.3       15 UNK        -0.1800 
     87 C          -4.9366  -23.6453  -51.6164 C.2       15 UNK         0.5000 
     88 O          -4.5484  -23.4026  -52.7586 O.2       15 UNK        -0.5000 
     89 N          -6.1200  -24.2129  -51.3488 N.am      16 UNK        -0.5000 
     90 CA         -7.1582  -24.6231  -52.3018 C.3       16 UNK         0.1400 
     91 CB         -6.6723  -25.8075  -53.1619 C.3       16 UNK        -0.1800 
     92 C          -7.6785  -23.4395  -53.1433 C.2       16 UNK         0.5000 
     93 O          -7.8184  -23.5577  -54.3608 O.2       16 UNK        -0.5000 
     94 N          -7.9249  -22.3088  -52.4634 N.am      17 UNK        -0.5000 
     95 CA         -8.2938  -21.0046  -53.0279 C.3       17 UNK         0.1400 
     96 CB         -9.6708  -21.0612  -53.7240 C.3       17 UNK        -0.1800 
     97 C          -7.1759  -20.4200  -53.9188 C.2       17 UNK         0.5000 
     98 O          -7.4492  -19.9075  -55.0055 O.2       17 UNK        -0.5000 
     99 N          -5.9359  -20.5111  -53.4143 N.am      18 UNK        -0.5000 
    100 CA        -4.6841  -20.0529  -54.0237 C.3       18 UNK         0.1400 
    101 CB        -4.6699  -18.5162  -54.1654 C.3       18 UNK        -0.1800 
    102 C         -4.3621  -20.7973  -55.3366 C.2       18 UNK         0.5000 
    103 O         -4.1453  -20.1640  -56.3727 O.2       18 UNK        -0.5000 
    104 N         -4.3543  -22.1347  -55.2687 N.am      19 UNK        -0.5000 
    105 CA        -4.0985  -23.0270  -56.4006 C.3       19 UNK         0.1400 
    106 CB        -5.4270  -23.6068  -56.9105 C.3       19 UNK        -0.1800 
    107 C         -3.1144  -24.1531  -56.0448 C.2       19 UNK         0.5000 
    108 O         -2.2380  -24.4590  -56.8543 O.2       19 UNK        -0.5000 
    109 N         -3.2575  -24.7499  -54.8530 N.am      20 UNK        -0.5000 
    110 CA        -2.3692  -25.8011  -54.3462 C.3       20 UNK         0.1400 
    111 CB        -3.1250  -26.6689  -53.3279 C.3       20 UNK        -0.1800 
    112 C         -1.0936  -25.2171  -53.7147 C.2       20 UNK         0.5000 
    113 O         -0.0405  -25.8537  -53.7623 O.2       20 UNK        -0.5000 
    114 N         -1.2101  -24.0078  -53.1598 N.am      21 UNK        -0.5000 
    115 CA        -0.1265  -23.1841  -52.6454 C.3       21 UNK         0.1400 
    116 CB         0.1739  -23.5497  -51.1816 C.3       21 UNK        -0.1800 
    117 C         -0.5781  -21.7258  -52.7936 C.2       21 UNK         0.5000 
    118 O         -1.7807  -21.4692  -52.7412 O.2       21 UNK        -0.5000 
    119 N          0.3837  -20.8225  -53.0144 N.am      22 UNK        -0.5000 
    120 CA         0.2216  -19.3774  -53.2793 C.3       22 UNK         0.1400 
    121 C         -0.6443  -18.9691  -54.5126 C.2       22 UNK         0.5000 
    122 N         -1.0073  -19.8856  -55.4004 N.am      22 UNK        -0.7600 
    123 O         -0.9444  -17.7935  -54.7014 O.2       22 UNK        -0.5000 
    124 C124       -0.0374  -18.5235  -52.0039 C.3       23 UNK        -0.0398 
    125 S125       -1.7229  -18.5522  -51.2943 S.3       23 UNK        -0.2404 
    126 C126       -1.4813  -17.3073  -49.9846 C.3       23 UNK        -0.0205 
    127 H127       -0.1770   -9.6906  -47.5419 H         1 UNK         0.0600 
    128 H128       -1.1697   -8.9685  -46.2713 H         1 UNK         0.0600 
    129 H129       -1.8622  -10.1840  -47.3504 H         1 UNK         0.0600 
    130 H130       -2.0729  -12.1574  -46.3433 H         1 UNK         0.3000 
    131 H131        0.0729  -13.5597  -45.1786 H         1 UNK         0.0600 
    132 H132       -1.5831  -14.8011  -46.3443 H         1 UNK         0.0800 
    133 H133       -1.6417  -15.3388  -44.7037 H         1 UNK         0.0800 
    134 H134       -5.1793  -13.9000  -47.1223 H         1 UNK         0.0800 
    135 H135       -3.5649  -13.4320  -47.5920 H         1 UNK         0.0800 
    136 H136       -2.2776  -14.9791  -48.8699 H         1 UNK         0.1150 
    137 H137       -3.2874  -19.1416  -48.9829 H         1 UNK         0.1150 
    138 H138       -5.5404  -16.4523  -46.5208 H         1 UNK         0.1150 
    139 H139       -6.4308  -18.8209  -47.3487 H         1 UNK         0.0800 
    140 H140       -5.2080  -19.9658  -47.8254 H         1 UNK         0.0800 
    141 H141       -2.9160  -19.6173  -44.3875 H         1 UNK         0.0800 
    142 H142       -2.7915  -18.8467  -45.9286 H         1 UNK         0.0800 
    143 H143       -3.4749  -21.2422  -46.9027 H         1 UNK         0.0600 
    144 H144       -0.9262  -20.1068  -46.4011 H         1 UNK         0.3000 
    145 H145        0.9399  -22.5910  -48.1897 H         1 UNK         0.0600 
    146 H146        1.6987  -20.5922  -49.3927 H         1 UNK         0.0600 
    147 H147        0.0326  -20.9252  -49.8520 H         1 UNK         0.0600 
    148 H148        0.3831  -19.6319  -48.7255 H         1 UNK         0.0600 
    149 H149        1.7573  -20.2442  -46.7823 H         1 UNK         0.3000 
    150 H150        2.0706  -21.7716  -43.5490 H         1 UNK         0.0600 
    151 H151        4.1817  -22.3252  -44.7563 H         1 UNK         0.0600 
    152 H152        4.3663  -20.8792  -43.7756 H         1 UNK         0.0600 
    153 H153        4.1751  -20.7418  -45.5218 H         1 UNK         0.0600 
    154 H154        2.6315  -19.1273  -44.3755 H         1 UNK         0.3000 
    155 H155       -0.6833  -17.7825  -43.9454 H         1 UNK         0.0600 
    156 H156        0.3757  -17.7103  -41.7350 H         1 UNK         0.0600 
    157 H157        0.7591  -16.2223  -42.5878 H         1 UNK         0.0600 
    158 H158        1.9691  -17.4921  -42.4394 H         1 UNK         0.0600 
    159 H159        1.7136  -16.5576  -44.8587 H         1 UNK         0.3000 
    160 H160        1.4149  -17.4231  -48.3200 H         1 UNK         0.0600 
    161 H161        1.0544  -14.7523  -46.8774 H         1 UNK         0.0600 
    162 H162       -0.0229  -15.4229  -48.0915 H         1 UNK         0.0600 
    163 H163        1.6079  -14.9527  -48.5369 H         1 UNK         0.0600 
    164 H164        3.2589  -15.9030  -46.6676 H         1 UNK         0.3000 
    165 H165        5.5313  -18.6056  -46.1890 H         1 UNK         0.0600 
    166 H166        7.0958  -17.0284  -47.2910 H         1 UNK         0.0600 
    167 H167        6.0585  -17.7850  -48.4892 H         1 UNK         0.0600 
    168 H168        5.7471  -16.1281  -47.9853 H         1 UNK         0.0600 
    169 H169        5.6350  -15.8195  -45.5252 H         1 UNK         0.3000 
    170 H170        3.8644  -15.9946  -42.4539 H         1 UNK         0.0600 
    171 H171        6.0977  -16.9260  -41.8248 H         1 UNK         0.0600 
    172 H172        6.8896  -15.7761  -42.8960 H         1 UNK         0.0600 
    173 H173        5.9998  -15.2061  -41.4834 H         1 UNK         0.0600 
    174 H174        5.3593  -13.8710  -43.4925 H         1 UNK         0.3000 
    175 H175        4.7038  -12.3050  -44.8982 H         1 UNK         0.0600 
    176 H176        2.0799  -12.6895  -46.4248 H         1 UNK         0.0600 
    177 H177        3.3069  -11.4679  -46.7304 H         1 UNK         0.0600 
    178 H178        3.6680  -13.1643  -47.0144 H         1 UNK         0.0600 
    179 H179        2.0188  -11.3613  -44.4228 H         1 UNK         0.3000 
    180 H180        2.6598  -10.3311  -41.0347 H         1 UNK         0.0600 
    181 H181        2.3022   -8.7733  -43.6498 H         1 UNK         0.0600 
    182 H182        3.6256   -8.5706  -42.5060 H         1 UNK         0.0600 
    183 H183        1.9853   -8.1596  -42.0280 H         1 UNK         0.0600 
    184 H184        0.6124  -10.6945  -43.1973 H         1 UNK         0.3000 
    185 H185       -1.6476  -12.1501  -40.9348 H         1 UNK         0.0600 
    186 H186       -2.1955   -9.7689  -40.4183 H         1 UNK         0.0600 
    187 H187       -1.9704   -9.3336  -42.1082 H         1 UNK         0.0600 
    188 H188       -3.2834  -10.4140  -41.6368 H         1 UNK         0.0600 
    189 H189       -1.8411  -11.2248  -43.6671 H         1 UNK         0.3000 
    190 H190       -1.1242  -21.8301  -44.2796 H         1 UNK         0.3000 
    191 H191       -2.6932  -23.6704  -42.7852 H         1 UNK         0.0600 
    192 H192        0.3542  -23.5100  -43.0551 H         1 UNK         0.0600 
    193 H193       -0.6212  -22.5650  -41.9316 H         1 UNK         0.0600 
    194 H194       -0.5334  -24.3127  -41.7695 H         1 UNK         0.0600 
    195 H195       -0.8973  -24.0652  -45.7701 H         1 UNK         0.3000 
    196 H196       -1.2628  -26.9885  -45.8862 H         1 UNK         0.0600 
    197 H197        0.8461  -25.9194  -46.7326 H         1 UNK         0.0600 
    198 H198       -0.0895  -25.0398  -47.9378 H         1 UNK         0.0600 
    199 H199       -0.0091  -26.7946  -47.9916 H         1 UNK         0.0600 
    200 H200       -3.4939  -24.8384  -45.8680 H         1 UNK         0.3000 
    201 H201       -5.5925  -24.7552  -46.3901 H         1 UNK         0.0600 
    202 H202       -6.7667  -26.4628  -47.7024 H         1 UNK         0.0600 
    203 H203       -5.6285  -27.2420  -46.6151 H         1 UNK         0.0600 
    204 H204       -5.2569  -27.0961  -48.3337 H         1 UNK         0.0600 
    205 H205       -3.3314  -24.6655  -49.0026 H         1 UNK         0.3000 
    206 H206       -2.9988  -23.4387  -50.7823 H         1 UNK         0.0600 
    207 H207       -3.4520  -21.5029  -49.3046 H         1 UNK         0.0600 
    208 H208       -5.1609  -21.5375  -49.7414 H         1 UNK         0.0600 
    209 H209       -3.9396  -21.1617  -50.9505 H         1 UNK         0.0600 
    210 H210       -6.3650  -24.2887  -50.3653 H         1 UNK         0.3000 
    211 H211       -8.0027  -24.9727  -51.7063 H         1 UNK         0.0600 
    212 H212       -6.2888  -26.6164  -52.5402 H         1 UNK         0.0600 
    213 H213       -7.4888  -26.2154  -53.7585 H         1 UNK         0.0600 
    214 H214       -5.8845  -25.5101  -53.8530 H         1 UNK         0.0600 
    215 H215       -7.7826  -22.3269  -51.4631 H         1 UNK         0.3000 
    216 H216       -8.3896  -20.3234  -52.1811 H         1 UNK         0.0600 
    217 H217      -10.0016  -20.0625  -54.0113 H         1 UNK         0.0600 
    218 H218       -9.6473  -21.6674  -54.6298 H         1 UNK         0.0600 
    219 H219      -10.4307  -21.4758  -53.0619 H         1 UNK         0.0600 
    220 H220       -5.8293  -20.9953  -52.5361 H         1 UNK         0.3000 
    221 H221       -3.8958  -20.3097  -53.3195 H         1 UNK         0.0600 
    222 H222       -5.4199  -18.1616  -54.8725 H         1 UNK         0.0600 
    223 H223       -4.8529  -18.0318  -53.2064 H         1 UNK         0.0600 
    224 H224       -3.6991  -18.1698  -54.5201 H         1 UNK         0.0600 
    225 H225       -4.5138  -22.5711  -54.3634 H         1 UNK         0.3000 
    226 H226       -3.6422  -22.4651  -57.2183 H         1 UNK         0.0600 
    227 H227       -6.1189  -22.8147  -57.1973 H         1 UNK         0.0600 
    228 H228       -5.2682  -24.2364  -57.7867 H         1 UNK         0.0600 
    229 H229       -5.9157  -24.2179  -56.1513 H         1 UNK         0.0600 
    230 H230       -3.9604  -24.4068  -54.2057 H         1 UNK         0.3000 
    231 H231       -2.0663  -26.4450  -55.1747 H         1 UNK         0.0600 
    232 H232       -2.4856  -27.4652  -52.9449 H         1 UNK         0.0600 
    233 H233       -3.9927  -27.1446  -53.7844 H         1 UNK         0.0600 
    234 H234       -3.4681  -26.0876  -52.4722 H         1 UNK         0.0600 
    235 H235       -2.1020  -23.5272  -53.1962 H         1 UNK         0.3000 
    236 H236        0.7662  -23.3428  -53.2542 H         1 UNK         0.0600 
    237 H237        0.4003  -24.6106  -51.0748 H         1 UNK         0.0600 
    238 H238        1.0397  -22.9978  -50.8158 H         1 UNK         0.0600 
    239 H239       -0.6656  -23.3211  -50.5251 H         1 UNK         0.0600 
    240 H240        1.3377  -21.1510  -53.0592 H         1 UNK         0.3000 
    241 H241        1.2220  -19.0885  -53.6035 H         1 UNK         0.0600 
    242 H242       -1.5700  -19.6119  -56.1911 H         1 UNK         0.3800 
    243 H243       -0.7604  -20.8516  -55.2682 H         1 UNK         0.3800 
    244 H244        0.6657  -18.8202  -51.2260 H         1 UNK         0.0800 
    245 H245        0.2052  -17.4825  -52.2234 H         1 UNK         0.0800 
    246 H246       -0.6427  -17.6161  -49.3647 H         1 UNK         0.0800 
    247 H247       -1.1919  -16.3673  -50.4570 H         1 UNK         0.0800 
@<TRIPOS>BOND
     1    1    2 1    
     2    1  127 1    
     3    1  128 1    
     4    1  129 1    
     5    2    3 2    
     6    2    4 am   BACKBONE|DICT|INTERRES
     7    4    5 1    
     8    4  130 1    
     9    5    6 1    
    10    5   65 1    
    11    5  131 1    
    12    6    7 1    
    13    6  132 1    
    14    6  133 1    
    15    7    8 1    
    16    8    9 1    
    17    8  134 1    
    18    8  135 1    
    19    9   10 ar   
    20    9   14 ar   
    21   10   11 ar   
    22   10  136 1    
    23   11   12 ar   
    24   11  126 1    
    25   12   13 ar   
    26   12  137 1    
    27   13   14 ar   
    28   13   15 1    
    29   14  138 1    
    30   15   16 1    
    31   15  139 1    
    32   15  140 1    
    33   16   17 1    
    34   17   18 1    
    35   17  141 1    
    36   17  142 1    
    37   18   19 1    
    38   18   67 1    
    39   18  143 1    
    40   19   20 am   BACKBONE|DICT|INTERRES
    41   19  144 1    
    42   20   21 2    
    43   20   22 1    
    44   22   23 1    
    45   22   24 1    
    46   22  145 1    
    47   23  146 1    
    48   23  147 1    
    49   23  148 1    
    50   24   25 am   BACKBONE|DICT|INTERRES
    51   24  149 1    
    52   25   26 2    
    53   25   27 1    
    54   27   28 1    
    55   27   29 1    
    56   27  150 1    
    57   28  151 1    
    58   28  152 1    
    59   28  153 1    
    60   29   30 am   BACKBONE|DICT|INTERRES
    61   29  154 1    
    62   30   31 2    
    63   30   32 1    
    64   32   33 1    
    65   32   34 1    
    66   32  155 1    
    67   33  156 1    
    68   33  157 1    
    69   33  158 1    
    70   34   35 am   BACKBONE|DICT|INTERRES
    71   34  159 1    
    72   35   36 2    
    73   35   37 1    
    74   37   38 1    
    75   37   39 1    
    76   37  160 1    
    77   38  161 1    
    78   38  162 1    
    79   38  163 1    
    80   39   40 am   BACKBONE|DICT|INTERRES
    81   39  164 1    
    82   40   41 2    
    83   40   42 1    
    84   42   43 1    
    85   42   44 1    
    86   42  165 1    
    87   43  166 1    
    88   43  167 1    
    89   43  168 1    
    90   44   45 am   BACKBONE|DICT|INTERRES
    91   44  169 1    
    92   45   46 2    
    93   45   47 1    
    94   47   48 1    
    95   47   49 1    
    96   47  170 1    
    97   48  171 1    
    98   48  172 1    
    99   48  173 1    
   100   49   50 am   BACKBONE|DICT|INTERRES
   101   49  174 1    
   102   50   51 2    
   103   50   52 1    
   104   52   53 1    
   105   52   54 1    
   106   52  175 1    
   107   53  176 1    
   108   53  177 1    
   109   53  178 1    
   110   54   55 am   BACKBONE|DICT|INTERRES
   111   54  179 1    
   112   55   56 2    
   113   55   57 1    
   114   57   58 1    
   115   57   59 1    
   116   57  180 1    
   117   58  181 1    
   118   58  182 1    
   119   58  183 1    
   120   59   60 am   BACKBONE|DICT|INTERRES
   121   59  184 1    
   122   60   61 2    
   123   60   62 1    
   124   62   63 1    
   125   62   64 1    
   126   62  185 1    
   127   63  186 1    
   128   63  187 1    
   129   63  188 1    
   130   64   65 am   BACKBONE|DICT|INTERRES
   131   64  189 1    
   132   65   66 2    
   133   67   68 2    
   134   67   69 am   BACKBONE|DICT|INTERRES
   135   69   70 1    
   136   69  190 1    
   137   70   71 1    
   138   70   72 1    
   139   70  191 1    
   140   71  192 1    
   141   71  193 1    
   142   71  194 1    
   143   72   73 2    
   144   72   74 am   BACKBONE|DICT|INTERRES
   145   74   75 1    
   146   74  195 1    
   147   75   76 1    
   148   75   77 1    
   149   75  196 1    
   150   76  197 1    
   151   76  198 1    
   152   76  199 1    
   153   77   78 2    
   154   77   79 am   BACKBONE|DICT|INTERRES
   155   79   80 1    
   156   79  200 1    
   157   80   81 1    
   158   80   82 1    
   159   80  201 1    
   160   81  202 1    
   161   81  203 1    
   162   81  204 1    
   163   82   83 2    
   164   82   84 am   BACKBONE|DICT|INTERRES
   165   84   85 1    
   166   84  205 1    
   167   85   86 1    
   168   85   87 1    
   169   85  206 1    
   170   86  207 1    
   171   86  208 1    
   172   86  209 1    
   173   87   88 2    
   174   87   89 am   BACKBONE|DICT|INTERRES
   175   89   90 1    
   176   89  210 1    
   177   90   91 1    
   178   90   92 1    
   179   90  211 1    
   180   91  212 1    
   181   91  213 1    
   182   91  214 1    
   183   92   93 2    
   184   92   94 am   BACKBONE|DICT|INTERRES
   185   94   95 1    
   186   94  215 1    
   187   95   96 1    
   188   95   97 1    
   189   95  216 1    
   190   96  217 1    
   191   96  218 1    
   192   96  219 1    
   193   97   98 2    
   194   97   99 am   BACKBONE|DICT|INTERRES
   195   99  100 1    
   196   99  220 1    
   197  100  101 1    
   198  100  102 1    
   199  100  221 1    
   200  101  222 1    
   201  101  223 1    
   202  101  224 1    
   203  102  103 2    
   204  102  104 am   BACKBONE|DICT|INTERRES
   205  104  105 1    
   206  104  225 1    
   207  105  106 1    
   208  105  107 1    
   209  105  226 1    
   210  106  227 1    
   211  106  228 1    
   212  106  229 1    
   213  107  108 2    
   214  107  109 am   BACKBONE|DICT|INTERRES
   215  109  110 1    
   216  109  230 1    
   217  110  111 1    
   218  110  112 1    
   219  110  231 1    
   220  111  232 1    
   221  111  233 1    
   222  111  234 1    
   223  112  113 2    
   224  112  114 am   BACKBONE|DICT|INTERRES
   225  114  115 1    
   226  114  235 1    
   227  115  116 1    
   228  115  117 1    
   229  115  236 1    
   230  116  237 1    
   231  116  238 1    
   232  116  239 1    
   233  117  118 2    
   234  117  119 am   BACKBONE|DICT|INTERRES
   235  119  120 1    
   236  119  240 1    
   237  120  121 1    
   238  120  124 1    
   239  120  241 1    
   240  121  122 am   BACKBONE|DICT|INTERRES
   241  121  123 2    
   242  122  242 1    
   243  122  243 1    
   244  124  125 1    
   245  124  244 1    
   246  124  245 1    
   247  125  126 1    
   248  126  246 1    
   249  126  247 1    
@<TRIPOS>SUBSTRUCTURE
     1 UNK         1 GROUP             0       ****    0 ROOT    
