@<TRIPOS>MOLECULE
3R540
247   249    1
SMALL
USER_CHARGES


@<TRIPOS>ATOM
      1 CA          4.2056   -9.7066  -47.9051 C.3       0 UNK        -0.1800 
      2 C           3.9676  -11.0487  -47.2304 C.2       0 UNK         0.5000 
      3 O           4.5108  -11.2987  -46.1541 O.2       0 UNK        -0.5000 
      4 N           3.1437  -11.9095  -47.8436 N.am      1 UNK        -0.5000 
      5 CA          2.8322  -13.2735  -47.3864 C.3       1 UNK         0.1400 
      6 C6          1.9431  -14.0429  -48.3919 C.3       23 UNK        -0.0398 
      7 S7          2.7097  -14.1411  -50.0455 S.3       23 UNK        -0.2404 
      8 C8          1.2491  -14.4147  -51.1101 C.3       23 UNK        -0.0205 
      9 C9          0.5596  -15.7738  -50.9643 C.ar      23 UNK        -0.0193 
     10 C10        -0.7289  -15.9283  -51.4870 C.ar      23 UNK        -0.1150 
     11 C11        -1.3966  -17.1542  -51.4029 C.ar      23 UNK        -0.0193 
     12 C12        -0.7673  -18.2379  -50.7865 C.ar      23 UNK        -0.1150 
     13 C13         0.5175  -18.1017  -50.2552 C.ar      23 UNK        -0.0193 
     14 C14         1.1766  -16.8745  -50.3554 C.ar      23 UNK        -0.1150 
     15 C15         1.2044  -19.2696  -49.5666 C.3       23 UNK        -0.0205 
     16 S16         0.8414  -19.2803  -47.7846 S.3       23 UNK        -0.2404 
     17 C17        -0.8008  -20.0783  -47.7458 C.3       23 UNK        -0.0398 
     18 CA         -0.7550  -21.4222  -46.9880 C.3       11 UNK         0.1400 
     19 N          -0.4173  -21.2474  -45.5757 N.am      11 UNK        -0.5000 
     20 C           0.0214  -22.2324  -44.7822 C.2       10 UNK         0.5000 
     21 O          -0.0025  -23.4201  -45.1055 O.2       10 UNK        -0.5000 
     22 CA          0.5815  -21.8247  -43.4117 C.3       10 UNK         0.1400 
     23 CB          1.9988  -21.2551  -43.5696 C.3       10 UNK        -0.1800 
     24 N          -0.2784  -20.8238  -42.7846 N.am      10 UNK        -0.5000 
     25 C          -1.0603  -21.0547  -41.7216 C.2       9 UNK         0.5000 
     26 O          -1.0283  -22.0905  -41.0557 O.2       9 UNK        -0.5000 
     27 CA         -2.0887  -19.9621  -41.3590 C.3       9 UNK         0.1400 
     28 CB         -1.5125  -19.0100  -40.3023 C.3       9 UNK        -0.1800 
     29 N          -2.5582  -19.1835  -42.5099 N.am      9 UNK        -0.5000 
     30 C          -3.1597  -19.7059  -43.5896 C.2       8 UNK         0.5000 
     31 O          -3.4014  -20.9045  -43.7179 O.2       8 UNK        -0.5000 
     32 CA         -3.4962  -18.7620  -44.7593 C.3       8 UNK         0.1400 
     33 CB         -4.9738  -18.3482  -44.7075 C.3       8 UNK        -0.1800 
     34 N          -2.6660  -17.5596  -44.8538 N.am      8 UNK        -0.5000 
     35 C          -1.3276  -17.5138  -44.9119 C.2       7 UNK         0.5000 
     36 O          -0.6070  -18.5101  -44.8132 O.2       7 UNK        -0.5000 
     37 CA         -0.6811  -16.1252  -45.0999 C.3       7 UNK         0.1400 
     38 CB         -1.6886  -14.9622  -45.2355 C.3       7 UNK        -0.1800 
     39 N           0.2982  -15.8227  -44.0566 N.am      7 UNK        -0.5000 
     40 C           0.1496  -15.9109  -42.7245 C.2       6 UNK         0.5000 
     41 O          -0.9079  -16.2164  -42.1698 O.2       6 UNK        -0.5000 
     42 CA          1.4046  -15.5840  -41.8811 C.3       6 UNK         0.1400 
     43 CB          1.4137  -16.2671  -40.4975 C.3       6 UNK        -0.1800 
     44 N           2.6552  -15.8252  -42.6143 N.am      6 UNK        -0.5000 
     45 C           3.1083  -17.0071  -43.0613 C.2       5 UNK         0.5000 
     46 O           2.6139  -18.0897  -42.7515 O.2       5 UNK        -0.5000 
     47 CA          4.2808  -16.9834  -44.0576 C.3       5 UNK         0.1400 
     48 CB          3.8205  -17.5080  -45.4304 C.3       5 UNK        -0.1800 
     49 N           4.8360  -15.6387  -44.2416 N.am      5 UNK        -0.5000 
     50 C           6.1038  -15.2972  -43.9790 C.2       4 UNK         0.5000 
     51 O           6.9365  -16.0651  -43.4949 O.2       4 UNK        -0.5000 
     52 CA          6.5259  -13.8592  -44.3285 C.3       4 UNK         0.1400 
     53 CB          6.8780  -13.7491  -45.8201 C.3       4 UNK        -0.1800 
     54 N           5.5229  -12.8472  -43.9966 N.am      4 UNK        -0.5000 
     55 C           5.2130  -12.4636  -42.7500 C.2       3 UNK         0.5000 
     56 O           5.6635  -12.9988  -41.7369 O.2       3 UNK        -0.5000 
     57 CA          4.2428  -11.2795  -42.6110 C.3       3 UNK         0.1400 
     58 CB          4.9650   -9.9514  -42.8897 C.3       3 UNK        -0.1800 
     59 N           3.1192  -11.4215  -43.5342 N.am      3 UNK        -0.5000 
     60 C           1.8882  -11.8089  -43.1770 C.2       2 UNK         0.5000 
     61 O           1.5437  -11.9917  -42.0098 O.2       2 UNK        -0.5000 
     62 CA          0.8593  -12.0503  -44.3001 C.3       2 UNK         0.1400 
     63 CB         -0.1324  -10.8809  -44.3858 C.3       2 UNK        -0.1800 
     64 N           1.4528  -12.2636  -45.6214 N.am      2 UNK        -0.5000 
     65 C           2.2066  -13.3131  -45.9768 C.2       1 UNK         0.5000 
     66 O           2.4589  -14.2577  -45.2276 O.2       1 UNK        -0.5000 
     67 C          -2.0331  -22.2453  -47.2359 C.2       11 UNK         0.5000 
     68 O          -2.1360  -22.8415  -48.3085 O.2       11 UNK        -0.5000 
     69 N          -2.9786  -22.2877  -46.2844 N.am      12 UNK        -0.5000 
     70 CA         -4.1757  -23.1286  -46.4003 C.3       12 UNK         0.1400 
     71 CB         -5.3231  -22.5594  -45.5544 C.3       12 UNK        -0.1800 
     72 C          -3.8805  -24.5886  -46.0178 C.2       12 UNK         0.5000 
     73 O          -4.4796  -25.4944  -46.5956 O.2       12 UNK        -0.5000 
     74 N          -2.9276  -24.8001  -45.0969 N.am      13 UNK        -0.5000 
     75 CA         -2.4103  -26.1223  -44.7330 C.3       13 UNK         0.1400 
     76 CB         -1.6170  -26.0265  -43.4208 C.3       13 UNK        -0.1800 
     77 C          -1.5525  -26.7267  -45.8610 C.2       13 UNK         0.5000 
     78 O          -1.6222  -27.9315  -46.1039 O.2       13 UNK        -0.5000 
     79 N          -0.8055  -25.8648  -46.5661 N.am      14 UNK        -0.5000 
     80 CA         -0.0696  -26.1882  -47.7912 C.3       14 UNK         0.1400 
     81 CB          0.9511  -25.0712  -48.0597 C.3       14 UNK        -0.1800 
     82 C          -0.9805  -26.3840  -49.0240 C.2       14 UNK         0.5000 
     83 O          -0.5035  -26.8768  -50.0466 O.2       14 UNK        -0.5000 
     84 N          -2.2571  -25.9857  -48.9097 N.am      15 UNK        -0.5000 
     85 CA         -3.3103  -26.0207  -49.9299 C.3       15 UNK         0.1400 
     86 CB         -3.6533  -27.4728  -50.3223 C.3       15 UNK        -0.1800 
     87 C          -3.0162  -25.1143  -51.1439 C.2       15 UNK         0.5000 
     88 O          -3.4032  -25.4396  -52.2672 O.2       15 UNK        -0.5000 
     89 N          -2.3443  -23.9855  -50.8898 N.am      16 UNK        -0.5000 
     90 CA         -2.1280  -22.9099  -51.8520 C.3       16 UNK         0.1400 
     91 CB         -0.7625  -22.2557  -51.5890 C.3       16 UNK        -0.1800 
     92 C          -3.2657  -21.8846  -51.7410 C.2       16 UNK         0.5000 
     93 O          -3.9094  -21.5735  -52.7425 O.2       16 UNK        -0.5000 
     94 N          -3.5175  -21.4135  -50.5113 N.am      17 UNK        -0.5000 
     95 CA         -4.6631  -20.5704  -50.1798 C.3       17 UNK         0.1400 
     96 CB         -4.3828  -19.8065  -48.8761 C.3       17 UNK        -0.1800 
     97 C          -5.9308  -21.4308  -50.0523 C.2       17 UNK         0.5000 
     98 O          -5.8390  -22.6017  -49.6752 O.2       17 UNK        -0.5000 
     99 N          -7.0855  -20.8274  -50.3705 N.am      18 UNK        -0.5000 
    100 CA        -8.4098  -21.4629  -50.4410 C.3       18 UNK         0.1400 
    101 CB        -8.8912  -21.8915  -49.0382 C.3       18 UNK        -0.1800 
    102 C         -8.4653  -22.6081  -51.4791 C.2       18 UNK         0.5000 
    103 O         -9.1583  -23.6065  -51.2735 O.2       18 UNK        -0.5000 
    104 N         -7.7209  -22.4366  -52.5764 N.am      19 UNK        -0.5000 
    105 CA        -7.5621  -23.3818  -53.6721 C.3       19 UNK         0.1400 
    106 CB        -6.4215  -24.3595  -53.3398 C.3       19 UNK        -0.1800 
    107 C         -7.2660  -22.5978  -54.9584 C.2       19 UNK         0.5000 
    108 O         -6.9632  -21.4017  -54.8985 O.2       19 UNK        -0.5000 
    109 N         -7.3435  -23.2951  -56.1001 N.am      20 UNK        -0.5000 
    110 CA        -7.1936  -22.7491  -57.4542 C.3       20 UNK         0.1400 
    111 CB        -7.4221  -23.8747  -58.4744 C.3       20 UNK        -0.1800 
    112 C         -5.8514  -22.0420  -57.7283 C.2       20 UNK         0.5000 
    113 O         -5.8095  -21.1407  -58.5668 O.2       20 UNK        -0.5000 
    114 N         -4.7975  -22.4196  -56.9901 N.am      21 UNK        -0.5000 
    115 CA        -3.4674  -21.8028  -57.0238 C.3       21 UNK         0.1400 
    116 CB        -2.5308  -22.5921  -56.0966 C.3       21 UNK        -0.1800 
    117 C         -3.4567  -20.3032  -56.6547 C.2       21 UNK         0.5000 
    118 O         -2.5781  -19.5773  -57.1224 O.2       21 UNK        -0.5000 
    119 N         -4.4425  -19.8691  -55.8609 N.am      22 UNK        -0.5000 
    120 CA        -4.7039  -18.4685  -55.4975 C.3       22 UNK         0.1400 
    121 C         -6.0754  -17.9688  -56.0441 C.2       22 UNK         0.5000 
    122 N         -6.6765  -18.6201  -57.0340 N.am      22 UNK        -0.7600 
    123 O         -6.5992  -16.9560  -55.5878 O.2       22 UNK        -0.5000 
    124 C124       -4.5433  -18.2443  -53.9700 C.3       23 UNK        -0.0398 
    125 S125       -2.7983  -18.3676  -53.4500 S.3       23 UNK        -0.2404 
    126 C126       -2.7987  -17.3106  -51.9705 C.3       23 UNK        -0.0205 
    127 H127        5.2662   -9.5811  -48.1223 H         1 UNK         0.0600 
    128 H128        3.8930   -8.8963  -47.2465 H         1 UNK         0.0600 
    129 H129        3.6527   -9.6193  -48.8406 H         1 UNK         0.0600 
    130 H130        2.7385  -11.6511  -48.7322 H         1 UNK         0.3000 
    131 H131        3.7826  -13.8053  -47.3147 H         1 UNK         0.0600 
    132 H132        1.7627  -15.0618  -48.0433 H         1 UNK         0.0800 
    133 H133        0.9642  -13.5677  -48.4782 H         1 UNK         0.0800 
    134 H134        1.5645  -14.3075  -52.1487 H         1 UNK         0.0800 
    135 H135        0.5292  -13.6158  -50.9255 H         1 UNK         0.0800 
    136 H136       -1.2124  -15.0895  -51.9682 H         1 UNK         0.1150 
    137 H137       -1.2824  -19.1858  -50.7338 H         1 UNK         0.1150 
    138 H138        2.1747  -16.7911  -49.9518 H         1 UNK         0.1150 
    139 H139        0.9143  -20.2164  -50.0220 H         1 UNK         0.0800 
    140 H140        2.2844  -19.1922  -49.7005 H         1 UNK         0.0800 
    141 H141       -1.1465  -20.2337  -48.7664 H         1 UNK         0.0800 
    142 H142       -1.5141  -19.3935  -47.2880 H         1 UNK         0.0800 
    143 H143        0.0552  -22.0045  -47.4311 H         1 UNK         0.0600 
    144 H144       -0.3620  -20.2831  -45.2559 H         1 UNK         0.3000 
    145 H145        0.6451  -22.7258  -42.7985 H         1 UNK         0.0600 
    146 H146        2.4240  -20.9860  -42.6026 H         1 UNK         0.0600 
    147 H147        2.6660  -21.9857  -44.0284 H         1 UNK         0.0600 
    148 H148        2.0068  -20.3623  -44.1965 H         1 UNK         0.0600 
    149 H149       -0.3764  -19.9404  -43.2726 H         1 UNK         0.3000 
    150 H150       -2.9585  -20.4627  -40.9289 H         1 UNK         0.0600 
    151 H151       -1.2144  -19.5545  -39.4055 H         1 UNK         0.0600 
    152 H152       -2.2435  -18.2596  -40.0012 H         1 UNK         0.0600 
    153 H153       -0.6321  -18.4900  -40.6778 H         1 UNK         0.0600 
    154 H154       -2.3471  -18.1938  -42.5031 H         1 UNK         0.3000 
    155 H155       -3.3416  -19.3302  -45.6778 H         1 UNK         0.0600 
    156 H156       -5.6250  -19.2216  -44.6524 H         1 UNK         0.0600 
    157 H157       -5.2592  -17.7898  -45.5993 H         1 UNK         0.0600 
    158 H158       -5.1857  -17.7259  -43.8372 H         1 UNK         0.0600 
    159 H159       -3.1654  -16.6838  -44.9064 H         1 UNK         0.3000 
    160 H160       -0.1215  -16.1864  -46.0346 H         1 UNK         0.0600 
    161 H161       -2.2456  -14.7932  -44.3130 H         1 UNK         0.0600 
    162 H162       -2.4057  -15.1450  -46.0368 H         1 UNK         0.0600 
    163 H163       -1.1772  -14.0340  -45.4876 H         1 UNK         0.0600 
    164 H164        1.2093  -15.5363  -44.3990 H         1 UNK         0.3000 
    165 H165        1.3623  -14.5122  -41.7001 H         1 UNK         0.0600 
    166 H166        2.2876  -15.9672  -39.9194 H         1 UNK         0.0600 
    167 H167        0.5326  -15.9896  -39.9179 H         1 UNK         0.0600 
    168 H168        1.4228  -17.3535  -40.5749 H         1 UNK         0.0600 
    169 H169        3.1394  -14.9983  -42.9318 H         1 UNK         0.3000 
    170 H170        5.0362  -17.6682  -43.6676 H         1 UNK         0.0600 
    171 H171        3.4291  -18.5233  -45.3539 H         1 UNK         0.0600 
    172 H172        3.0318  -16.8876  -45.8576 H         1 UNK         0.0600 
    173 H173        4.6474  -17.5333  -46.1401 H         1 UNK         0.0600 
    174 H174        4.2075  -14.9516  -44.6447 H         1 UNK         0.3000 
    175 H175        7.4284  -13.6341  -43.7561 H         1 UNK         0.0600 
    176 H176        6.0137  -13.9457  -46.4544 H         1 UNK         0.0600 
    177 H177        7.2514  -12.7544  -46.0645 H         1 UNK         0.0600 
    178 H178        7.6550  -14.4645  -46.0926 H         1 UNK         0.0600 
    179 H179        5.1365  -12.3243  -44.7792 H         1 UNK         0.3000 
    180 H180        3.8924  -11.2559  -41.5770 H         1 UNK         0.0600 
    181 H181        5.3489   -9.9020  -43.9093 H         1 UNK         0.0600 
    182 H182        5.8103   -9.8176  -42.2135 H         1 UNK         0.0600 
    183 H183        4.2952   -9.1037  -42.7445 H         1 UNK         0.0600 
    184 H184        3.3333  -11.3070  -44.5185 H         1 UNK         0.3000 
    185 H185        0.3029  -12.9481  -44.0288 H         1 UNK         0.0600 
    186 H186       -0.6201  -10.7094  -43.4252 H         1 UNK         0.0600 
    187 H187        0.3641   -9.9531  -44.6726 H         1 UNK         0.0600 
    188 H188       -0.9176  -11.0827  -45.1147 H         1 UNK         0.0600 
    189 H189        1.3211  -11.5246  -46.2968 H         1 UNK         0.3000 
    190 H190       -2.8568  -21.7876  -45.4093 H         1 UNK         0.3000 
    191 H191       -4.5101  -23.1233  -47.4394 H         1 UNK         0.0600 
    192 H192       -5.4959  -21.5069  -45.7779 H         1 UNK         0.0600 
    193 H193       -6.2524  -23.0917  -45.7608 H         1 UNK         0.0600 
    194 H194       -5.1276  -22.6546  -44.4863 H         1 UNK         0.0600 
    195 H195       -2.4590  -24.0032  -44.6908 H         1 UNK         0.3000 
    196 H196       -3.2597  -26.7882  -44.5659 H         1 UNK         0.0600 
    197 H197       -1.2682  -27.0109  -43.1063 H         1 UNK         0.0600 
    198 H198       -2.2339  -25.6279  -42.6152 H         1 UNK         0.0600 
    199 H199       -0.7403  -25.3866  -43.5186 H         1 UNK         0.0600 
    200 H200       -0.7305  -24.9101  -46.2298 H         1 UNK         0.3000 
    201 H201        0.4748  -27.1207  -47.6294 H         1 UNK         0.0600 
    202 H202        1.5925  -24.9009  -47.1946 H         1 UNK         0.0600 
    203 H203        0.4583  -24.1309  -48.3051 H         1 UNK         0.0600 
    204 H204        1.5980  -25.3278  -48.8994 H         1 UNK         0.0600 
    205 H205       -2.5376  -25.5936  -48.0222 H         1 UNK         0.3000 
    206 H206       -4.1964  -25.5954  -49.4562 H         1 UNK         0.0600 
    207 H207       -3.8686  -28.0777  -49.4413 H         1 UNK         0.0600 
    208 H208       -4.5366  -27.5062  -50.9611 H         1 UNK         0.0600 
    209 H209       -2.8384  -27.9497  -50.8674 H         1 UNK         0.0600 
    210 H210       -2.1117  -23.7776  -49.9225 H         1 UNK         0.3000 
    211 H211       -2.1222  -23.3086  -52.8683 H         1 UNK         0.0600 
    212 H212       -0.6023  -21.4029  -52.2503 H         1 UNK         0.0600 
    213 H213        0.0488  -22.9623  -51.7639 H         1 UNK         0.0600 
    214 H214       -0.6762  -21.9010  -50.5624 H         1 UNK         0.0600 
    215 H215       -3.0204  -21.8276  -49.7318 H         1 UNK         0.3000 
    216 H216       -4.8074  -19.8433  -50.9816 H         1 UNK         0.0600 
    217 H217       -5.1987  -19.1208  -48.6447 H         1 UNK         0.0600 
    218 H218       -3.4743  -19.2099  -48.9543 H         1 UNK         0.0600 
    219 H219       -4.2783  -20.4799  -48.0267 H         1 UNK         0.0600 
    220 H220       -7.0593  -19.8577  -50.6531 H         1 UNK         0.3000 
    221 H221       -9.0976  -20.6972  -50.8022 H         1 UNK         0.0600 
    222 H222       -8.2958  -22.7116  -48.6361 H         1 UNK         0.0600 
    223 H223       -8.8389  -21.0622  -48.3329 H         1 UNK         0.0600 
    224 H224       -9.9286  -22.2265  -49.0672 H         1 UNK         0.0600 
    225 H225       -7.2207  -21.5673  -52.7110 H         1 UNK         0.3000 
    226 H226       -8.4927  -23.9344  -53.8169 H         1 UNK         0.0600 
    227 H227       -6.6170  -24.8980  -52.4122 H         1 UNK         0.0600 
    228 H228       -6.2928  -25.1051  -54.1249 H         1 UNK         0.0600 
    229 H229       -5.4713  -23.8369  -53.2238 H         1 UNK         0.0600 
    230 H230       -7.5817  -24.2752  -56.0478 H         1 UNK         0.3000 
    231 H231       -7.9794  -22.0031  -57.5895 H         1 UNK         0.0600 
    232 H232       -6.6876  -24.6733  -58.3627 H         1 UNK         0.0600 
    233 H233       -7.3459  -23.4993  -59.4959 H         1 UNK         0.0600 
    234 H234       -8.4147  -24.3122  -58.3653 H         1 UNK         0.0600 
    235 H235       -4.9343  -23.1562  -56.3141 H         1 UNK         0.3000 
    236 H236       -3.0906  -21.8881  -58.0449 H         1 UNK         0.0600 
    237 H237       -2.4436  -23.6316  -56.4129 H         1 UNK         0.0600 
    238 H238       -1.5266  -22.1664  -56.0974 H         1 UNK         0.0600 
    239 H239       -2.8906  -22.5826  -55.0679 H         1 UNK         0.0600 
    240 H240       -5.1337  -20.5338  -55.5302 H         1 UNK         0.3000 
    241 H241       -3.9794  -17.8225  -55.9959 H         1 UNK         0.0600 
    242 H242       -7.5584  -18.2790  -57.3819 H         1 UNK         0.3800 
    243 H243       -6.2480  -19.4304  -57.4639 H         1 UNK         0.3800 
    244 H244       -4.9083  -17.2573  -53.6824 H         1 UNK         0.0800 
    245 H245       -5.1366  -18.9692  -53.4107 H         1 UNK         0.0800 
    246 H246       -3.2180  -16.3350  -52.2214 H         1 UNK         0.0800 
    247 H247       -3.4514  -17.7449  -51.2126 H         1 UNK         0.0800 
@<TRIPOS>BOND
     1    1    2 1    
     2    1  127 1    
     3    1  128 1    
     4    1  129 1    
     5    2    3 2    
     6    2    4 am   BACKBONE|DICT|INTERRES
     7    4    5 1    
     8    4  130 1    
     9    5    6 1    
    10    5   65 1    
    11    5  131 1    
    12    6    7 1    
    13    6  132 1    
    14    6  133 1    
    15    7    8 1    
    16    8    9 1    
    17    8  134 1    
    18    8  135 1    
    19    9   10 ar   
    20    9   14 ar   
    21   10   11 ar   
    22   10  136 1    
    23   11   12 ar   
    24   11  126 1    
    25   12   13 ar   
    26   12  137 1    
    27   13   14 ar   
    28   13   15 1    
    29   14  138 1    
    30   15   16 1    
    31   15  139 1    
    32   15  140 1    
    33   16   17 1    
    34   17   18 1    
    35   17  141 1    
    36   17  142 1    
    37   18   19 1    
    38   18   67 1    
    39   18  143 1    
    40   19   20 am   BACKBONE|DICT|INTERRES
    41   19  144 1    
    42   20   21 2    
    43   20   22 1    
    44   22   23 1    
    45   22   24 1    
    46   22  145 1    
    47   23  146 1    
    48   23  147 1    
    49   23  148 1    
    50   24   25 am   BACKBONE|DICT|INTERRES
    51   24  149 1    
    52   25   26 2    
    53   25   27 1    
    54   27   28 1    
    55   27   29 1    
    56   27  150 1    
    57   28  151 1    
    58   28  152 1    
    59   28  153 1    
    60   29   30 am   BACKBONE|DICT|INTERRES
    61   29  154 1    
    62   30   31 2    
    63   30   32 1    
    64   32   33 1    
    65   32   34 1    
    66   32  155 1    
    67   33  156 1    
    68   33  157 1    
    69   33  158 1    
    70   34   35 am   BACKBONE|DICT|INTERRES
    71   34  159 1    
    72   35   36 2    
    73   35   37 1    
    74   37   38 1    
    75   37   39 1    
    76   37  160 1    
    77   38  161 1    
    78   38  162 1    
    79   38  163 1    
    80   39   40 am   BACKBONE|DICT|INTERRES
    81   39  164 1    
    82   40   41 2    
    83   40   42 1    
    84   42   43 1    
    85   42   44 1    
    86   42  165 1    
    87   43  166 1    
    88   43  167 1    
    89   43  168 1    
    90   44   45 am   BACKBONE|DICT|INTERRES
    91   44  169 1    
    92   45   46 2    
    93   45   47 1    
    94   47   48 1    
    95   47   49 1    
    96   47  170 1    
    97   48  171 1    
    98   48  172 1    
    99   48  173 1    
   100   49   50 am   BACKBONE|DICT|INTERRES
   101   49  174 1    
   102   50   51 2    
   103   50   52 1    
   104   52   53 1    
   105   52   54 1    
   106   52  175 1    
   107   53  176 1    
   108   53  177 1    
   109   53  178 1    
   110   54   55 am   BACKBONE|DICT|INTERRES
   111   54  179 1    
   112   55   56 2    
   113   55   57 1    
   114   57   58 1    
   115   57   59 1    
   116   57  180 1    
   117   58  181 1    
   118   58  182 1    
   119   58  183 1    
   120   59   60 am   BACKBONE|DICT|INTERRES
   121   59  184 1    
   122   60   61 2    
   123   60   62 1    
   124   62   63 1    
   125   62   64 1    
   126   62  185 1    
   127   63  186 1    
   128   63  187 1    
   129   63  188 1    
   130   64   65 am   BACKBONE|DICT|INTERRES
   131   64  189 1    
   132   65   66 2    
   133   67   68 2    
   134   67   69 am   BACKBONE|DICT|INTERRES
   135   69   70 1    
   136   69  190 1    
   137   70   71 1    
   138   70   72 1    
   139   70  191 1    
   140   71  192 1    
   141   71  193 1    
   142   71  194 1    
   143   72   73 2    
   144   72   74 am   BACKBONE|DICT|INTERRES
   145   74   75 1    
   146   74  195 1    
   147   75   76 1    
   148   75   77 1    
   149   75  196 1    
   150   76  197 1    
   151   76  198 1    
   152   76  199 1    
   153   77   78 2    
   154   77   79 am   BACKBONE|DICT|INTERRES
   155   79   80 1    
   156   79  200 1    
   157   80   81 1    
   158   80   82 1    
   159   80  201 1    
   160   81  202 1    
   161   81  203 1    
   162   81  204 1    
   163   82   83 2    
   164   82   84 am   BACKBONE|DICT|INTERRES
   165   84   85 1    
   166   84  205 1    
   167   85   86 1    
   168   85   87 1    
   169   85  206 1    
   170   86  207 1    
   171   86  208 1    
   172   86  209 1    
   173   87   88 2    
   174   87   89 am   BACKBONE|DICT|INTERRES
   175   89   90 1    
   176   89  210 1    
   177   90   91 1    
   178   90   92 1    
   179   90  211 1    
   180   91  212 1    
   181   91  213 1    
   182   91  214 1    
   183   92   93 2    
   184   92   94 am   BACKBONE|DICT|INTERRES
   185   94   95 1    
   186   94  215 1    
   187   95   96 1    
   188   95   97 1    
   189   95  216 1    
   190   96  217 1    
   191   96  218 1    
   192   96  219 1    
   193   97   98 2    
   194   97   99 am   BACKBONE|DICT|INTERRES
   195   99  100 1    
   196   99  220 1    
   197  100  101 1    
   198  100  102 1    
   199  100  221 1    
   200  101  222 1    
   201  101  223 1    
   202  101  224 1    
   203  102  103 2    
   204  102  104 am   BACKBONE|DICT|INTERRES
   205  104  105 1    
   206  104  225 1    
   207  105  106 1    
   208  105  107 1    
   209  105  226 1    
   210  106  227 1    
   211  106  228 1    
   212  106  229 1    
   213  107  108 2    
   214  107  109 am   BACKBONE|DICT|INTERRES
   215  109  110 1    
   216  109  230 1    
   217  110  111 1    
   218  110  112 1    
   219  110  231 1    
   220  111  232 1    
   221  111  233 1    
   222  111  234 1    
   223  112  113 2    
   224  112  114 am   BACKBONE|DICT|INTERRES
   225  114  115 1    
   226  114  235 1    
   227  115  116 1    
   228  115  117 1    
   229  115  236 1    
   230  116  237 1    
   231  116  238 1    
   232  116  239 1    
   233  117  118 2    
   234  117  119 am   BACKBONE|DICT|INTERRES
   235  119  120 1    
   236  119  240 1    
   237  120  121 1    
   238  120  124 1    
   239  120  241 1    
   240  121  122 am   BACKBONE|DICT|INTERRES
   241  121  123 2    
   242  122  242 1    
   243  122  243 1    
   244  124  125 1    
   245  124  244 1    
   246  124  245 1    
   247  125  126 1    
   248  126  246 1    
   249  126  247 1    
@<TRIPOS>SUBSTRUCTURE
     1 UNK         1 GROUP             0       ****    0 ROOT    
