@<TRIPOS>MOLECULE
3R540
247   249    1
SMALL
USER_CHARGES


@<TRIPOS>ATOM
      1 CA          4.6311  -15.1474  -46.0939 C.3       0 UNK        -0.1800 
      2 C           3.3580  -15.6220  -46.7766 C.2       0 UNK         0.5000 
      3 O           2.3147  -15.7292  -46.1299 O.2       0 UNK        -0.5000 
      4 N           3.4441  -15.9268  -48.0774 N.am      1 UNK        -0.5000 
      5 CA          2.3019  -16.3000  -48.9108 C.3       1 UNK         0.1400 
      6 C6          2.7375  -17.1352  -50.1386 C.3       23 UNK        -0.0398 
      7 S7          1.3795  -17.7961  -51.1719 S.3       23 UNK        -0.2404 
      8 C8          0.4951  -18.9329  -50.0502 C.3       23 UNK        -0.0205 
      9 C9         -0.6795  -18.2482  -49.3649 C.ar      23 UNK        -0.0193 
     10 C10        -1.7414  -17.7510  -50.1256 C.ar      23 UNK        -0.1150 
     11 C11        -2.8020  -17.0681  -49.5202 C.ar      23 UNK        -0.0193 
     12 C12        -2.7862  -16.8833  -48.1344 C.ar      23 UNK        -0.1150 
     13 C13        -1.7208  -17.3562  -47.3633 C.ar      23 UNK        -0.0193 
     14 C14        -0.6865  -18.0647  -47.9803 C.ar      23 UNK        -0.1150 
     15 C15        -1.6423  -17.0149  -45.8837 C.3       23 UNK        -0.0205 
     16 S16        -2.3097  -18.3323  -44.8234 S.3       23 UNK        -0.2404 
     17 C17        -0.9298  -19.5248  -44.7866 C.3       23 UNK        -0.0398 
     18 CA         -1.2914  -20.8427  -45.5150 C.3       11 UNK         0.1400 
     19 N          -0.1236  -21.4789  -46.1322 N.am      11 UNK        -0.5000 
     20 C          -0.1919  -22.4893  -47.0135 C.2       10 UNK         0.5000 
     21 O          -1.2520  -22.9638  -47.4162 O.2       10 UNK        -0.5000 
     22 CA          1.1296  -23.1121  -47.5016 C.3       10 UNK         0.1400 
     23 CB          1.5877  -22.4425  -48.8045 C.3       10 UNK        -0.1800 
     24 N           2.2043  -23.0352  -46.5147 N.am      10 UNK        -0.5000 
     25 C           2.1786  -23.6034  -45.3004 C.2       9 UNK         0.5000 
     26 O           1.2780  -24.3489  -44.9163 O.2       9 UNK        -0.5000 
     27 CA          3.3147  -23.2124  -44.3339 C.3       9 UNK         0.1400 
     28 CB          4.4349  -24.2622  -44.3673 C.3       9 UNK        -0.1800 
     29 N           3.8834  -21.8871  -44.6135 N.am      9 UNK        -0.5000 
     30 C           3.2020  -20.7343  -44.5539 C.2       8 UNK         0.5000 
     31 O           2.0105  -20.6584  -44.2465 O.2       8 UNK        -0.5000 
     32 CA          3.9451  -19.4719  -45.0161 C.3       8 UNK         0.1400 
     33 CB          3.5568  -19.1403  -46.4656 C.3       8 UNK        -0.1800 
     34 N           3.6475  -18.3314  -44.1491 N.am      8 UNK        -0.5000 
     35 C           4.1736  -18.1766  -42.9261 C.2       7 UNK         0.5000 
     36 O           5.0178  -18.9374  -42.4503 O.2       7 UNK        -0.5000 
     37 CA          3.6939  -16.9785  -42.0854 C.3       7 UNK         0.1400 
     38 CB          4.6705  -15.7978  -42.1960 C.3       7 UNK        -0.1800 
     39 N           2.3472  -16.5116  -42.4141 N.am      7 UNK        -0.5000 
     40 C           1.2192  -17.1476  -42.0690 C.2       6 UNK         0.5000 
     41 O           1.1971  -18.2650  -41.5506 O.2       6 UNK        -0.5000 
     42 CA         -0.0926  -16.3675  -42.3046 C.3       6 UNK         0.1400 
     43 CB         -1.3072  -16.9936  -41.5873 C.3       6 UNK        -0.1800 
     44 N           0.0233  -14.9415  -41.9716 N.am      6 UNK        -0.5000 
     45 C           0.3507  -14.4139  -40.7781 C.2       5 UNK         0.5000 
     46 O           0.5929  -15.0832  -39.7731 O.2       5 UNK        -0.5000 
     47 CA          0.4447  -12.8770  -40.6810 C.3       5 UNK         0.1400 
     48 CB          1.9170  -12.4352  -40.7060 C.3       5 UNK        -0.1800 
     49 N          -0.2699  -12.1761  -41.7471 N.am      5 UNK        -0.5000 
     50 C          -1.6019  -12.1250  -41.8876 C.2       4 UNK         0.5000 
     51 O          -2.3943  -12.5943  -41.0704 O.2       4 UNK        -0.5000 
     52 CA         -2.1373  -11.4559  -43.1709 C.3       4 UNK         0.1400 
     53 CB         -2.6320  -10.0328  -42.8695 C.3       4 UNK        -0.1800 
     54 N          -1.1581  -11.3982  -44.2637 N.am      4 UNK        -0.5000 
     55 C          -0.6491  -12.4639  -44.8952 C.2       3 UNK         0.5000 
     56 O          -0.9302  -13.6311  -44.6094 O.2       3 UNK        -0.5000 
     57 CA          0.4041  -12.1785  -45.9748 C.3       3 UNK         0.1400 
     58 CB          1.8158  -12.3739  -45.3994 C.3       3 UNK        -0.1800 
     59 N           0.2114  -13.0898  -47.0978 N.am      3 UNK        -0.5000 
     60 C          -0.5713  -12.8364  -48.1563 C.2       2 UNK         0.5000 
     61 O          -1.1507  -11.7621  -48.3242 O.2       2 UNK        -0.5000 
     62 CA         -0.7736  -13.9746  -49.1816 C.3       2 UNK         0.1400 
     63 CB         -0.8644  -13.4715  -50.6371 C.3       2 UNK        -0.1800 
     64 N           0.1939  -15.0704  -49.0567 N.am      2 UNK        -0.5000 
     65 C           1.5151  -15.0256  -49.2750 C.2       1 UNK         0.5000 
     66 O           2.1202  -14.0361  -49.6939 O.2       1 UNK        -0.5000 
     67 C          -2.0266  -21.8183  -44.5734 C.2       11 UNK         0.5000 
     68 O          -3.2524  -21.9191  -44.6321 O.2       11 UNK        -0.5000 
     69 N          -1.2547  -22.5711  -43.7738 N.am      12 UNK        -0.5000 
     70 CA         -1.7498  -23.6308  -42.8894 C.3       12 UNK         0.1400 
     71 CB         -0.6223  -24.0771  -41.9466 C.3       12 UNK        -0.1800 
     72 C          -2.3323  -24.8322  -43.6613 C.2       12 UNK         0.5000 
     73 O          -3.2234  -25.5097  -43.1499 O.2       12 UNK        -0.5000 
     74 N          -1.8621  -25.0340  -44.8992 N.am      13 UNK        -0.5000 
     75 CA         -2.3917  -25.9875  -45.8747 C.3       13 UNK         0.1400 
     76 CB         -1.2455  -26.4419  -46.7954 C.3       13 UNK        -0.1800 
     77 C          -3.5817  -25.4217  -46.6845 C.2       13 UNK         0.5000 
     78 O          -3.8879  -25.9575  -47.7497 O.2       13 UNK        -0.5000 
     79 N          -4.2251  -24.3529  -46.1889 N.am      14 UNK        -0.5000 
     80 CA         -5.3883  -23.6659  -46.7595 C.3       14 UNK         0.1400 
     81 CB         -6.6238  -24.5912  -46.7690 C.3       14 UNK        -0.1800 
     82 C          -5.0826  -23.0500  -48.1373 C.2       14 UNK         0.5000 
     83 O          -5.7946  -23.3118  -49.1076 O.2       14 UNK        -0.5000 
     84 N          -3.9947  -22.2691  -48.1949 N.am      15 UNK        -0.5000 
     85 CA         -3.4306  -21.6294  -49.3897 C.3       15 UNK         0.1400 
     86 CB         -4.3884  -20.5541  -49.9341 C.3       15 UNK        -0.1800 
     87 C          -3.0047  -22.6677  -50.4489 C.2       15 UNK         0.5000 
     88 O          -3.3097  -22.5184  -51.6343 O.2       15 UNK        -0.5000 
     89 N          -2.3381  -23.7279  -49.9673 N.am      16 UNK        -0.5000 
     90 CA         -1.9278  -24.9336  -50.6926 C.3       16 UNK         0.1400 
     91 CB         -0.7968  -24.6002  -51.6881 C.3       16 UNK        -0.1800 
     92 C          -3.1280  -25.6423  -51.3553 C.2       16 UNK         0.5000 
     93 O          -3.1014  -25.9082  -52.5558 O.2       16 UNK        -0.5000 
     94 N          -4.1852  -25.8827  -50.5658 N.am      17 UNK        -0.5000 
     95 CA         -5.5000  -26.3888  -50.9798 C.3       17 UNK         0.1400 
     96 CB         -5.4059  -27.8707  -51.3978 C.3       17 UNK        -0.1800 
     97 C          -6.1641  -25.4940  -52.0511 C.2       17 UNK         0.5000 
     98 O          -6.7083  -25.9950  -53.0369 O.2       17 UNK        -0.5000 
     99 N          -6.0698  -24.1748  -51.8347 N.am      18 UNK        -0.5000 
    100 CA        -6.5206  -23.0753  -52.6922 C.3       18 UNK         0.1400 
    101 CB        -8.0601  -23.0617  -52.7897 C.3       18 UNK        -0.1800 
    102 C         -5.8348  -23.0087  -54.0765 C.2       18 UNK         0.5000 
    103 O         -6.3753  -22.3752  -54.9852 O.2       18 UNK        -0.5000 
    104 N         -4.6625  -23.6420  -54.2285 N.am      19 UNK        -0.5000 
    105 CA        -3.8791  -23.6263  -55.4655 C.3       19 UNK         0.1400 
    106 CB        -2.9963  -24.8809  -55.5348 C.3       19 UNK        -0.1800 
    107 C         -3.0139  -22.3615  -55.6136 C.2       19 UNK         0.5000 
    108 O         -2.6183  -22.0419  -56.7363 O.2       19 UNK        -0.5000 
    109 N         -2.7122  -21.6753  -54.5011 N.am      20 UNK        -0.5000 
    110 CA        -1.9271  -20.4402  -54.4882 C.3       20 UNK         0.1400 
    111 CB        -1.5348  -20.1057  -53.0438 C.3       20 UNK        -0.1800 
    112 C         -2.6748  -19.2596  -55.1400 C.2       20 UNK         0.5000 
    113 O         -3.9083  -19.2174  -55.1313 O.2       20 UNK        -0.5000 
    114 N         -1.9056  -18.3093  -55.6847 N.am      21 UNK        -0.5000 
    115 CA        -2.3873  -17.1274  -56.4021 C.3       21 UNK         0.1400 
    116 CB        -1.2677  -16.6321  -57.3360 C.3       21 UNK        -0.1800 
    117 C         -2.8957  -16.0257  -55.4476 C.2       21 UNK         0.5000 
    118 O         -2.3238  -14.9352  -55.3944 O.2       21 UNK        -0.5000 
    119 N         -3.9597  -16.3377  -54.7010 N.am      22 UNK        -0.5000 
    120 CA        -4.6197  -15.4333  -53.7430 C.3       22 UNK         0.1400 
    121 C         -5.4823  -14.3103  -54.3920 C.2       22 UNK         0.5000 
    122 N         -5.7660  -14.3476  -55.6885 N.am      22 UNK        -0.7600 
    123 O         -5.8978  -13.3813  -53.7048 O.2       22 UNK        -0.5000 
    124 C124       -5.4474  -16.2132  -52.6893 C.3       23 UNK        -0.0398 
    125 S125       -4.4470  -17.4309  -51.7742 S.3       23 UNK        -0.2404 
    126 C126       -3.9098  -16.4268  -50.3515 C.3       23 UNK        -0.0205 
    127 H127        5.0493  -15.9501  -45.4872 H         1 UNK         0.0600 
    128 H128        4.4180  -14.2966  -45.4470 H         1 UNK         0.0600 
    129 H129        5.3849  -14.8395  -46.8187 H         1 UNK         0.0600 
    130 H130        4.3177  -15.7850  -48.5639 H         1 UNK         0.3000 
    131 H131        1.6692  -16.9374  -48.2981 H         1 UNK         0.0600 
    132 H132        3.3408  -17.9821  -49.8081 H         1 UNK         0.0800 
    133 H133        3.3881  -16.5416  -50.7830 H         1 UNK         0.0800 
    134 H134        1.1935  -19.3395  -49.3191 H         1 UNK         0.0800 
    135 H135        0.1219  -19.7818  -50.6234 H         1 UNK         0.0800 
    136 H136       -1.7185  -17.8610  -51.1995 H         1 UNK         0.1150 
    137 H137       -3.5798  -16.3234  -47.6594 H         1 UNK         0.1150 
    138 H138        0.1411  -18.4290  -47.3903 H         1 UNK         0.1150 
    139 H139       -0.6095  -16.7921  -45.6125 H         1 UNK         0.0800 
    140 H140       -2.2002  -16.0981  -45.6853 H         1 UNK         0.0800 
    141 H141       -0.6388  -19.7003  -43.7488 H         1 UNK         0.0800 
    142 H142       -0.0541  -19.0640  -45.2417 H         1 UNK         0.0800 
    143 H143       -1.9731  -20.6036  -46.3348 H         1 UNK         0.0600 
    144 H144        0.7798  -21.1915  -45.7736 H         1 UNK         0.3000 
    145 H145        0.9391  -24.1663  -47.7092 H         1 UNK         0.0600 
    146 H146        1.9218  -21.4200  -48.6318 H         1 UNK         0.0600 
    147 H147        2.4139  -22.9906  -49.2575 H         1 UNK         0.0600 
    148 H148        0.7806  -22.4082  -49.5378 H         1 UNK         0.0600 
    149 H149        2.9953  -22.4550  -46.7495 H         1 UNK         0.3000 
    150 H150        2.8930  -23.1903  -43.3268 H         1 UNK         0.0600 
    151 H151        4.0456  -25.2556  -44.1395 H         1 UNK         0.0600 
    152 H152        5.2059  -24.0404  -43.6292 H         1 UNK         0.0600 
    153 H153        4.9111  -24.3129  -45.3472 H         1 UNK         0.0600 
    154 H154        4.8563  -21.8676  -44.8845 H         1 UNK         0.3000 
    155 H155        5.0197  -19.6659  -44.9890 H         1 UNK         0.0600 
    156 H156        3.6526  -20.0131  -47.1126 H         1 UNK         0.0600 
    157 H157        4.2138  -18.3749  -46.8749 H         1 UNK         0.0600 
    158 H158        2.5280  -18.7863  -46.5406 H         1 UNK         0.0600 
    159 H159        2.9355  -17.6857  -44.4594 H         1 UNK         0.3000 
    160 H160        3.6897  -17.3053  -41.0431 H         1 UNK         0.0600 
    161 H161        4.4098  -15.0064  -41.4928 H         1 UNK         0.0600 
    162 H162        4.6725  -15.3669  -43.1959 H         1 UNK         0.0600 
    163 H163        5.6911  -16.1089  -41.9688 H         1 UNK         0.0600 
    164 H164        2.2740  -15.6017  -42.8446 H         1 UNK         0.3000 
    165 H165       -0.2817  -16.4125  -43.3754 H         1 UNK         0.0600 
    166 H166       -1.1855  -16.9929  -40.5040 H         1 UNK         0.0600 
    167 H167       -2.2231  -16.4518  -41.8232 H         1 UNK         0.0600 
    168 H168       -1.4560  -18.0287  -41.8955 H         1 UNK         0.0600 
    169 H169       -0.1835  -14.3072  -42.7351 H         1 UNK         0.3000 
    170 H170        0.0105  -12.5795  -39.7242 H         1 UNK         0.0600 
    171 H171        2.4000  -12.6957  -41.6487 H         1 UNK         0.0600 
    172 H172        2.0086  -11.3578  -40.5670 H         1 UNK         0.0600 
    173 H173        2.4829  -12.9133  -39.9052 H         1 UNK         0.0600 
    174 H174        0.2965  -11.7421  -42.4601 H         1 UNK         0.3000 
    175 H175       -2.9874  -12.0490  -43.5145 H         1 UNK         0.0600 
    176 H176       -1.8184   -9.3854  -42.5400 H         1 UNK         0.0600 
    177 H177       -3.0890   -9.5788  -43.7489 H         1 UNK         0.0600 
    178 H178       -3.3858  -10.0394  -42.0810 H         1 UNK         0.0600 
    179 H179       -0.8649  -10.4746  -44.5491 H         1 UNK         0.3000 
    180 H180        0.3111  -11.1449  -46.3152 H         1 UNK         0.0600 
    181 H181        1.9382  -13.3608  -44.9524 H         1 UNK         0.0600 
    182 H182        2.0255  -11.6373  -44.6230 H         1 UNK         0.0600 
    183 H183        2.5771  -12.2585  -46.1712 H         1 UNK         0.0600 
    184 H184        0.6112  -14.0122  -46.9948 H         1 UNK         0.3000 
    185 H185       -1.7435  -14.4049  -48.9354 H         1 UNK         0.0600 
    186 H186       -1.7003  -12.7824  -50.7616 H         1 UNK         0.0600 
    187 H187        0.0395  -12.9447  -50.9431 H         1 UNK         0.0600 
    188 H188       -1.0231  -14.2988  -51.3293 H         1 UNK         0.0600 
    189 H189       -0.2037  -15.9439  -48.7356 H         1 UNK         0.3000 
    190 H190       -0.2524  -22.4499  -43.8139 H         1 UNK         0.3000 
    191 H191       -2.5540  -23.2106  -42.2818 H         1 UNK         0.0600 
    192 H192        0.2120  -24.5184  -42.4920 H         1 UNK         0.0600 
    193 H193       -0.2380  -23.2387  -41.3654 H         1 UNK         0.0600 
    194 H194       -0.9811  -24.8253  -41.2388 H         1 UNK         0.0600 
    195 H195       -1.1094  -24.4403  -45.2206 H         1 UNK         0.3000 
    196 H196       -2.7594  -26.8674  -45.3435 H         1 UNK         0.0600 
    197 H197       -0.3919  -26.7994  -46.2190 H         1 UNK         0.0600 
    198 H198       -0.9013  -25.6332  -47.4380 H         1 UNK         0.0600 
    199 H199       -1.5636  -27.2597  -47.4432 H         1 UNK         0.0600 
    200 H200       -3.8608  -23.9364  -45.3417 H         1 UNK         0.3000 
    201 H201       -5.6099  -22.8310  -46.0931 H         1 UNK         0.0600 
    202 H202       -7.5136  -24.0475  -47.0883 H         1 UNK         0.0600 
    203 H203       -6.8258  -24.9885  -45.7744 H         1 UNK         0.0600 
    204 H204       -6.4982  -25.4351  -47.4480 H         1 UNK         0.0600 
    205 H205       -3.4250  -22.2024  -47.3621 H         1 UNK         0.3000 
    206 H206       -2.5171  -21.1221  -49.0756 H         1 UNK         0.0600 
    207 H207       -4.5901  -19.7897  -49.1838 H         1 UNK         0.0600 
    208 H208       -5.3417  -20.9713  -50.2561 H         1 UNK         0.0600 
    209 H209       -3.9493  -20.0531  -50.7931 H         1 UNK         0.0600 
    210 H210       -2.1215  -23.7127  -48.9749 H         1 UNK         0.3000 
    211 H211       -1.5283  -25.6266  -49.9511 H         1 UNK         0.0600 
    212 H212        0.0504  -24.1389  -51.1816 H         1 UNK         0.0600 
    213 H213       -0.4292  -25.5028  -52.1774 H         1 UNK         0.0600 
    214 H214       -1.1312  -23.9179  -52.4705 H         1 UNK         0.0600 
    215 H215       -4.0989  -25.6755  -49.5726 H         1 UNK         0.3000 
    216 H216       -6.1384  -26.3334  -50.0968 H         1 UNK         0.0600 
    217 H217       -6.3958  -28.2851  -51.5911 H         1 UNK         0.0600 
    218 H218       -4.8144  -27.9999  -52.3047 H         1 UNK         0.0600 
    219 H219       -4.9504  -28.4725  -50.6114 H         1 UNK         0.0600 
    220 H220       -5.6498  -23.8790  -50.9572 H         1 UNK         0.3000 
    221 H221       -6.2200  -22.1628  -52.1766 H         1 UNK         0.0600 
    222 H222       -8.4370  -23.9145  -53.3548 H         1 UNK         0.0600 
    223 H223       -8.5171  -23.0850  -51.8003 H         1 UNK         0.0600 
    224 H224       -8.4148  -22.1579  -53.2864 H         1 UNK         0.0600 
    225 H225       -4.2645  -24.1375  -53.4396 H         1 UNK         0.3000 
    226 H226       -4.5644  -23.6590  -56.3151 H         1 UNK         0.0600 
    227 H227       -3.5827  -25.7886  -55.3906 H         1 UNK         0.0600 
    228 H228       -2.5083  -24.9590  -56.5070 H         1 UNK         0.0600 
    229 H229       -2.2106  -24.8611  -54.7790 H         1 UNK         0.0600 
    230 H230       -3.0782  -21.9932  -53.6091 H         1 UNK         0.3000 
    231 H231       -1.0119  -20.6234  -55.0551 H         1 UNK         0.0600 
    232 H232       -0.8733  -19.2396  -53.0099 H         1 UNK         0.0600 
    233 H233       -1.0097  -20.9369  -52.5727 H         1 UNK         0.0600 
    234 H234       -2.4109  -19.8751  -52.4399 H         1 UNK         0.0600 
    235 H235       -0.9025  -18.3977  -55.6109 H         1 UNK         0.3000 
    236 H236       -3.2306  -17.4213  -57.0308 H         1 UNK         0.0600 
    237 H237       -1.5950  -15.7679  -57.9155 H         1 UNK         0.0600 
    238 H238       -0.3776  -16.3373  -56.7789 H         1 UNK         0.0600 
    239 H239       -0.9771  -17.4053  -58.0475 H         1 UNK         0.0600 
    240 H240       -4.3233  -17.2834  -54.7616 H         1 UNK         0.3000 
    241 H241       -3.8279  -14.9104  -53.2030 H         1 UNK         0.0600 
    242 H242       -5.4356  -15.1049  -56.2645 H         1 UNK         0.3800 
    243 H243       -6.3216  -13.6122  -56.0969 H         1 UNK         0.3800 
    244 H244       -5.9115  -15.5323  -51.9733 H         1 UNK         0.0800 
    245 H245       -6.2668  -16.7463  -53.1742 H         1 UNK         0.0800 
    246 H246       -4.7811  -16.2207  -49.7280 H         1 UNK         0.0800 
    247 H247       -3.5455  -15.4637  -50.7110 H         1 UNK         0.0800 
@<TRIPOS>BOND
     1    1    2 1    
     2    1  127 1    
     3    1  128 1    
     4    1  129 1    
     5    2    3 2    
     6    2    4 am   BACKBONE|DICT|INTERRES
     7    4    5 1    
     8    4  130 1    
     9    5    6 1    
    10    5   65 1    
    11    5  131 1    
    12    6    7 1    
    13    6  132 1    
    14    6  133 1    
    15    7    8 1    
    16    8    9 1    
    17    8  134 1    
    18    8  135 1    
    19    9   10 ar   
    20    9   14 ar   
    21   10   11 ar   
    22   10  136 1    
    23   11   12 ar   
    24   11  126 1    
    25   12   13 ar   
    26   12  137 1    
    27   13   14 ar   
    28   13   15 1    
    29   14  138 1    
    30   15   16 1    
    31   15  139 1    
    32   15  140 1    
    33   16   17 1    
    34   17   18 1    
    35   17  141 1    
    36   17  142 1    
    37   18   19 1    
    38   18   67 1    
    39   18  143 1    
    40   19   20 am   BACKBONE|DICT|INTERRES
    41   19  144 1    
    42   20   21 2    
    43   20   22 1    
    44   22   23 1    
    45   22   24 1    
    46   22  145 1    
    47   23  146 1    
    48   23  147 1    
    49   23  148 1    
    50   24   25 am   BACKBONE|DICT|INTERRES
    51   24  149 1    
    52   25   26 2    
    53   25   27 1    
    54   27   28 1    
    55   27   29 1    
    56   27  150 1    
    57   28  151 1    
    58   28  152 1    
    59   28  153 1    
    60   29   30 am   BACKBONE|DICT|INTERRES
    61   29  154 1    
    62   30   31 2    
    63   30   32 1    
    64   32   33 1    
    65   32   34 1    
    66   32  155 1    
    67   33  156 1    
    68   33  157 1    
    69   33  158 1    
    70   34   35 am   BACKBONE|DICT|INTERRES
    71   34  159 1    
    72   35   36 2    
    73   35   37 1    
    74   37   38 1    
    75   37   39 1    
    76   37  160 1    
    77   38  161 1    
    78   38  162 1    
    79   38  163 1    
    80   39   40 am   BACKBONE|DICT|INTERRES
    81   39  164 1    
    82   40   41 2    
    83   40   42 1    
    84   42   43 1    
    85   42   44 1    
    86   42  165 1    
    87   43  166 1    
    88   43  167 1    
    89   43  168 1    
    90   44   45 am   BACKBONE|DICT|INTERRES
    91   44  169 1    
    92   45   46 2    
    93   45   47 1    
    94   47   48 1    
    95   47   49 1    
    96   47  170 1    
    97   48  171 1    
    98   48  172 1    
    99   48  173 1    
   100   49   50 am   BACKBONE|DICT|INTERRES
   101   49  174 1    
   102   50   51 2    
   103   50   52 1    
   104   52   53 1    
   105   52   54 1    
   106   52  175 1    
   107   53  176 1    
   108   53  177 1    
   109   53  178 1    
   110   54   55 am   BACKBONE|DICT|INTERRES
   111   54  179 1    
   112   55   56 2    
   113   55   57 1    
   114   57   58 1    
   115   57   59 1    
   116   57  180 1    
   117   58  181 1    
   118   58  182 1    
   119   58  183 1    
   120   59   60 am   BACKBONE|DICT|INTERRES
   121   59  184 1    
   122   60   61 2    
   123   60   62 1    
   124   62   63 1    
   125   62   64 1    
   126   62  185 1    
   127   63  186 1    
   128   63  187 1    
   129   63  188 1    
   130   64   65 am   BACKBONE|DICT|INTERRES
   131   64  189 1    
   132   65   66 2    
   133   67   68 2    
   134   67   69 am   BACKBONE|DICT|INTERRES
   135   69   70 1    
   136   69  190 1    
   137   70   71 1    
   138   70   72 1    
   139   70  191 1    
   140   71  192 1    
   141   71  193 1    
   142   71  194 1    
   143   72   73 2    
   144   72   74 am   BACKBONE|DICT|INTERRES
   145   74   75 1    
   146   74  195 1    
   147   75   76 1    
   148   75   77 1    
   149   75  196 1    
   150   76  197 1    
   151   76  198 1    
   152   76  199 1    
   153   77   78 2    
   154   77   79 am   BACKBONE|DICT|INTERRES
   155   79   80 1    
   156   79  200 1    
   157   80   81 1    
   158   80   82 1    
   159   80  201 1    
   160   81  202 1    
   161   81  203 1    
   162   81  204 1    
   163   82   83 2    
   164   82   84 am   BACKBONE|DICT|INTERRES
   165   84   85 1    
   166   84  205 1    
   167   85   86 1    
   168   85   87 1    
   169   85  206 1    
   170   86  207 1    
   171   86  208 1    
   172   86  209 1    
   173   87   88 2    
   174   87   89 am   BACKBONE|DICT|INTERRES
   175   89   90 1    
   176   89  210 1    
   177   90   91 1    
   178   90   92 1    
   179   90  211 1    
   180   91  212 1    
   181   91  213 1    
   182   91  214 1    
   183   92   93 2    
   184   92   94 am   BACKBONE|DICT|INTERRES
   185   94   95 1    
   186   94  215 1    
   187   95   96 1    
   188   95   97 1    
   189   95  216 1    
   190   96  217 1    
   191   96  218 1    
   192   96  219 1    
   193   97   98 2    
   194   97   99 am   BACKBONE|DICT|INTERRES
   195   99  100 1    
   196   99  220 1    
   197  100  101 1    
   198  100  102 1    
   199  100  221 1    
   200  101  222 1    
   201  101  223 1    
   202  101  224 1    
   203  102  103 2    
   204  102  104 am   BACKBONE|DICT|INTERRES
   205  104  105 1    
   206  104  225 1    
   207  105  106 1    
   208  105  107 1    
   209  105  226 1    
   210  106  227 1    
   211  106  228 1    
   212  106  229 1    
   213  107  108 2    
   214  107  109 am   BACKBONE|DICT|INTERRES
   215  109  110 1    
   216  109  230 1    
   217  110  111 1    
   218  110  112 1    
   219  110  231 1    
   220  111  232 1    
   221  111  233 1    
   222  111  234 1    
   223  112  113 2    
   224  112  114 am   BACKBONE|DICT|INTERRES
   225  114  115 1    
   226  114  235 1    
   227  115  116 1    
   228  115  117 1    
   229  115  236 1    
   230  116  237 1    
   231  116  238 1    
   232  116  239 1    
   233  117  118 2    
   234  117  119 am   BACKBONE|DICT|INTERRES
   235  119  120 1    
   236  119  240 1    
   237  120  121 1    
   238  120  124 1    
   239  120  241 1    
   240  121  122 am   BACKBONE|DICT|INTERRES
   241  121  123 2    
   242  122  242 1    
   243  122  243 1    
   244  124  125 1    
   245  124  244 1    
   246  124  245 1    
   247  125  126 1    
   248  126  246 1    
   249  126  247 1    
@<TRIPOS>SUBSTRUCTURE
     1 UNK         1 GROUP             0       ****    0 ROOT    
