@<TRIPOS>MOLECULE
3R540
247   249    1
SMALL
USER_CHARGES


@<TRIPOS>ATOM
      1 CA          3.5724  -12.9613  -48.4189 C.3       0 UNK        -0.1800 
      2 C           3.2596  -14.2054  -49.2380 C.2       0 UNK         0.5000 
      3 O           4.0941  -15.1052  -49.3266 O.2       0 UNK        -0.5000 
      4 N           2.0683  -14.2509  -49.8446 N.am      1 UNK        -0.5000 
      5 CA          1.6233  -15.3301  -50.7342 C.3       1 UNK         0.1400 
      6 C6          2.0973  -15.0802  -52.1920 C.3       23 UNK        -0.0398 
      7 S7          2.3334  -16.6081  -53.1552 S.3       23 UNK        -0.2404 
      8 C8          3.9567  -17.1699  -52.5508 C.3       23 UNK        -0.0205 
      9 C9          3.8425  -18.5256  -51.8747 C.ar      23 UNK        -0.0193 
     10 C10         3.6038  -19.6609  -52.6526 C.ar      23 UNK        -0.1150 
     11 C11         3.4811  -20.9145  -52.0528 C.ar      23 UNK        -0.0193 
     12 C12         3.6527  -21.0374  -50.6736 C.ar      23 UNK        -0.1150 
     13 C13         3.8605  -19.9090  -49.8768 C.ar      23 UNK        -0.0193 
     14 C14         3.9578  -18.6519  -50.4853 C.ar      23 UNK        -0.1150 
     15 C15         3.9686  -20.0528  -48.3636 C.3       23 UNK        -0.0205 
     16 S16         2.3506  -20.3839  -47.5859 S.3       23 UNK        -0.2404 
     17 C17         2.1225  -22.1670  -47.9123 C.3       23 UNK        -0.0398 
     18 CA          1.2649  -22.9314  -46.8736 C.3       11 UNK         0.1400 
     19 N           1.6171  -22.6230  -45.4833 N.am      11 UNK        -0.5000 
     20 C           1.2824  -23.3726  -44.4247 C.2       10 UNK         0.5000 
     21 O           0.6576  -24.4291  -44.5287 O.2       10 UNK        -0.5000 
     22 CA          1.6337  -22.8453  -43.0184 C.3       10 UNK         0.1400 
     23 CB          2.3279  -23.9149  -42.1515 C.3       10 UNK        -0.1800 
     24 N           2.3668  -21.5741  -42.9999 N.am      10 UNK        -0.5000 
     25 C           3.6435  -21.3222  -43.3222 C.2       9 UNK         0.5000 
     26 O           4.4318  -22.1746  -43.7305 O.2       9 UNK        -0.5000 
     27 CA          4.1216  -19.8608  -43.1716 C.3       9 UNK         0.1400 
     28 CB          4.3224  -19.2075  -44.5465 C.3       9 UNK        -0.1800 
     29 N           3.2105  -19.0255  -42.3821 N.am      9 UNK        -0.5000 
     30 C           3.0791  -19.0883  -41.0491 C.2       8 UNK         0.5000 
     31 O           3.7567  -19.8205  -40.3274 O.2       8 UNK        -0.5000 
     32 CA          1.9789  -18.2130  -40.4254 C.3       8 UNK         0.1400 
     33 CB          2.4710  -16.7721  -40.2184 C.3       8 UNK        -0.1800 
     34 N           0.7679  -18.2066  -41.2478 N.am      8 UNK        -0.5000 
     35 C          -0.1474  -19.1867  -41.2544 C.2       7 UNK         0.5000 
     36 O          -0.0802  -20.1880  -40.5419 O.2       7 UNK        -0.5000 
     37 CA         -1.3242  -19.0387  -42.2378 C.3       7 UNK         0.1400 
     38 CB         -2.4795  -18.2662  -41.5861 C.3       7 UNK        -0.1800 
     39 N          -0.9323  -18.3786  -43.4841 N.am      7 UNK        -0.5000 
     40 C          -0.1538  -18.9505  -44.4133 C.2       6 UNK         0.5000 
     41 O           0.1983  -20.1280  -44.3666 O.2       6 UNK        -0.5000 
     42 CA          0.3328  -18.0782  -45.5817 C.3       6 UNK         0.1400 
     43 CB         -0.5042  -18.3352  -46.8386 C.3       6 UNK        -0.1800 
     44 N           0.3553  -16.6458  -45.2957 N.am      6 UNK        -0.5000 
     45 C           1.1632  -16.0565  -44.4045 C.2       5 UNK         0.5000 
     46 O           1.9133  -16.6814  -43.6537 O.2       5 UNK        -0.5000 
     47 CA          1.1143  -14.5227  -44.3326 C.3       5 UNK         0.1400 
     48 CB          2.0082  -13.9181  -45.4240 C.3       5 UNK        -0.1800 
     49 N          -0.2521  -14.0332  -44.5125 N.am      5 UNK        -0.5000 
     50 C          -1.0131  -13.5099  -43.5433 C.2       4 UNK         0.5000 
     51 O          -0.6175  -13.3031  -42.3953 O.2       4 UNK        -0.5000 
     52 CA         -2.4742  -13.1704  -43.9081 C.3       4 UNK         0.1400 
     53 CB         -2.5860  -11.7069  -44.3614 C.3       4 UNK        -0.1800 
     54 N          -3.0561  -14.0329  -44.9412 N.am      4 UNK        -0.5000 
     55 C          -3.1929  -15.3626  -44.8479 C.2       3 UNK         0.5000 
     56 O          -2.8329  -16.0220  -43.8734 O.2       3 UNK        -0.5000 
     57 CA         -3.7930  -16.0938  -46.0633 C.3       3 UNK         0.1400 
     58 CB         -5.3269  -16.0764  -45.9823 C.3       3 UNK        -0.1800 
     59 N          -3.3736  -15.6303  -47.3959 N.am      3 UNK        -0.5000 
     60 C          -2.1475  -15.2683  -47.8005 C.2       2 UNK         0.5000 
     61 O          -1.1837  -15.0997  -47.0469 O.2       2 UNK        -0.5000 
     62 CA         -1.9636  -15.0711  -49.3118 C.3       2 UNK         0.1400 
     63 CB         -2.6591  -13.7881  -49.7946 C.3       2 UNK        -0.1800 
     64 N          -0.5353  -14.9804  -49.5999 N.am      2 UNK        -0.5000 
     65 C           0.0997  -15.5634  -50.6238 C.2       1 UNK         0.5000 
     66 O          -0.4711  -16.2584  -51.4639 O.2       1 UNK        -0.5000 
     67 C          -0.2515  -22.8355  -47.1554 C.2       11 UNK         0.5000 
     68 O          -0.7289  -23.5113  -48.0674 O.2       11 UNK        -0.5000 
     69 N          -1.0044  -22.1084  -46.3134 N.am      12 UNK        -0.5000 
     70 CA         -2.4711  -22.0559  -46.3442 C.3       12 UNK         0.1400 
     71 CB         -2.9692  -21.0119  -45.3337 C.3       12 UNK        -0.1800 
     72 C          -3.1640  -23.4144  -46.0958 C.2       12 UNK         0.5000 
     73 O          -4.3348  -23.5658  -46.4454 O.2       12 UNK        -0.5000 
     74 N          -2.4432  -24.3796  -45.5062 N.am      13 UNK        -0.5000 
     75 CA         -2.8989  -25.7599  -45.3473 C.3       13 UNK         0.1400 
     76 CB         -2.1654  -26.3925  -44.1546 C.3       13 UNK        -0.1800 
     77 C          -2.6863  -26.6071  -46.6190 C.2       13 UNK         0.5000 
     78 O          -3.3406  -27.6411  -46.7604 O.2       13 UNK        -0.5000 
     79 N          -1.7754  -26.1831  -47.5076 N.am      14 UNK        -0.5000 
     80 CA         -1.4224  -26.8975  -48.7350 C.3       14 UNK         0.1400 
     81 CB          0.0630  -26.6624  -49.0549 C.3       14 UNK        -0.1800 
     82 C          -2.3043  -26.4804  -49.9236 C.2       14 UNK         0.5000 
     83 O          -2.6252  -27.3274  -50.7587 O.2       14 UNK        -0.5000 
     84 N          -2.6890  -25.2004  -49.9814 N.am      15 UNK        -0.5000 
     85 CA         -3.5447  -24.6282  -51.0163 C.3       15 UNK         0.1400 
     86 CB         -2.6920  -24.2187  -52.2300 C.3       15 UNK        -0.1800 
     87 C          -4.3167  -23.4372  -50.4335 C.2       15 UNK         0.5000 
     88 O          -3.8288  -22.7932  -49.5028 O.2       15 UNK        -0.5000 
     89 N          -5.5026  -23.1646  -50.9937 N.am      16 UNK        -0.5000 
     90 CA         -6.4749  -22.1682  -50.5350 C.3       16 UNK         0.1400 
     91 CB         -7.8057  -22.4061  -51.2708 C.3       16 UNK        -0.1800 
     92 C          -5.9900  -20.7102  -50.6808 C.2       16 UNK         0.5000 
     93 O          -6.4236  -19.9939  -51.5851 O.2       16 UNK        -0.5000 
     94 N          -5.1215  -20.2866  -49.7561 N.am      17 UNK        -0.5000 
     95 CA         -4.4789  -18.9695  -49.7007 C.3       17 UNK         0.1400 
     96 CB         -3.4166  -18.9983  -48.5963 C.3       17 UNK        -0.1800 
     97 C          -5.4368  -17.7780  -49.4849 C.2       17 UNK         0.5000 
     98 O          -5.0119  -16.6279  -49.6048 O.2       17 UNK        -0.5000 
     99 N          -6.6954  -18.0602  -49.1285 N.am      18 UNK        -0.5000 
    100 CA        -7.7672  -17.0729  -49.0158 C.3       18 UNK         0.1400 
    101 CB        -8.7514  -17.5401  -47.9321 C.3       18 UNK        -0.1800 
    102 C         -8.5058  -16.8510  -50.3512 C.2       18 UNK         0.5000 
    103 O         -9.1625  -15.8200  -50.5024 O.2       18 UNK        -0.5000 
    104 N         -8.4128  -17.8140  -51.2797 N.am      19 UNK        -0.5000 
    105 CA        -9.1173  -17.8069  -52.5635 C.3       19 UNK         0.1400 
    106 CB        -9.7978  -19.1712  -52.7595 C.3       19 UNK        -0.1800 
    107 C         -8.1747  -17.5155  -53.7429 C.2       19 UNK         0.5000 
    108 O         -8.6100  -16.9195  -54.7292 O.2       19 UNK        -0.5000 
    109 N         -6.9131  -17.9412  -53.6316 N.am      20 UNK        -0.5000 
    110 CA        -5.8712  -17.8013  -54.6436 C.3       20 UNK         0.1400 
    111 CB        -5.8645  -19.0665  -55.5234 C.3       20 UNK        -0.1800 
    112 C         -4.5158  -17.5736  -53.9544 C.2       20 UNK         0.5000 
    113 O         -4.4579  -17.4583  -52.7297 O.2       20 UNK        -0.5000 
    114 N         -3.4413  -17.5138  -54.7497 N.am      21 UNK        -0.5000 
    115 CA        -2.0619  -17.5038  -54.2596 C.3       21 UNK         0.1400 
    116 CB        -1.1337  -17.0787  -55.4084 C.3       21 UNK        -0.1800 
    117 C         -1.6485  -18.8855  -53.7110 C.2       21 UNK         0.5000 
    118 O         -2.2714  -19.8938  -54.0575 O.2       21 UNK        -0.5000 
    119 N         -0.5940  -18.9107  -52.8867 N.am      22 UNK        -0.5000 
    120 CA        -0.0088  -20.0959  -52.2291 C.3       22 UNK         0.1400 
    121 C         -0.8969  -20.6562  -51.0838 C.2       22 UNK         0.5000 
    122 N         -2.1660  -20.9435  -51.3325 N.am      22 UNK        -0.7600 
    123 O         -0.4370  -20.8072  -49.9584 O.2       22 UNK        -0.5000 
    124 C124        0.4347  -21.1925  -53.2481 C.3       23 UNK        -0.0398 
    125 S125        1.3672  -22.6030  -52.5472 S.3       23 UNK        -0.2404 
    126 C126        3.0953  -22.1289  -52.8771 C.3       23 UNK        -0.0205 
    127 H127        4.0329  -13.2388  -47.4711 H         1 UNK         0.0600 
    128 H128        2.6744  -12.3819  -48.2036 H         1 UNK         0.0600 
    129 H129        4.2705  -12.3236  -48.9609 H         1 UNK         0.0600 
    130 H130        1.4396  -13.4632  -49.7680 H         1 UNK         0.3000 
    131 H131        2.0702  -16.2600  -50.3766 H         1 UNK         0.0600 
    132 H132        1.3972  -14.4342  -52.7245 H         1 UNK         0.0800 
    133 H133        3.0454  -14.5408  -52.2023 H         1 UNK         0.0800 
    134 H134        4.3931  -16.4396  -51.8678 H         1 UNK         0.0800 
    135 H135        4.6429  -17.2437  -53.3957 H         1 UNK         0.0800 
    136 H136        3.4778  -19.5591  -53.7215 H         1 UNK         0.1150 
    137 H137        3.5757  -22.0140  -50.2210 H         1 UNK         0.1150 
    138 H138        4.1225  -17.7726  -49.8783 H         1 UNK         0.1150 
    139 H139        4.6764  -20.8436  -48.1120 H         1 UNK         0.0800 
    140 H140        4.3740  -19.1373  -47.9303 H         1 UNK         0.0800 
    141 H141        3.1087  -22.6309  -47.9428 H         1 UNK         0.0800 
    142 H142        1.7062  -22.2880  -48.9143 H         1 UNK         0.0800 
    143 H143        1.5019  -23.9883  -47.0166 H         1 UNK         0.0600 
    144 H144        2.0698  -21.7350  -45.3221 H         1 UNK         0.3000 
    145 H145        0.6750  -22.6236  -42.5473 H         1 UNK         0.0600 
    146 H146        2.5472  -23.5329  -41.1544 H         1 UNK         0.0600 
    147 H147        1.6903  -24.7912  -42.0291 H         1 UNK         0.0600 
    148 H148        3.2630  -24.2559  -42.5959 H         1 UNK         0.0600 
    149 H149        1.8002  -20.7743  -42.7532 H         1 UNK         0.3000 
    150 H150        5.0893  -19.8884  -42.6665 H         1 UNK         0.0600 
    151 H151        5.0086  -19.7885  -45.1640 H         1 UNK         0.0600 
    152 H152        4.7394  -18.2049  -44.4502 H         1 UNK         0.0600 
    153 H153        3.3824  -19.1259  -45.0882 H         1 UNK         0.0600 
    154 H154        2.6593  -18.3400  -42.8901 H         1 UNK         0.3000 
    155 H155        1.7362  -18.6270  -39.4442 H         1 UNK         0.0600 
    156 H156        3.3476  -16.7512  -39.5698 H         1 UNK         0.0600 
    157 H157        1.7036  -16.1579  -39.7470 H         1 UNK         0.0600 
    158 H158        2.7498  -16.2961  -41.1586 H         1 UNK         0.0600 
    159 H159        0.6757  -17.4472  -41.9087 H         1 UNK         0.3000 
    160 H160       -1.6822  -20.0423  -42.4748 H         1 UNK         0.0600 
    161 H161       -2.1972  -17.2382  -41.3555 H         1 UNK         0.0600 
    162 H162       -2.7918  -18.7398  -40.6545 H         1 UNK         0.0600 
    163 H163       -3.3498  -18.2355  -42.2419 H         1 UNK         0.0600 
    164 H164       -1.2508  -17.4252  -43.6171 H         1 UNK         0.3000 
    165 H165        1.3582  -18.3740  -45.7965 H         1 UNK         0.0600 
    166 H166       -0.1164  -17.7838  -47.6953 H         1 UNK         0.0600 
    167 H167       -0.5023  -19.3915  -47.1097 H         1 UNK         0.0600 
    168 H168       -1.5378  -18.0400  -46.6824 H         1 UNK         0.0600 
    169 H169       -0.2252  -16.0619  -45.8925 H         1 UNK         0.3000 
    170 H170        1.5114  -14.2228  -43.3607 H         1 UNK         0.0600 
    171 H171        3.0362  -14.2695  -45.3260 H         1 UNK         0.0600 
    172 H172        1.6601  -14.1878  -46.4218 H         1 UNK         0.0600 
    173 H173        2.0275  -12.8302  -45.3589 H         1 UNK         0.0600 
    174 H174       -0.6765  -14.1997  -45.4199 H         1 UNK         0.3000 
    175 H175       -3.0718  -13.2950  -43.0028 H         1 UNK         0.0600 
    176 H176       -2.1850  -11.0312  -43.6047 H         1 UNK         0.0600 
    177 H177       -2.0342  -11.5297  -45.2855 H         1 UNK         0.0600 
    178 H178       -3.6251  -11.4235  -44.5298 H         1 UNK         0.0600 
    179 H179       -3.3546  -13.5822  -45.7934 H         1 UNK         0.3000 
    180 H180       -3.4807  -17.1347  -45.9796 H         1 UNK         0.0600 
    181 H181       -5.7292  -15.0832  -46.1849 H         1 UNK         0.0600 
    182 H182       -5.6743  -16.3774  -44.9928 H         1 UNK         0.0600 
    183 H183       -5.7671  -16.7698  -46.6966 H         1 UNK         0.0600 
    184 H184       -4.0718  -15.7475  -48.1254 H         1 UNK         0.3000 
    185 H185       -2.3967  -15.9343  -49.8212 H         1 UNK         0.0600 
    186 H186       -3.7349  -13.8348  -49.6212 H         1 UNK         0.0600 
    187 H187       -2.2780  -12.9049  -49.2805 H         1 UNK         0.0600 
    188 H188       -2.5121  -13.6428  -50.8649 H         1 UNK         0.0600 
    189 H189        0.0074  -14.5451  -48.8666 H         1 UNK         0.3000 
    190 H190       -0.5396  -21.5762  -45.5849 H         1 UNK         0.3000 
    191 H191       -2.7635  -21.7295  -47.3422 H         1 UNK         0.0600 
    192 H192       -2.6408  -21.2483  -44.3216 H         1 UNK         0.0600 
    193 H193       -4.0588  -20.9632  -45.3231 H         1 UNK         0.0600 
    194 H194       -2.6105  -20.0155  -45.5843 H         1 UNK         0.0600 
    195 H195       -1.4877  -24.1852  -45.2332 H         1 UNK         0.3000 
    196 H196       -3.9676  -25.7610  -45.1223 H         1 UNK         0.0600 
    197 H197       -2.5359  -27.3997  -43.9593 H         1 UNK         0.0600 
    198 H198       -2.3124  -25.8102  -43.2448 H         1 UNK         0.0600 
    199 H199       -1.0928  -26.4690  -44.3354 H         1 UNK         0.0600 
    200 H200       -1.3329  -25.2807  -47.3747 H         1 UNK         0.3000 
    201 H201       -1.5583  -27.9700  -48.5793 H         1 UNK         0.0600 
    202 H202        0.6987  -26.9556  -48.2193 H         1 UNK         0.0600 
    203 H203        0.2709  -25.6173  -49.2849 H         1 UNK         0.0600 
    204 H204        0.3702  -27.2515  -49.9198 H         1 UNK         0.0600 
    205 H205       -2.3938  -24.5478  -49.2622 H         1 UNK         0.3000 
    206 H206       -4.2786  -25.3736  -51.3302 H         1 UNK         0.0600 
    207 H207       -2.2860  -25.0945  -52.7362 H         1 UNK         0.0600 
    208 H208       -3.2794  -23.6634  -52.9622 H         1 UNK         0.0600 
    209 H209       -1.8502  -23.5921  -51.9350 H         1 UNK         0.0600 
    210 H210       -5.7949  -23.7204  -51.7842 H         1 UNK         0.3000 
    211 H211       -6.6541  -22.3445  -49.4722 H         1 UNK         0.0600 
    212 H212       -8.5682  -21.7003  -50.9385 H         1 UNK         0.0600 
    213 H213       -8.1897  -23.4082  -51.0790 H         1 UNK         0.0600 
    214 H214       -7.6973  -22.2890  -52.3499 H         1 UNK         0.0600 
    215 H215       -4.7770  -20.9806  -49.1027 H         1 UNK         0.3000 
    216 H216       -3.9680  -18.8149  -50.6508 H         1 UNK         0.0600 
    217 H217       -2.8132  -18.0935  -48.6297 H         1 UNK         0.0600 
    218 H218       -2.7307  -19.8348  -48.7210 H         1 UNK         0.0600 
    219 H219       -3.8646  -19.0723  -47.6051 H         1 UNK         0.0600 
    220 H220       -6.9495  -19.0284  -49.0041 H         1 UNK         0.3000 
    221 H221       -7.3525  -16.1121  -48.7033 H         1 UNK         0.0600 
    222 H222       -9.2101  -18.4959  -48.1887 H         1 UNK         0.0600 
    223 H223       -8.2528  -17.6541  -46.9694 H         1 UNK         0.0600 
    224 H224       -9.5556  -16.8158  -47.7961 H         1 UNK         0.0600 
    225 H225       -7.7969  -18.6019  -51.1155 H         1 UNK         0.3000 
    226 H226       -9.8964  -17.0419  -52.5677 H         1 UNK         0.0600 
    227 H227      -10.4967  -19.3835  -51.9503 H         1 UNK         0.0600 
    228 H228      -10.3625  -19.1955  -53.6923 H         1 UNK         0.0600 
    229 H229       -9.0697  -19.9825  -52.7960 H         1 UNK         0.0600 
    230 H230       -6.6159  -18.4181  -52.7852 H         1 UNK         0.3000 
    231 H231       -6.0707  -16.9261  -55.2651 H         1 UNK         0.0600 
    232 H232       -6.8427  -19.2401  -55.9723 H         1 UNK         0.0600 
    233 H233       -5.6022  -19.9523  -54.9428 H         1 UNK         0.0600 
    234 H234       -5.1484  -18.9837  -56.3411 H         1 UNK         0.0600 
    235 H235       -3.5608  -17.6455  -55.7428 H         1 UNK         0.3000 
    236 H236       -1.9879  -16.7681  -53.4580 H         1 UNK         0.0600 
    237 H237       -0.0978  -17.0194  -55.0729 H         1 UNK         0.0600 
    238 H238       -1.1696  -17.7859  -56.2380 H         1 UNK         0.0600 
    239 H239       -1.4049  -16.0949  -55.7916 H         1 UNK         0.0600 
    240 H240       -0.2078  -18.0201  -52.5909 H         1 UNK         0.3000 
    241 H241        0.8940  -19.7203  -51.7472 H         1 UNK         0.0600 
    242 H242       -2.5392  -20.7785  -52.2599 H         1 UNK         0.3800 
    243 H243       -2.7330  -21.3377  -50.5952 H         1 UNK         0.3800 
    244 H244       -0.4348  -21.6191  -53.7482 H         1 UNK         0.0800 
    245 H245        1.0322  -20.7362  -54.0379 H         1 UNK         0.0800 
    246 H246        3.7499  -22.9636  -52.6226 H         1 UNK         0.0800 
    247 H247        3.2309  -21.9429  -53.9437 H         1 UNK         0.0800 
@<TRIPOS>BOND
     1    1    2 1    
     2    1  127 1    
     3    1  128 1    
     4    1  129 1    
     5    2    3 2    
     6    2    4 am   BACKBONE|DICT|INTERRES
     7    4    5 1    
     8    4  130 1    
     9    5    6 1    
    10    5   65 1    
    11    5  131 1    
    12    6    7 1    
    13    6  132 1    
    14    6  133 1    
    15    7    8 1    
    16    8    9 1    
    17    8  134 1    
    18    8  135 1    
    19    9   10 ar   
    20    9   14 ar   
    21   10   11 ar   
    22   10  136 1    
    23   11   12 ar   
    24   11  126 1    
    25   12   13 ar   
    26   12  137 1    
    27   13   14 ar   
    28   13   15 1    
    29   14  138 1    
    30   15   16 1    
    31   15  139 1    
    32   15  140 1    
    33   16   17 1    
    34   17   18 1    
    35   17  141 1    
    36   17  142 1    
    37   18   19 1    
    38   18   67 1    
    39   18  143 1    
    40   19   20 am   BACKBONE|DICT|INTERRES
    41   19  144 1    
    42   20   21 2    
    43   20   22 1    
    44   22   23 1    
    45   22   24 1    
    46   22  145 1    
    47   23  146 1    
    48   23  147 1    
    49   23  148 1    
    50   24   25 am   BACKBONE|DICT|INTERRES
    51   24  149 1    
    52   25   26 2    
    53   25   27 1    
    54   27   28 1    
    55   27   29 1    
    56   27  150 1    
    57   28  151 1    
    58   28  152 1    
    59   28  153 1    
    60   29   30 am   BACKBONE|DICT|INTERRES
    61   29  154 1    
    62   30   31 2    
    63   30   32 1    
    64   32   33 1    
    65   32   34 1    
    66   32  155 1    
    67   33  156 1    
    68   33  157 1    
    69   33  158 1    
    70   34   35 am   BACKBONE|DICT|INTERRES
    71   34  159 1    
    72   35   36 2    
    73   35   37 1    
    74   37   38 1    
    75   37   39 1    
    76   37  160 1    
    77   38  161 1    
    78   38  162 1    
    79   38  163 1    
    80   39   40 am   BACKBONE|DICT|INTERRES
    81   39  164 1    
    82   40   41 2    
    83   40   42 1    
    84   42   43 1    
    85   42   44 1    
    86   42  165 1    
    87   43  166 1    
    88   43  167 1    
    89   43  168 1    
    90   44   45 am   BACKBONE|DICT|INTERRES
    91   44  169 1    
    92   45   46 2    
    93   45   47 1    
    94   47   48 1    
    95   47   49 1    
    96   47  170 1    
    97   48  171 1    
    98   48  172 1    
    99   48  173 1    
   100   49   50 am   BACKBONE|DICT|INTERRES
   101   49  174 1    
   102   50   51 2    
   103   50   52 1    
   104   52   53 1    
   105   52   54 1    
   106   52  175 1    
   107   53  176 1    
   108   53  177 1    
   109   53  178 1    
   110   54   55 am   BACKBONE|DICT|INTERRES
   111   54  179 1    
   112   55   56 2    
   113   55   57 1    
   114   57   58 1    
   115   57   59 1    
   116   57  180 1    
   117   58  181 1    
   118   58  182 1    
   119   58  183 1    
   120   59   60 am   BACKBONE|DICT|INTERRES
   121   59  184 1    
   122   60   61 2    
   123   60   62 1    
   124   62   63 1    
   125   62   64 1    
   126   62  185 1    
   127   63  186 1    
   128   63  187 1    
   129   63  188 1    
   130   64   65 am   BACKBONE|DICT|INTERRES
   131   64  189 1    
   132   65   66 2    
   133   67   68 2    
   134   67   69 am   BACKBONE|DICT|INTERRES
   135   69   70 1    
   136   69  190 1    
   137   70   71 1    
   138   70   72 1    
   139   70  191 1    
   140   71  192 1    
   141   71  193 1    
   142   71  194 1    
   143   72   73 2    
   144   72   74 am   BACKBONE|DICT|INTERRES
   145   74   75 1    
   146   74  195 1    
   147   75   76 1    
   148   75   77 1    
   149   75  196 1    
   150   76  197 1    
   151   76  198 1    
   152   76  199 1    
   153   77   78 2    
   154   77   79 am   BACKBONE|DICT|INTERRES
   155   79   80 1    
   156   79  200 1    
   157   80   81 1    
   158   80   82 1    
   159   80  201 1    
   160   81  202 1    
   161   81  203 1    
   162   81  204 1    
   163   82   83 2    
   164   82   84 am   BACKBONE|DICT|INTERRES
   165   84   85 1    
   166   84  205 1    
   167   85   86 1    
   168   85   87 1    
   169   85  206 1    
   170   86  207 1    
   171   86  208 1    
   172   86  209 1    
   173   87   88 2    
   174   87   89 am   BACKBONE|DICT|INTERRES
   175   89   90 1    
   176   89  210 1    
   177   90   91 1    
   178   90   92 1    
   179   90  211 1    
   180   91  212 1    
   181   91  213 1    
   182   91  214 1    
   183   92   93 2    
   184   92   94 am   BACKBONE|DICT|INTERRES
   185   94   95 1    
   186   94  215 1    
   187   95   96 1    
   188   95   97 1    
   189   95  216 1    
   190   96  217 1    
   191   96  218 1    
   192   96  219 1    
   193   97   98 2    
   194   97   99 am   BACKBONE|DICT|INTERRES
   195   99  100 1    
   196   99  220 1    
   197  100  101 1    
   198  100  102 1    
   199  100  221 1    
   200  101  222 1    
   201  101  223 1    
   202  101  224 1    
   203  102  103 2    
   204  102  104 am   BACKBONE|DICT|INTERRES
   205  104  105 1    
   206  104  225 1    
   207  105  106 1    
   208  105  107 1    
   209  105  226 1    
   210  106  227 1    
   211  106  228 1    
   212  106  229 1    
   213  107  108 2    
   214  107  109 am   BACKBONE|DICT|INTERRES
   215  109  110 1    
   216  109  230 1    
   217  110  111 1    
   218  110  112 1    
   219  110  231 1    
   220  111  232 1    
   221  111  233 1    
   222  111  234 1    
   223  112  113 2    
   224  112  114 am   BACKBONE|DICT|INTERRES
   225  114  115 1    
   226  114  235 1    
   227  115  116 1    
   228  115  117 1    
   229  115  236 1    
   230  116  237 1    
   231  116  238 1    
   232  116  239 1    
   233  117  118 2    
   234  117  119 am   BACKBONE|DICT|INTERRES
   235  119  120 1    
   236  119  240 1    
   237  120  121 1    
   238  120  124 1    
   239  120  241 1    
   240  121  122 am   BACKBONE|DICT|INTERRES
   241  121  123 2    
   242  122  242 1    
   243  122  243 1    
   244  124  125 1    
   245  124  244 1    
   246  124  245 1    
   247  125  126 1    
   248  126  246 1    
   249  126  247 1    
@<TRIPOS>SUBSTRUCTURE
     1 UNK         1 GROUP             0       ****    0 ROOT    
