@<TRIPOS>MOLECULE
3R540
247   249    1
SMALL
USER_CHARGES


@<TRIPOS>ATOM
      1 CA         -1.5411  -11.8507  -46.2776 C.3       0 UNK        -0.1800 
      2 C          -0.3331  -12.4749  -46.9609 C.2       0 UNK         0.5000 
      3 O           0.2082  -13.4666  -46.4726 O.2       0 UNK        -0.5000 
      4 N           0.0939  -11.8867  -48.0850 N.am      1 UNK        -0.5000 
      5 CA          1.2310  -12.2673  -48.9340 C.3       1 UNK         0.1400 
      6 C6          1.1313  -13.7083  -49.5047 C.3       23 UNK        -0.0398 
      7 S7          1.9727  -13.8411  -51.1181 S.3       23 UNK        -0.2404 
      8 C8          3.1551  -15.2028  -50.8323 C.3       23 UNK        -0.0205 
      9 C9          2.5807  -16.6073  -51.0247 C.ar      23 UNK        -0.0193 
     10 C10         1.5340  -16.8656  -51.9210 C.ar      23 UNK        -0.1150 
     11 C11         1.0700  -18.1676  -52.1234 C.ar      23 UNK        -0.0193 
     12 C12         1.6850  -19.2261  -51.4511 C.ar      23 UNK        -0.1150 
     13 C13         2.7153  -18.9879  -50.5393 C.ar      23 UNK        -0.0193 
     14 C14         3.1573  -17.6775  -50.3311 C.ar      23 UNK        -0.1150 
     15 C15         3.3605  -20.1492  -49.7950 C.3       23 UNK        -0.0205 
     16 S16         2.6241  -20.4006  -48.1475 S.3       23 UNK        -0.2404 
     17 C17         0.9479  -21.0014  -48.5512 C.3       23 UNK        -0.0398 
     18 CA          0.5065  -22.1965  -47.6748 C.3       11 UNK         0.1400 
     19 N           0.3843  -21.8572  -46.2550 N.am      11 UNK        -0.5000 
     20 C           0.1694  -22.7508  -45.2787 C.2       10 UNK         0.5000 
     21 O           0.1191  -23.9674  -45.4640 O.2       10 UNK        -0.5000 
     22 CA         -0.0959  -22.1904  -43.8704 C.3       10 UNK         0.1400 
     23 CB          1.2180  -21.8330  -43.1602 C.3       10 UNK        -0.1800 
     24 N          -0.9879  -21.0294  -43.8968 N.am      10 UNK        -0.5000 
     25 C          -2.2730  -21.0812  -44.2772 C.2       9 UNK         0.5000 
     26 O          -2.8489  -22.1273  -44.5776 O.2       9 UNK        -0.5000 
     27 CA         -3.0344  -19.7454  -44.3793 C.3       9 UNK         0.1400 
     28 CB         -3.5311  -19.2954  -42.9981 C.3       9 UNK        -0.1800 
     29 N          -2.2419  -18.6764  -44.9884 N.am      9 UNK        -0.5000 
     30 C          -1.7756  -18.6940  -46.2455 C.2       8 UNK         0.5000 
     31 O          -1.9898  -19.6047  -47.0425 O.2       8 UNK        -0.5000 
     32 CA         -0.8505  -17.5378  -46.6638 C.3       8 UNK         0.1400 
     33 CB         -1.6590  -16.3072  -47.0986 C.3       8 UNK        -0.1800 
     34 N           0.1004  -17.1676  -45.6145 N.am      8 UNK        -0.5000 
     35 C           1.0239  -17.9968  -45.1059 C.2       7 UNK         0.5000 
     36 O           1.1777  -19.1594  -45.4744 O.2       7 UNK        -0.5000 
     37 CA          1.8778  -17.4519  -43.9504 C.3       7 UNK         0.1400 
     38 CB          2.8519  -16.3810  -44.4563 C.3       7 UNK        -0.1800 
     39 N           1.0492  -16.8963  -42.8818 N.am      7 UNK        -0.5000 
     40 C           0.2176  -17.6205  -42.1161 C.2       6 UNK         0.5000 
     41 O           0.1173  -18.8448  -42.1843 O.2       6 UNK        -0.5000 
     42 CA         -0.6931  -16.8457  -41.1427 C.3       6 UNK         0.1400 
     43 CB         -0.0082  -16.6842  -39.7776 C.3       6 UNK        -0.1800 
     44 N          -1.0771  -15.5261  -41.6440 N.am      6 UNK        -0.5000 
     45 C          -1.7229  -15.2934  -42.7952 C.2       5 UNK         0.5000 
     46 O          -2.1694  -16.1859  -43.5157 O.2       5 UNK        -0.5000 
     47 CA         -1.8538  -13.8276  -43.2472 C.3       5 UNK         0.1400 
     48 CB         -3.3170  -13.3653  -43.1821 C.3       5 UNK        -0.1800 
     49 N          -1.0176  -12.8795  -42.5015 N.am      5 UNK        -0.5000 
     50 C           0.3208  -12.8313  -42.5336 C.2       4 UNK         0.5000 
     51 O           1.0276  -13.6248  -43.1612 O.2       4 UNK        -0.5000 
     52 CA          0.9753  -11.7472  -41.6694 C.3       4 UNK         0.1400 
     53 CB          1.2382  -12.2673  -40.2459 C.3       4 UNK        -0.1800 
     54 N           2.2329  -11.3495  -42.2878 N.am      4 UNK        -0.5000 
     55 C           2.7651  -10.1223  -42.2452 C.2       3 UNK         0.5000 
     56 O           2.2754   -9.1903  -41.6053 O.2       3 UNK        -0.5000 
     57 CA          4.0600   -9.8820  -43.0508 C.3       3 UNK         0.1400 
     58 CB          5.2791   -9.8746  -42.1151 C.3       3 UNK        -0.1800 
     59 N           4.2904  -10.8615  -44.1169 N.am      3 UNK        -0.5000 
     60 C           3.5467  -10.9836  -45.2247 C.2       2 UNK         0.5000 
     61 O           2.5939  -10.2434  -45.4830 O.2       2 UNK        -0.5000 
     62 CA          3.9317  -12.1278  -46.1861 C.3       2 UNK         0.1400 
     63 CB          4.3567  -13.4010  -45.4326 C.3       2 UNK        -0.1800 
     64 N           2.8009  -12.4540  -47.0507 N.am      2 UNK        -0.5000 
     65 C           2.6010  -11.9728  -48.2816 C.2       1 UNK         0.5000 
     66 O           3.4274  -11.2899  -48.8896 O.2       1 UNK        -0.5000 
     67 C          -0.7915  -22.8275  -48.2214 C.2       11 UNK         0.5000 
     68 O          -0.7102  -23.8339  -48.9219 O.2       11 UNK        -0.5000 
     69 N          -1.9584  -22.2665  -47.8659 N.am      12 UNK        -0.5000 
     70 CA         -3.2799  -22.7919  -48.2200 C.3       12 UNK         0.1400 
     71 CB         -4.3918  -21.8477  -47.7327 C.3       12 UNK        -0.1800 
     72 C          -3.5186  -24.2055  -47.6727 C.2       12 UNK         0.5000 
     73 O          -4.0018  -25.0587  -48.4146 O.2       12 UNK        -0.5000 
     74 N          -3.1481  -24.4353  -46.4062 N.am      13 UNK        -0.5000 
     75 CA         -3.2257  -25.7387  -45.7479 C.3       13 UNK         0.1400 
     76 CB         -2.9099  -25.5782  -44.2531 C.3       13 UNK        -0.1800 
     77 C          -2.3051  -26.7895  -46.3964 C.2       13 UNK         0.5000 
     78 O          -2.7256  -27.9328  -46.5758 O.2       13 UNK        -0.5000 
     79 N          -1.0809  -26.3797  -46.7557 N.am      14 UNK        -0.5000 
     80 CA         -0.0889  -27.2211  -47.4246 C.3       14 UNK         0.1400 
     81 CB          1.2822  -26.5293  -47.3748 C.3       14 UNK        -0.1800 
     82 C          -0.4738  -27.5651  -48.8758 C.2       14 UNK         0.5000 
     83 O          -0.3572  -28.7235  -49.2775 O.2       14 UNK        -0.5000 
     84 N          -0.9198  -26.5561  -49.6350 N.am      15 UNK        -0.5000 
     85 CA         -1.2701  -26.6724  -51.0520 C.3       15 UNK         0.1400 
     86 CB         -1.1516  -25.2845  -51.7011 C.3       15 UNK        -0.1800 
     87 C          -2.6759  -27.2506  -51.3000 C.2       15 UNK         0.5000 
     88 O          -2.9705  -27.6279  -52.4340 O.2       15 UNK        -0.5000 
     89 N          -3.5197  -27.2769  -50.2584 N.am      16 UNK        -0.5000 
     90 CA         -4.9500  -27.6028  -50.2787 C.3       16 UNK         0.1400 
     91 CB         -5.1921  -29.0665  -50.7042 C.3       16 UNK        -0.1800 
     92 C          -5.7571  -26.5745  -51.1012 C.2       16 UNK         0.5000 
     93 O          -6.6050  -26.9514  -51.9121 O.2       16 UNK        -0.5000 
     94 N          -5.4578  -25.2880  -50.8607 N.am      17 UNK        -0.5000 
     95 CA         -6.0449  -24.0911  -51.4748 C.3       17 UNK         0.1400 
     96 CB         -7.4866  -23.8842  -50.9686 C.3       17 UNK        -0.1800 
     97 C          -5.9356  -24.0875  -53.0154 C.2       17 UNK         0.5000 
     98 O          -6.9345  -23.9005  -53.7136 O.2       17 UNK        -0.5000 
     99 N          -4.7167  -24.3283  -53.5175 N.am      18 UNK        -0.5000 
    100 CA        -4.4023  -24.3876  -54.9475 C.3       18 UNK         0.1400 
    101 CB        -3.0139  -25.0169  -55.1325 C.3       18 UNK        -0.1800 
    102 C         -4.4581  -23.0181  -55.6525 C.2       18 UNK         0.5000 
    103 O         -4.6847  -22.9738  -56.8628 O.2       18 UNK        -0.5000 
    104 N         -4.2457  -21.9375  -54.8952 N.am      19 UNK        -0.5000 
    105 CA        -4.3198  -20.5514  -55.3439 C.3       19 UNK         0.1400 
    106 CB        -2.9098  -19.9421  -55.2767 C.3       19 UNK        -0.1800 
    107 C         -5.3163  -19.7812  -54.4612 C.2       19 UNK         0.5000 
    108 O         -5.8370  -20.3322  -53.4874 O.2       19 UNK        -0.5000 
    109 N         -5.5772  -18.5193  -54.8270 N.am      20 UNK        -0.5000 
    110 CA        -6.4988  -17.5999  -54.1553 C.3       20 UNK         0.1400 
    111 CB        -6.5984  -16.3067  -54.9829 C.3       20 UNK        -0.1800 
    112 C         -6.0895  -17.3169  -52.6949 C.2       20 UNK         0.5000 
    113 O         -5.2953  -16.4096  -52.4424 O.2       20 UNK        -0.5000 
    114 N         -6.6287  -18.1314  -51.7771 N.am      21 UNK        -0.5000 
    115 CA        -6.3560  -18.1675  -50.3374 C.3       21 UNK         0.1400 
    116 CB        -6.8264  -16.8659  -49.6536 C.3       21 UNK        -0.1800 
    117 C         -4.8958  -18.5368  -49.9937 C.2       21 UNK         0.5000 
    118 O         -4.3946  -18.1119  -48.9525 O.2       21 UNK        -0.5000 
    119 N         -4.2471  -19.3348  -50.8518 N.am      22 UNK        -0.5000 
    120 CA        -2.8722  -19.8221  -50.6786 C.3       22 UNK         0.1400 
    121 C         -2.5883  -21.0918  -51.5322 C.2       22 UNK         0.5000 
    122 N         -1.3401  -21.5188  -51.6605 N.am      22 UNK        -0.7600 
    123 O         -3.4953  -21.7333  -52.0554 O.2       22 UNK        -0.5000 
    124 C124       -1.7983  -18.7008  -50.7722 C.3       23 UNK        -0.0398 
    125 S125       -1.6915  -17.8478  -52.3865 S.3       23 UNK        -0.2404 
    126 C126       -0.0993  -18.4338  -53.0630 C.3       23 UNK        -0.0205 
    127 H127       -1.9076  -10.9781  -46.8186 H         1 UNK         0.0600 
    128 H128       -1.2784  -11.5355  -45.2679 H         1 UNK         0.0600 
    129 H129       -2.3532  -12.5750  -46.2157 H         1 UNK         0.0600 
    130 H130       -0.3919  -11.0573  -48.3973 H         1 UNK         0.3000 
    131 H131        1.1496  -11.5781  -49.7766 H         1 UNK         0.0600 
    132 H132        0.0863  -13.9712  -49.6739 H         1 UNK         0.0800 
    133 H133        1.5111  -14.4494  -48.7991 H         1 UNK         0.0800 
    134 H134        3.5880  -15.0980  -49.8361 H         1 UNK         0.0800 
    135 H135        3.9804  -15.0842  -51.5353 H         1 UNK         0.0800 
    136 H136        1.0714  -16.0585  -52.4702 H         1 UNK         0.1150 
    137 H137        1.3557  -20.2381  -51.6320 H         1 UNK         0.1150 
    138 H138        3.9667  -17.4948  -49.6380 H         1 UNK         0.1150 
    139 H139        3.2859  -21.0699  -50.3757 H         1 UNK         0.0800 
    140 H140        4.4273  -19.9553  -49.6746 H         1 UNK         0.0800 
    141 H141        0.9370  -21.3004  -49.5987 H         1 UNK         0.0800 
    142 H142        0.2506  -20.1687  -48.4558 H         1 UNK         0.0800 
    143 H143        1.2812  -22.9627  -47.7517 H         1 UNK         0.0600 
    144 H144        0.4753  -20.8741  -46.0107 H         1 UNK         0.3000 
    145 H145       -0.5867  -22.9750  -43.2908 H         1 UNK         0.0600 
    146 H146        1.0357  -21.5160  -42.1333 H         1 UNK         0.0600 
    147 H147        1.7488  -21.0281  -43.6684 H         1 UNK         0.0600 
    148 H148        1.8866  -22.6938  -43.1211 H         1 UNK         0.0600 
    149 H149       -0.5840  -20.1392  -43.6258 H         1 UNK         0.3000 
    150 H150       -3.9063  -19.9090  -45.0158 H         1 UNK         0.0600 
    151 H151       -4.1759  -20.0525  -42.5503 H         1 UNK         0.0600 
    152 H152       -4.1087  -18.3733  -43.0665 H         1 UNK         0.0600 
    153 H153       -2.7031  -19.1222  -42.3112 H         1 UNK         0.0600 
    154 H154       -2.0525  -17.8600  -44.4127 H         1 UNK         0.3000 
    155 H155       -0.2728  -17.8789  -47.5255 H         1 UNK         0.0600 
    156 H156       -2.1710  -15.8388  -46.2577 H         1 UNK         0.0600 
    157 H157       -2.4162  -16.5764  -47.8356 H         1 UNK         0.0600 
    158 H158       -1.0143  -15.5610  -47.5613 H         1 UNK         0.0600 
    159 H159        0.0223  -16.2331  -45.2404 H         1 UNK         0.3000 
    160 H160        2.4596  -18.2787  -43.5375 H         1 UNK         0.0600 
    161 H161        2.3185  -15.5327  -44.8865 H         1 UNK         0.0600 
    162 H162        3.5081  -16.7829  -45.2293 H         1 UNK         0.0600 
    163 H163        3.4847  -16.0091  -43.6504 H         1 UNK         0.0600 
    164 H164        1.0507  -15.8884  -42.7847 H         1 UNK         0.3000 
    165 H165       -1.6057  -17.4276  -41.0034 H         1 UNK         0.0600 
    166 H166       -0.6725  -16.2080  -39.0562 H         1 UNK         0.0600 
    167 H167        0.2748  -17.6540  -39.3662 H         1 UNK         0.0600 
    168 H168        0.8977  -16.0808  -39.8504 H         1 UNK         0.0600 
    169 H169       -0.7531  -14.7300  -41.1165 H         1 UNK         0.3000 
    170 H170       -1.5329  -13.8080  -44.2887 H         1 UNK         0.0600 
    171 H171       -3.9634  -14.0275  -43.7599 H         1 UNK         0.0600 
    172 H172       -3.6898  -13.3544  -42.1572 H         1 UNK         0.0600 
    173 H173       -3.4330  -12.3627  -43.5942 H         1 UNK         0.0600 
    174 H174       -1.5139  -12.2049  -41.9366 H         1 UNK         0.3000 
    175 H175        0.3003  -10.8896  -41.6253 H         1 UNK         0.0600 
    176 H176        1.9051  -13.1305  -40.2507 H         1 UNK         0.0600 
    177 H177        1.6935  -11.4971  -39.6230 H         1 UNK         0.0600 
    178 H178        0.3100  -12.5699  -39.7597 H         1 UNK         0.0600 
    179 H179        2.6579  -12.0579  -42.8711 H         1 UNK         0.3000 
    180 H180        3.9774   -8.8952  -43.5112 H         1 UNK         0.0600 
    181 H181        6.1919   -9.6265  -42.6569 H         1 UNK         0.0600 
    182 H182        5.4239  -10.8436  -41.6358 H         1 UNK         0.0600 
    183 H183        5.1611   -9.1321  -41.3246 H         1 UNK         0.0600 
    184 H184        5.0563  -11.5039  -43.9743 H         1 UNK         0.3000 
    185 H185        4.7769  -11.7880  -46.7877 H         1 UNK         0.0600 
    186 H186        3.6411  -13.6551  -44.6507 H         1 UNK         0.0600 
    187 H187        4.4379  -14.2538  -46.1070 H         1 UNK         0.0600 
    188 H188        5.3314  -13.2768  -44.9600 H         1 UNK         0.0600 
    189 H189        2.0207  -12.9391  -46.6143 H         1 UNK         0.3000 
    190 H190       -1.9444  -21.3990  -47.3326 H         1 UNK         0.3000 
    191 H191       -3.3305  -22.8475  -49.3084 H         1 UNK         0.0600 
    192 H192       -4.2444  -20.8260  -48.0746 H         1 UNK         0.0600 
    193 H193       -4.4524  -21.8193  -46.6454 H         1 UNK         0.0600 
    194 H194       -5.3643  -22.1745  -48.1030 H         1 UNK         0.0600 
    195 H195       -2.8035  -23.6590  -45.8491 H         1 UNK         0.3000 
    196 H196       -4.2533  -26.0965  -45.8403 H         1 UNK         0.0600 
    197 H197       -3.6055  -24.8876  -43.7760 H         1 UNK         0.0600 
    198 H198       -1.9008  -25.1984  -44.0920 H         1 UNK         0.0600 
    199 H199       -2.9893  -26.5331  -43.7322 H         1 UNK         0.0600 
    200 H200       -0.7975  -25.4313  -46.5297 H         1 UNK         0.3000 
    201 H201       -0.0124  -28.1586  -46.8698 H         1 UNK         0.0600 
    202 H202        1.5975  -26.3546  -46.3459 H         1 UNK         0.0600 
    203 H203        1.2672  -25.5662  -47.8861 H         1 UNK         0.0600 
    204 H204        2.0479  -27.1431  -47.8507 H         1 UNK         0.0600 
    205 H205       -0.9436  -25.6159  -49.2435 H         1 UNK         0.3000 
    206 H206       -0.5504  -27.3353  -51.5370 H         1 UNK         0.0600 
    207 H207       -1.8967  -24.5911  -51.3079 H         1 UNK         0.0600 
    208 H208       -0.1662  -24.8508  -51.5302 H         1 UNK         0.0600 
    209 H209       -1.2917  -25.3488  -52.7790 H         1 UNK         0.0600 
    210 H210       -3.1853  -26.8876  -49.3858 H         1 UNK         0.3000 
    211 H211       -5.2950  -27.5041  -49.2483 H         1 UNK         0.0600 
    212 H212       -4.9411  -29.2364  -51.7513 H         1 UNK         0.0600 
    213 H213       -6.2399  -29.3392  -50.5740 H         1 UNK         0.0600 
    214 H214       -4.6003  -29.7547  -50.1006 H         1 UNK         0.0600 
    215 H215       -4.7778  -25.1165  -50.1243 H         1 UNK         0.3000 
    216 H216       -5.4554  -23.2443  -51.1223 H         1 UNK         0.0600 
    217 H217       -7.8998  -22.9465  -51.3423 H         1 UNK         0.0600 
    218 H218       -7.5186  -23.8412  -49.8799 H         1 UNK         0.0600 
    219 H219       -8.1488  -24.6877  -51.2927 H         1 UNK         0.0600 
    220 H220       -3.9495  -24.4611  -52.8763 H         1 UNK         0.3000 
    221 H221       -5.1370  -25.0375  -55.4275 H         1 UNK         0.0600 
    222 H222       -2.2310  -24.3892  -54.7059 H         1 UNK         0.0600 
    223 H223       -2.9574  -26.0000  -54.6655 H         1 UNK         0.0600 
    224 H224       -2.7846  -25.1483  -56.1907 H         1 UNK         0.0600 
    225 H225       -4.1287  -22.0522  -53.8912 H         1 UNK         0.3000 
    226 H226       -4.6834  -20.4950  -56.3717 H         1 UNK         0.0600 
    227 H227       -2.2238  -20.4713  -55.9380 H         1 UNK         0.0600 
    228 H228       -2.9064  -18.8945  -55.5789 H         1 UNK         0.0600 
    229 H229       -2.5023  -19.9959  -54.2686 H         1 UNK         0.0600 
    230 H230       -5.0897  -18.1411  -55.6259 H         1 UNK         0.3000 
    231 H231       -7.4878  -18.0628  -54.1482 H         1 UNK         0.0600 
    232 H232       -7.2722  -15.5917  -54.5091 H         1 UNK         0.0600 
    233 H233       -6.9882  -16.5061  -55.9813 H         1 UNK         0.0600 
    234 H234       -5.6281  -15.8205  -55.0927 H         1 UNK         0.0600 
    235 H235       -7.2012  -18.8913  -52.1207 H         1 UNK         0.3000 
    236 H236       -6.9650  -18.9803  -49.9396 H         1 UNK         0.0600 
    237 H237       -6.2109  -16.0126  -49.9394 H         1 UNK         0.0600 
    238 H238       -7.8604  -16.6360  -49.9104 H         1 UNK         0.0600 
    239 H239       -6.7757  -16.9541  -48.5678 H         1 UNK         0.0600 
    240 H240       -4.7286  -19.6895  -51.6713 H         1 UNK         0.3000 
    241 H241       -2.8162  -20.1957  -49.6582 H         1 UNK         0.0600 
    242 H242       -1.1727  -22.3498  -52.2035 H         1 UNK         0.3800 
    243 H243       -0.5669  -21.0295  -51.2519 H         1 UNK         0.3800 
    244 H244       -0.8279  -19.0908  -50.4764 H         1 UNK         0.0800 
    245 H245       -2.0089  -17.9341  -50.0267 H         1 UNK         0.0800 
    246 H246       -0.1772  -19.4962  -53.2966 H         1 UNK         0.0800 
    247 H247        0.0833  -17.9301  -54.0132 H         1 UNK         0.0800 
@<TRIPOS>BOND
     1    1    2 1    
     2    1  127 1    
     3    1  128 1    
     4    1  129 1    
     5    2    3 2    
     6    2    4 am   BACKBONE|DICT|INTERRES
     7    4    5 1    
     8    4  130 1    
     9    5    6 1    
    10    5   65 1    
    11    5  131 1    
    12    6    7 1    
    13    6  132 1    
    14    6  133 1    
    15    7    8 1    
    16    8    9 1    
    17    8  134 1    
    18    8  135 1    
    19    9   10 ar   
    20    9   14 ar   
    21   10   11 ar   
    22   10  136 1    
    23   11   12 ar   
    24   11  126 1    
    25   12   13 ar   
    26   12  137 1    
    27   13   14 ar   
    28   13   15 1    
    29   14  138 1    
    30   15   16 1    
    31   15  139 1    
    32   15  140 1    
    33   16   17 1    
    34   17   18 1    
    35   17  141 1    
    36   17  142 1    
    37   18   19 1    
    38   18   67 1    
    39   18  143 1    
    40   19   20 am   BACKBONE|DICT|INTERRES
    41   19  144 1    
    42   20   21 2    
    43   20   22 1    
    44   22   23 1    
    45   22   24 1    
    46   22  145 1    
    47   23  146 1    
    48   23  147 1    
    49   23  148 1    
    50   24   25 am   BACKBONE|DICT|INTERRES
    51   24  149 1    
    52   25   26 2    
    53   25   27 1    
    54   27   28 1    
    55   27   29 1    
    56   27  150 1    
    57   28  151 1    
    58   28  152 1    
    59   28  153 1    
    60   29   30 am   BACKBONE|DICT|INTERRES
    61   29  154 1    
    62   30   31 2    
    63   30   32 1    
    64   32   33 1    
    65   32   34 1    
    66   32  155 1    
    67   33  156 1    
    68   33  157 1    
    69   33  158 1    
    70   34   35 am   BACKBONE|DICT|INTERRES
    71   34  159 1    
    72   35   36 2    
    73   35   37 1    
    74   37   38 1    
    75   37   39 1    
    76   37  160 1    
    77   38  161 1    
    78   38  162 1    
    79   38  163 1    
    80   39   40 am   BACKBONE|DICT|INTERRES
    81   39  164 1    
    82   40   41 2    
    83   40   42 1    
    84   42   43 1    
    85   42   44 1    
    86   42  165 1    
    87   43  166 1    
    88   43  167 1    
    89   43  168 1    
    90   44   45 am   BACKBONE|DICT|INTERRES
    91   44  169 1    
    92   45   46 2    
    93   45   47 1    
    94   47   48 1    
    95   47   49 1    
    96   47  170 1    
    97   48  171 1    
    98   48  172 1    
    99   48  173 1    
   100   49   50 am   BACKBONE|DICT|INTERRES
   101   49  174 1    
   102   50   51 2    
   103   50   52 1    
   104   52   53 1    
   105   52   54 1    
   106   52  175 1    
   107   53  176 1    
   108   53  177 1    
   109   53  178 1    
   110   54   55 am   BACKBONE|DICT|INTERRES
   111   54  179 1    
   112   55   56 2    
   113   55   57 1    
   114   57   58 1    
   115   57   59 1    
   116   57  180 1    
   117   58  181 1    
   118   58  182 1    
   119   58  183 1    
   120   59   60 am   BACKBONE|DICT|INTERRES
   121   59  184 1    
   122   60   61 2    
   123   60   62 1    
   124   62   63 1    
   125   62   64 1    
   126   62  185 1    
   127   63  186 1    
   128   63  187 1    
   129   63  188 1    
   130   64   65 am   BACKBONE|DICT|INTERRES
   131   64  189 1    
   132   65   66 2    
   133   67   68 2    
   134   67   69 am   BACKBONE|DICT|INTERRES
   135   69   70 1    
   136   69  190 1    
   137   70   71 1    
   138   70   72 1    
   139   70  191 1    
   140   71  192 1    
   141   71  193 1    
   142   71  194 1    
   143   72   73 2    
   144   72   74 am   BACKBONE|DICT|INTERRES
   145   74   75 1    
   146   74  195 1    
   147   75   76 1    
   148   75   77 1    
   149   75  196 1    
   150   76  197 1    
   151   76  198 1    
   152   76  199 1    
   153   77   78 2    
   154   77   79 am   BACKBONE|DICT|INTERRES
   155   79   80 1    
   156   79  200 1    
   157   80   81 1    
   158   80   82 1    
   159   80  201 1    
   160   81  202 1    
   161   81  203 1    
   162   81  204 1    
   163   82   83 2    
   164   82   84 am   BACKBONE|DICT|INTERRES
   165   84   85 1    
   166   84  205 1    
   167   85   86 1    
   168   85   87 1    
   169   85  206 1    
   170   86  207 1    
   171   86  208 1    
   172   86  209 1    
   173   87   88 2    
   174   87   89 am   BACKBONE|DICT|INTERRES
   175   89   90 1    
   176   89  210 1    
   177   90   91 1    
   178   90   92 1    
   179   90  211 1    
   180   91  212 1    
   181   91  213 1    
   182   91  214 1    
   183   92   93 2    
   184   92   94 am   BACKBONE|DICT|INTERRES
   185   94   95 1    
   186   94  215 1    
   187   95   96 1    
   188   95   97 1    
   189   95  216 1    
   190   96  217 1    
   191   96  218 1    
   192   96  219 1    
   193   97   98 2    
   194   97   99 am   BACKBONE|DICT|INTERRES
   195   99  100 1    
   196   99  220 1    
   197  100  101 1    
   198  100  102 1    
   199  100  221 1    
   200  101  222 1    
   201  101  223 1    
   202  101  224 1    
   203  102  103 2    
   204  102  104 am   BACKBONE|DICT|INTERRES
   205  104  105 1    
   206  104  225 1    
   207  105  106 1    
   208  105  107 1    
   209  105  226 1    
   210  106  227 1    
   211  106  228 1    
   212  106  229 1    
   213  107  108 2    
   214  107  109 am   BACKBONE|DICT|INTERRES
   215  109  110 1    
   216  109  230 1    
   217  110  111 1    
   218  110  112 1    
   219  110  231 1    
   220  111  232 1    
   221  111  233 1    
   222  111  234 1    
   223  112  113 2    
   224  112  114 am   BACKBONE|DICT|INTERRES
   225  114  115 1    
   226  114  235 1    
   227  115  116 1    
   228  115  117 1    
   229  115  236 1    
   230  116  237 1    
   231  116  238 1    
   232  116  239 1    
   233  117  118 2    
   234  117  119 am   BACKBONE|DICT|INTERRES
   235  119  120 1    
   236  119  240 1    
   237  120  121 1    
   238  120  124 1    
   239  120  241 1    
   240  121  122 am   BACKBONE|DICT|INTERRES
   241  121  123 2    
   242  122  242 1    
   243  122  243 1    
   244  124  125 1    
   245  124  244 1    
   246  124  245 1    
   247  125  126 1    
   248  126  246 1    
   249  126  247 1    
@<TRIPOS>SUBSTRUCTURE
     1 UNK         1 GROUP             0       ****    0 ROOT    
