@<TRIPOS>MOLECULE
3R540
247   249    1
SMALL
USER_CHARGES


@<TRIPOS>ATOM
      1 CA          0.5155  -13.9574  -53.4795 C.3       0 UNK        -0.1800 
      2 C           0.6093  -13.6607  -51.9926 C.2       0 UNK         0.5000 
      3 O           0.2451  -12.5682  -51.5579 O.2       0 UNK        -0.5000 
      4 N           1.0882  -14.6280  -51.2030 N.am      1 UNK        -0.5000 
      5 CA          1.4120  -14.4789  -49.7766 C.3       1 UNK         0.1400 
      6 C6          2.5659  -15.4184  -49.3421 C.3       23 UNK        -0.0398 
      7 S7          4.0547  -15.1840  -50.3761 S.3       23 UNK        -0.2404 
      8 C8          4.8109  -16.8419  -50.3606 C.3       23 UNK        -0.0205 
      9 C9          3.8849  -17.9516  -50.8468 C.ar      23 UNK        -0.0193 
     10 C10         3.1895  -17.8403  -52.0563 C.ar      23 UNK        -0.1150 
     11 C11         2.3611  -18.8764  -52.4984 C.ar      23 UNK        -0.0193 
     12 C12         2.2432  -20.0358  -51.7238 C.ar      23 UNK        -0.1150 
     13 C13         2.9267  -20.1606  -50.5102 C.ar      23 UNK        -0.0193 
     14 C14         3.7469  -19.1133  -50.0826 C.ar      23 UNK        -0.1150 
     15 C15         2.8405  -21.4469  -49.6934 C.3       23 UNK        -0.0205 
     16 S16         2.3403  -21.1624  -47.9603 S.3       23 UNK        -0.2404 
     17 C17         0.5215  -21.2355  -48.0530 C.3       23 UNK        -0.0398 
     18 CA         -0.0372  -22.4606  -47.2930 C.3       11 UNK         0.1400 
     19 N           0.0326  -22.2933  -45.8366 N.am      11 UNK        -0.5000 
     20 C          -0.2016  -23.2706  -44.9497 C.2       10 UNK         0.5000 
     21 O          -0.4665  -24.4292  -45.2678 O.2       10 UNK        -0.5000 
     22 CA         -0.1974  -22.8842  -43.4600 C.3       10 UNK         0.1400 
     23 CB          1.2364  -22.7083  -42.9392 C.3       10 UNK        -0.1800 
     24 N          -0.9835  -21.6789  -43.1920 N.am      10 UNK        -0.5000 
     25 C          -2.3055  -21.5789  -43.3973 C.2       9 UNK         0.5000 
     26 O          -3.0073  -22.5114  -43.7859 O.2       9 UNK        -0.5000 
     27 CA         -2.9472  -20.1964  -43.1817 C.3       9 UNK         0.1400 
     28 CB         -3.2387  -19.9504  -41.6941 C.3       9 UNK        -0.1800 
     29 N          -2.1264  -19.1073  -43.7069 N.am      9 UNK        -0.5000 
     30 C          -1.7876  -18.9539  -44.9946 C.2       8 UNK         0.5000 
     31 O          -2.1751  -19.6881  -45.9009 O.2       8 UNK        -0.5000 
     32 CA         -0.7976  -17.8224  -45.3088 C.3       8 UNK         0.1400 
     33 CB         -1.5199  -16.4683  -45.3499 C.3       8 UNK        -0.1800 
     34 N           0.2995  -17.7926  -44.3409 N.am      8 UNK        -0.5000 
     35 C           1.2241  -18.7591  -44.2336 C.2       7 UNK         0.5000 
     36 O           1.2742  -19.7378  -44.9774 O.2       7 UNK        -0.5000 
     37 CA          2.2196  -18.6499  -43.0654 C.3       7 UNK         0.1400 
     38 CB          3.4726  -17.8646  -43.4726 C.3       7 UNK        -0.1800 
     39 N           1.6124  -18.0388  -41.8830 N.am      7 UNK        -0.5000 
     40 C           0.7376  -18.6763  -41.0918 C.2       6 UNK         0.5000 
     41 O           0.3965  -19.8468  -41.2613 O.2       6 UNK        -0.5000 
     42 CA          0.0999  -17.8610  -39.9514 C.3       6 UNK         0.1400 
     43 CB          0.9832  -17.9051  -38.6960 C.3       6 UNK        -0.1800 
     44 N          -0.1610  -16.4658  -40.3113 N.am      6 UNK        -0.5000 
     45 C          -0.9819  -16.0698  -41.2933 C.2       5 UNK         0.5000 
     46 O          -1.6183  -16.8535  -41.9967 O.2       5 UNK        -0.5000 
     47 CA         -1.1039  -14.5558  -41.5585 C.3       5 UNK         0.1400 
     48 CB         -0.6276  -13.6780  -40.3799 C.3       5 UNK        -0.1800 
     49 N          -0.4335  -14.1415  -42.7966 N.am      5 UNK        -0.5000 
     50 C           0.8556  -14.3125  -43.1269 C.2       4 UNK         0.5000 
     51 O           1.6420  -14.9830  -42.4555 O.2       4 UNK        -0.5000 
     52 CA          1.3669  -13.6222  -44.4134 C.3       4 UNK         0.1400 
     53 CB          2.2504  -14.5583  -45.2528 C.3       4 UNK        -0.1800 
     54 N           0.3229  -13.0567  -45.2771 N.am      4 UNK        -0.5000 
     55 C          -0.3024  -11.8883  -45.0659 C.2       3 UNK         0.5000 
     56 O          -0.1406  -11.2176  -44.0463 O.2       3 UNK        -0.5000 
     57 CA         -1.2501  -11.3585  -46.1635 C.3       3 UNK         0.1400 
     58 CB         -0.7409  -10.0156  -46.7129 C.3       3 UNK        -0.1800 
     59 N          -1.4181  -12.2786  -47.2887 N.am      3 UNK        -0.5000 
     60 C          -2.2812  -13.3015  -47.3298 C.2       2 UNK         0.5000 
     61 O          -3.0508  -13.5822  -46.4117 O.2       2 UNK        -0.5000 
     62 CA         -2.2695  -14.1666  -48.6067 C.3       2 UNK         0.1400 
     63 CB         -3.3847  -13.7262  -49.5658 C.3       2 UNK        -0.1800 
     64 N          -0.9931  -14.1430  -49.3278 N.am      2 UNK        -0.5000 
     65 C           0.1717  -14.6151  -48.8642 C.2       1 UNK         0.5000 
     66 O           0.2828  -15.1266  -47.7518 O.2       1 UNK        -0.5000 
     67 C          -1.4601  -22.8142  -47.7714 C.2       11 UNK         0.5000 
     68 O          -1.5961  -23.6557  -48.6586 O.2       11 UNK        -0.5000 
     69 N          -2.4952  -22.2144  -47.1708 N.am      12 UNK        -0.5000 
     70 CA         -3.8969  -22.5265  -47.4561 C.3       12 UNK         0.1400 
     71 CB         -4.8040  -21.4642  -46.8184 C.3       12 UNK        -0.1800 
     72 C          -4.3013  -23.9442  -47.0141 C.2       12 UNK         0.5000 
     73 O          -5.0909  -24.5878  -47.7044 O.2       12 UNK        -0.5000 
     74 N          -3.7471  -24.4132  -45.8901 N.am      13 UNK        -0.5000 
     75 CA         -3.9779  -25.7523  -45.3576 C.3       13 UNK         0.1400 
     76 CB         -3.6168  -25.7785  -43.8635 C.3       13 UNK        -0.1800 
     77 C          -3.2032  -26.8360  -46.1280 C.2       13 UNK         0.5000 
     78 O          -3.8056  -27.8208  -46.5574 O.2       13 UNK        -0.5000 
     79 N          -1.8816  -26.6587  -46.2553 N.am      14 UNK        -0.5000 
     80 CA         -0.9681  -27.6887  -46.7486 C.3       14 UNK         0.1400 
     81 CB          0.4202  -27.4809  -46.1218 C.3       14 UNK        -0.1800 
     82 C          -0.8644  -27.7241  -48.2803 C.2       14 UNK         0.5000 
     83 O          -0.9377  -28.8057  -48.8651 O.2       14 UNK        -0.5000 
     84 N          -0.6645  -26.5542  -48.8999 N.am      15 UNK        -0.5000 
     85 CA         -0.3927  -26.4264  -50.3347 C.3       15 UNK         0.1400 
     86 CB          0.6821  -25.3439  -50.5412 C.3       15 UNK        -0.1800 
     87 C          -1.6510  -26.0995  -51.1574 C.2       15 UNK         0.5000 
     88 O          -1.6062  -26.2158  -52.3826 O.2       15 UNK        -0.5000 
     89 N          -2.7285  -25.6726  -50.4804 N.am      16 UNK        -0.5000 
     90 CA         -3.9508  -25.0879  -51.0434 C.3       16 UNK         0.1400 
     91 CB         -4.7496  -26.1292  -51.8546 C.3       16 UNK        -0.1800 
     92 C          -3.6490  -23.7930  -51.8268 C.2       16 UNK         0.5000 
     93 O          -4.1847  -23.5855  -52.9166 O.2       16 UNK        -0.5000 
     94 N          -2.7696  -22.9606  -51.2551 N.am      17 UNK        -0.5000 
     95 CA         -2.2451  -21.7405  -51.8579 C.3       17 UNK         0.1400 
     96 CB         -0.8059  -22.0077  -52.3235 C.3       17 UNK        -0.1800 
     97 C          -2.3711  -20.5475  -50.8943 C.2       17 UNK         0.5000 
     98 O          -3.2076  -20.5788  -49.9915 O.2       17 UNK        -0.5000 
     99 N          -1.5884  -19.4841  -51.1314 N.am      18 UNK        -0.5000 
    100 CA        -1.6640  -18.1775  -50.4668 C.3       18 UNK         0.1400 
    101 CB        -1.1428  -18.2605  -49.0203 C.3       18 UNK        -0.1800 
    102 C         -3.0767  -17.5845  -50.6063 C.2       18 UNK         0.5000 
    103 O         -3.5047  -17.3199  -51.7310 O.2       18 UNK        -0.5000 
    104 N         -3.7982  -17.4506  -49.4880 N.am      19 UNK        -0.5000 
    105 CA        -5.1841  -16.9871  -49.4352 C.3       19 UNK         0.1400 
    106 CB        -5.5840  -16.8101  -47.9624 C.3       19 UNK        -0.1800 
    107 C         -6.1840  -17.9054  -50.1685 C.2       19 UNK         0.5000 
    108 O         -7.2549  -17.4337  -50.5525 O.2       19 UNK        -0.5000 
    109 N         -5.8282  -19.1843  -50.3580 N.am      20 UNK        -0.5000 
    110 CA        -6.6603  -20.1712  -51.0420 C.3       20 UNK         0.1400 
    111 CB        -6.3978  -21.5593  -50.4374 C.3       20 UNK        -0.1800 
    112 C         -6.4761  -20.1903  -52.5733 C.2       20 UNK         0.5000 
    113 O         -7.3005  -20.8185  -53.2400 O.2       20 UNK        -0.5000 
    114 N         -5.4451  -19.5248  -53.1244 N.am      21 UNK        -0.5000 
    115 CA        -5.2253  -19.4742  -54.5736 C.3       21 UNK         0.1400 
    116 CB        -4.6232  -20.7907  -55.1101 C.3       21 UNK        -0.1800 
    117 C         -4.4059  -18.2517  -55.0112 C.2       21 UNK         0.5000 
    118 O         -4.9762  -17.3381  -55.6088 O.2       21 UNK        -0.5000 
    119 N         -3.0845  -18.2838  -54.7789 N.am      22 UNK        -0.5000 
    120 CA        -2.1182  -17.3383  -55.3710 C.3       22 UNK         0.1400 
    121 C         -2.2594  -15.8473  -54.9458 C.2       22 UNK         0.5000 
    122 N         -2.8409  -15.5351  -53.7952 N.am      22 UNK        -0.7600 
    123 O         -1.8550  -14.9599  -55.6919 O.2       22 UNK        -0.5000 
    124 C124       -0.6512  -17.8443  -55.2749 C.3       23 UNK        -0.0398 
    125 S125       -0.0219  -17.9901  -53.5692 S.3       23 UNK        -0.2404 
    126 C126        1.6117  -18.7474  -53.8192 C.3       23 UNK        -0.0205 
    127 H127        0.5554  -15.0273  -53.6817 H         1 UNK         0.0600 
    128 H128       -0.4201  -13.5682  -53.8791 H         1 UNK         0.0600 
    129 H129        1.3373  -13.4769  -54.0098 H         1 UNK         0.0600 
    130 H130        1.3477  -15.5136  -51.6132 H         1 UNK         0.3000 
    131 H131        1.7704  -13.4589  -49.6218 H         1 UNK         0.0600 
    132 H132        2.2355  -16.4570  -49.3814 H         1 UNK         0.0800 
    133 H133        2.8527  -15.2301  -48.3067 H         1 UNK         0.0800 
    134 H134        5.1604  -17.0473  -49.3475 H         1 UNK         0.0800 
    135 H135        5.6987  -16.8274  -50.9939 H         1 UNK         0.0800 
    136 H136        3.2971  -16.9473  -52.6559 H         1 UNK         0.1150 
    137 H137        1.6399  -20.8537  -52.0800 H         1 UNK         0.1150 
    138 H138        4.2909  -19.2133  -49.1537 H         1 UNK         0.1150 
    139 H139        2.1686  -22.1698  -50.1585 H         1 UNK         0.0800 
    140 H140        3.8270  -21.9120  -49.6914 H         1 UNK         0.0800 
    141 H141        0.2187  -21.2338  -49.1015 H         1 UNK         0.0800 
    142 H142        0.1243  -20.3213  -47.6138 H         1 UNK         0.0800 
    143 H143        0.5838  -23.3229  -47.5467 H         1 UNK         0.0600 
    144 H144        0.2901  -21.3700  -45.4992 H         1 UNK         0.3000 
    145 H145       -0.6562  -23.7052  -42.9052 H         1 UNK         0.0600 
    146 H146        1.2443  -22.4857  -41.8721 H         1 UNK         0.0600 
    147 H147        1.8171  -23.6198  -43.0857 H         1 UNK         0.0600 
    148 H148        1.7589  -21.9027  -43.4537 H         1 UNK         0.0600 
    149 H149       -0.4849  -20.8820  -42.8119 H         1 UNK         0.3000 
    150 H150       -3.8967  -20.1824  -43.7201 H         1 UNK         0.0600 
    151 H151       -3.8873  -20.7288  -41.2904 H         1 UNK         0.0600 
    152 H152       -3.7424  -18.9953  -41.5441 H         1 UNK         0.0600 
    153 H153       -2.3255  -19.9428  -41.0993 H         1 UNK         0.0600 
    154 H154       -1.8034  -18.4138  -43.0369 H         1 UNK         0.3000 
    155 H155       -0.3633  -18.0071  -46.2927 H         1 UNK         0.0600 
    156 H156       -0.8196  -15.6488  -45.4911 H         1 UNK         0.0600 
    157 H157       -2.2293  -16.4379  -46.1769 H         1 UNK         0.0600 
    158 H158       -2.0825  -16.2671  -44.4396 H         1 UNK         0.0600 
    159 H159        0.2837  -17.0579  -43.6494 H         1 UNK         0.3000 
    160 H160        2.5362  -19.6626  -42.8077 H         1 UNK         0.0600 
    161 H161        4.2225  -17.8839  -42.6817 H         1 UNK         0.0600 
    162 H162        3.2402  -16.8237  -43.6853 H         1 UNK         0.0600 
    163 H163        3.9294  -18.2911  -44.3666 H         1 UNK         0.0600 
    164 H164        1.8028  -17.0562  -41.7220 H         1 UNK         0.3000 
    165 H165       -0.8583  -18.3262  -39.7108 H         1 UNK         0.0600 
    166 H166        0.5006  -17.4052  -37.8560 H         1 UNK         0.0600 
    167 H167        1.1778  -18.9345  -38.3919 H         1 UNK         0.0600 
    168 H168        1.9476  -17.4245  -38.8649 H         1 UNK         0.0600 
    169 H169        0.3489  -15.7610  -39.7989 H         1 UNK         0.3000 
    170 H170       -2.1675  -14.3608  -41.7032 H         1 UNK         0.0600 
    171 H171       -1.1389  -13.9478  -39.4548 H         1 UNK         0.0600 
    172 H172        0.4457  -13.7622  -40.2064 H         1 UNK         0.0600 
    173 H173       -0.8451  -12.6267  -40.5695 H         1 UNK         0.0600 
    174 H174       -0.9990  -13.6007  -43.4345 H         1 UNK         0.3000 
    175 H175        2.0019  -12.7982  -44.0813 H         1 UNK         0.0600 
    176 H176        1.7377  -15.4877  -45.5022 H         1 UNK         0.0600 
    177 H177        2.5558  -14.0812  -46.1837 H         1 UNK         0.0600 
    178 H178        3.1642  -14.8123  -44.7168 H         1 UNK         0.0600 
    179 H179        0.1206  -13.5725  -46.1244 H         1 UNK         0.3000 
    180 H180       -2.2218  -11.1860  -45.6959 H         1 UNK         0.0600 
    181 H181        0.2379  -10.1182  -47.1830 H         1 UNK         0.0600 
    182 H182       -0.6472   -9.2746  -45.9179 H         1 UNK         0.0600 
    183 H183       -1.4283   -9.6066  -47.4537 H         1 UNK         0.0600 
    184 H184       -0.8271  -12.1216  -48.0920 H         1 UNK         0.3000 
    185 H185       -2.4653  -15.1954  -48.3026 H         1 UNK         0.0600 
    186 H186       -4.3596  -13.7703  -49.0787 H         1 UNK         0.0600 
    187 H187       -3.2359  -12.7023  -49.9111 H         1 UNK         0.0600 
    188 H188       -3.4286  -14.3714  -50.4435 H         1 UNK         0.0600 
    189 H189       -0.9824  -13.6851  -50.2314 H         1 UNK         0.3000 
    190 H190       -2.3213  -21.4651  -46.5057 H         1 UNK         0.3000 
    191 H191       -4.0415  -22.4845  -48.5357 H         1 UNK         0.0600 
    192 H192       -4.6687  -21.4167  -45.7382 H         1 UNK         0.0600 
    193 H193       -5.8557  -21.6795  -47.0089 H         1 UNK         0.0600 
    194 H194       -4.5940  -20.4757  -47.2281 H         1 UNK         0.0600 
    195 H195       -3.1590  -23.7959  -45.3396 H         1 UNK         0.3000 
    196 H196       -5.0426  -25.9799  -45.4433 H         1 UNK         0.0600 
    197 H197       -3.7733  -26.7712  -43.4398 H         1 UNK         0.0600 
    198 H198       -4.2367  -25.0822  -43.2985 H         1 UNK         0.0600 
    199 H199       -2.5743  -25.5075  -43.6929 H         1 UNK         0.0600 
    200 H200       -1.4531  -25.8136  -45.8803 H         1 UNK         0.3000 
    201 H201       -1.3296  -28.6654  -46.4188 H         1 UNK         0.0600 
    202 H202        0.3681  -27.5048  -45.0331 H         1 UNK         0.0600 
    203 H203        0.8590  -26.5260  -46.4135 H         1 UNK         0.0600 
    204 H204        1.1101  -28.2667  -46.4321 H         1 UNK         0.0600 
    205 H205       -0.6715  -25.6975  -48.3624 H         1 UNK         0.3000 
    206 H206        0.0099  -27.3648  -50.7222 H         1 UNK         0.0600 
    207 H207        1.5928  -25.5829  -49.9920 H         1 UNK         0.0600 
    208 H208        0.9524  -25.2589  -51.5945 H         1 UNK         0.0600 
    209 H209        0.3432  -24.3615  -50.2149 H         1 UNK         0.0600 
    210 H210       -2.6219  -25.5724  -49.4801 H         1 UNK         0.3000 
    211 H211       -4.5719  -24.7889  -50.2008 H         1 UNK         0.0600 
    212 H212       -4.2261  -26.4303  -52.7622 H         1 UNK         0.0600 
    213 H213       -5.7172  -25.7264  -52.1560 H         1 UNK         0.0600 
    214 H214       -4.9411  -27.0250  -51.2639 H         1 UNK         0.0600 
    215 H215       -2.4040  -23.1919  -50.3352 H         1 UNK         0.3000 
    216 H216       -2.8428  -21.4756  -52.7275 H         1 UNK         0.0600 
    217 H217       -0.4264  -21.1841  -52.9278 H         1 UNK         0.0600 
    218 H218       -0.7557  -22.9018  -52.9458 H         1 UNK         0.0600 
    219 H219       -0.1371  -22.1595  -51.4762 H         1 UNK         0.0600 
    220 H220       -0.9466  -19.5172  -51.9116 H         1 UNK         0.3000 
    221 H221       -1.0047  -17.4915  -50.9969 H         1 UNK         0.0600 
    222 H222       -1.6763  -19.0072  -48.4329 H         1 UNK         0.0600 
    223 H223       -0.0830  -18.5138  -49.0160 H         1 UNK         0.0600 
    224 H224       -1.2354  -17.3036  -48.5081 H         1 UNK         0.0600 
    225 H225       -3.3961  -17.7699  -48.6190 H         1 UNK         0.3000 
    226 H226       -5.2312  -16.0125  -49.9238 H         1 UNK         0.0600 
    227 H227       -4.9367  -16.0902  -47.4606 H         1 UNK         0.0600 
    228 H228       -6.6066  -16.4404  -47.8761 H         1 UNK         0.0600 
    229 H229       -5.5277  -17.7522  -47.4153 H         1 UNK         0.0600 
    230 H230       -4.9208  -19.5057  -50.0343 H         1 UNK         0.3000 
    231 H231       -7.7108  -19.9371  -50.8564 H         1 UNK         0.0600 
    232 H232       -5.3661  -21.8699  -50.5813 H         1 UNK         0.0600 
    233 H233       -6.6057  -21.5696  -49.3680 H         1 UNK         0.0600 
    234 H234       -7.0329  -22.3167  -50.8983 H         1 UNK         0.0600 
    235 H235       -4.8451  -18.9482  -52.5460 H         1 UNK         0.3000 
    236 H236       -6.2008  -19.3549  -55.0511 H         1 UNK         0.0600 
    237 H237       -4.5399  -20.7591  -56.1971 H         1 UNK         0.0600 
    238 H238       -3.6264  -20.9835  -54.7200 H         1 UNK         0.0600 
    239 H239       -5.2473  -21.6497  -54.8638 H         1 UNK         0.0600 
    240 H240       -2.6911  -19.0471  -54.2528 H         1 UNK         0.3000 
    241 H241       -2.3505  -17.3336  -56.4381 H         1 UNK         0.0600 
    242 H242       -2.9556  -14.5675  -53.5463 H         1 UNK         0.3800 
    243 H243       -3.1591  -16.2629  -53.1584 H         1 UNK         0.3800 
    244 H244        0.0138  -17.1832  -55.8334 H         1 UNK         0.0800 
    245 H245       -0.5705  -18.8201  -55.7556 H         1 UNK         0.0800 
    246 H246        1.4925  -19.7279  -54.2828 H         1 UNK         0.0800 
    247 H247        2.1895  -18.1416  -54.5190 H         1 UNK         0.0800 
@<TRIPOS>BOND
     1    1    2 1    
     2    1  127 1    
     3    1  128 1    
     4    1  129 1    
     5    2    3 2    
     6    2    4 am   BACKBONE|DICT|INTERRES
     7    4    5 1    
     8    4  130 1    
     9    5    6 1    
    10    5   65 1    
    11    5  131 1    
    12    6    7 1    
    13    6  132 1    
    14    6  133 1    
    15    7    8 1    
    16    8    9 1    
    17    8  134 1    
    18    8  135 1    
    19    9   10 ar   
    20    9   14 ar   
    21   10   11 ar   
    22   10  136 1    
    23   11   12 ar   
    24   11  126 1    
    25   12   13 ar   
    26   12  137 1    
    27   13   14 ar   
    28   13   15 1    
    29   14  138 1    
    30   15   16 1    
    31   15  139 1    
    32   15  140 1    
    33   16   17 1    
    34   17   18 1    
    35   17  141 1    
    36   17  142 1    
    37   18   19 1    
    38   18   67 1    
    39   18  143 1    
    40   19   20 am   BACKBONE|DICT|INTERRES
    41   19  144 1    
    42   20   21 2    
    43   20   22 1    
    44   22   23 1    
    45   22   24 1    
    46   22  145 1    
    47   23  146 1    
    48   23  147 1    
    49   23  148 1    
    50   24   25 am   BACKBONE|DICT|INTERRES
    51   24  149 1    
    52   25   26 2    
    53   25   27 1    
    54   27   28 1    
    55   27   29 1    
    56   27  150 1    
    57   28  151 1    
    58   28  152 1    
    59   28  153 1    
    60   29   30 am   BACKBONE|DICT|INTERRES
    61   29  154 1    
    62   30   31 2    
    63   30   32 1    
    64   32   33 1    
    65   32   34 1    
    66   32  155 1    
    67   33  156 1    
    68   33  157 1    
    69   33  158 1    
    70   34   35 am   BACKBONE|DICT|INTERRES
    71   34  159 1    
    72   35   36 2    
    73   35   37 1    
    74   37   38 1    
    75   37   39 1    
    76   37  160 1    
    77   38  161 1    
    78   38  162 1    
    79   38  163 1    
    80   39   40 am   BACKBONE|DICT|INTERRES
    81   39  164 1    
    82   40   41 2    
    83   40   42 1    
    84   42   43 1    
    85   42   44 1    
    86   42  165 1    
    87   43  166 1    
    88   43  167 1    
    89   43  168 1    
    90   44   45 am   BACKBONE|DICT|INTERRES
    91   44  169 1    
    92   45   46 2    
    93   45   47 1    
    94   47   48 1    
    95   47   49 1    
    96   47  170 1    
    97   48  171 1    
    98   48  172 1    
    99   48  173 1    
   100   49   50 am   BACKBONE|DICT|INTERRES
   101   49  174 1    
   102   50   51 2    
   103   50   52 1    
   104   52   53 1    
   105   52   54 1    
   106   52  175 1    
   107   53  176 1    
   108   53  177 1    
   109   53  178 1    
   110   54   55 am   BACKBONE|DICT|INTERRES
   111   54  179 1    
   112   55   56 2    
   113   55   57 1    
   114   57   58 1    
   115   57   59 1    
   116   57  180 1    
   117   58  181 1    
   118   58  182 1    
   119   58  183 1    
   120   59   60 am   BACKBONE|DICT|INTERRES
   121   59  184 1    
   122   60   61 2    
   123   60   62 1    
   124   62   63 1    
   125   62   64 1    
   126   62  185 1    
   127   63  186 1    
   128   63  187 1    
   129   63  188 1    
   130   64   65 am   BACKBONE|DICT|INTERRES
   131   64  189 1    
   132   65   66 2    
   133   67   68 2    
   134   67   69 am   BACKBONE|DICT|INTERRES
   135   69   70 1    
   136   69  190 1    
   137   70   71 1    
   138   70   72 1    
   139   70  191 1    
   140   71  192 1    
   141   71  193 1    
   142   71  194 1    
   143   72   73 2    
   144   72   74 am   BACKBONE|DICT|INTERRES
   145   74   75 1    
   146   74  195 1    
   147   75   76 1    
   148   75   77 1    
   149   75  196 1    
   150   76  197 1    
   151   76  198 1    
   152   76  199 1    
   153   77   78 2    
   154   77   79 am   BACKBONE|DICT|INTERRES
   155   79   80 1    
   156   79  200 1    
   157   80   81 1    
   158   80   82 1    
   159   80  201 1    
   160   81  202 1    
   161   81  203 1    
   162   81  204 1    
   163   82   83 2    
   164   82   84 am   BACKBONE|DICT|INTERRES
   165   84   85 1    
   166   84  205 1    
   167   85   86 1    
   168   85   87 1    
   169   85  206 1    
   170   86  207 1    
   171   86  208 1    
   172   86  209 1    
   173   87   88 2    
   174   87   89 am   BACKBONE|DICT|INTERRES
   175   89   90 1    
   176   89  210 1    
   177   90   91 1    
   178   90   92 1    
   179   90  211 1    
   180   91  212 1    
   181   91  213 1    
   182   91  214 1    
   183   92   93 2    
   184   92   94 am   BACKBONE|DICT|INTERRES
   185   94   95 1    
   186   94  215 1    
   187   95   96 1    
   188   95   97 1    
   189   95  216 1    
   190   96  217 1    
   191   96  218 1    
   192   96  219 1    
   193   97   98 2    
   194   97   99 am   BACKBONE|DICT|INTERRES
   195   99  100 1    
   196   99  220 1    
   197  100  101 1    
   198  100  102 1    
   199  100  221 1    
   200  101  222 1    
   201  101  223 1    
   202  101  224 1    
   203  102  103 2    
   204  102  104 am   BACKBONE|DICT|INTERRES
   205  104  105 1    
   206  104  225 1    
   207  105  106 1    
   208  105  107 1    
   209  105  226 1    
   210  106  227 1    
   211  106  228 1    
   212  106  229 1    
   213  107  108 2    
   214  107  109 am   BACKBONE|DICT|INTERRES
   215  109  110 1    
   216  109  230 1    
   217  110  111 1    
   218  110  112 1    
   219  110  231 1    
   220  111  232 1    
   221  111  233 1    
   222  111  234 1    
   223  112  113 2    
   224  112  114 am   BACKBONE|DICT|INTERRES
   225  114  115 1    
   226  114  235 1    
   227  115  116 1    
   228  115  117 1    
   229  115  236 1    
   230  116  237 1    
   231  116  238 1    
   232  116  239 1    
   233  117  118 2    
   234  117  119 am   BACKBONE|DICT|INTERRES
   235  119  120 1    
   236  119  240 1    
   237  120  121 1    
   238  120  124 1    
   239  120  241 1    
   240  121  122 am   BACKBONE|DICT|INTERRES
   241  121  123 2    
   242  122  242 1    
   243  122  243 1    
   244  124  125 1    
   245  124  244 1    
   246  124  245 1    
   247  125  126 1    
   248  126  246 1    
   249  126  247 1    
@<TRIPOS>SUBSTRUCTURE
     1 UNK         1 GROUP             0       ****    0 ROOT    
