@<TRIPOS>MOLECULE
3R540
247   249    1
SMALL
USER_CHARGES


@<TRIPOS>ATOM
      1 CA          5.6481  -13.5663  -45.8691 C.3       0 UNK        -0.1800 
      2 C           4.2269  -14.0099  -46.1820 C.2       0 UNK         0.5000 
      3 O           3.4127  -14.1443  -45.2713 O.2       0 UNK        -0.5000 
      4 N           3.9218  -14.2299  -47.4671 N.am      1 UNK        -0.5000 
      5 CA          2.6166  -14.6934  -47.9642 C.3       1 UNK         0.1400 
      6 C6          2.7003  -15.1907  -49.4284 C.3       23 UNK        -0.0398 
      7 S7          3.9233  -16.5266  -49.6794 S.3       23 UNK        -0.2404 
      8 C8          3.1020  -17.9733  -48.9312 C.3       23 UNK        -0.0205 
      9 C9          1.7635  -18.2868  -49.5823 C.ar      23 UNK        -0.0193 
     10 C10         1.7119  -18.9263  -50.8244 C.ar      23 UNK        -0.1150 
     11 C11         0.4824  -19.1999  -51.4326 C.ar      23 UNK        -0.0193 
     12 C12        -0.6989  -18.8351  -50.7775 C.ar      23 UNK        -0.1150 
     13 C13        -0.6597  -18.1996  -49.5348 C.ar      23 UNK        -0.0193 
     14 C14         0.5740  -17.9311  -48.9418 C.ar      23 UNK        -0.1150 
     15 C15        -1.9491  -17.7801  -48.8478 C.3       23 UNK        -0.0205 
     16 S16        -2.8757  -19.2064  -48.2065 S.3       23 UNK        -0.2404 
     17 C17        -1.8280  -19.7725  -46.8224 C.3       23 UNK        -0.0398 
     18 CA         -1.1047  -21.1112  -47.1036 C.3       11 UNK         0.1400 
     19 N          -0.0270  -21.3412  -46.1347 N.am      11 UNK        -0.5000 
     20 C           0.8434  -22.3604  -46.1675 C.2       10 UNK         0.5000 
     21 O           0.8540  -23.2102  -47.0574 O.2       10 UNK        -0.5000 
     22 CA          1.8232  -22.5034  -44.9861 C.3       10 UNK         0.1400 
     23 CB          3.1452  -21.7922  -45.3118 C.3       10 UNK        -0.1800 
     24 N           1.3148  -21.9941  -43.7101 N.am      10 UNK        -0.5000 
     25 C           0.1694  -22.3428  -43.1047 C.2       9 UNK         0.5000 
     26 O          -0.6028  -23.1963  -43.5401 O.2       9 UNK        -0.5000 
     27 CA         -0.2098  -21.5594  -41.8280 C.3       9 UNK         0.1400 
     28 CB          1.0155  -20.9862  -41.0815 C.3       9 UNK        -0.1800 
     29 N          -1.1811  -20.4815  -42.0704 N.am      9 UNK        -0.5000 
     30 C          -1.1104  -19.5273  -43.0117 C.2       8 UNK         0.5000 
     31 O          -0.2726  -19.5308  -43.9144 O.2       8 UNK        -0.5000 
     32 CA         -2.1165  -18.3600  -42.9426 C.3       8 UNK         0.1400 
     33 CB         -2.6628  -18.1021  -41.5256 C.3       8 UNK        -0.1800 
     34 N          -1.4122  -17.1665  -43.4008 N.am      8 UNK        -0.5000 
     35 C          -1.5698  -16.5739  -44.5915 C.2       7 UNK         0.5000 
     36 O          -2.5252  -16.7809  -45.3388 O.2       7 UNK        -0.5000 
     37 CA         -0.4535  -15.6051  -45.0369 C.3       7 UNK         0.1400 
     38 CB         -0.8588  -14.1501  -44.7608 C.3       7 UNK        -0.1800 
     39 N           0.8204  -15.8890  -44.3707 N.am      7 UNK        -0.5000 
     40 C           1.5961  -16.9492  -44.6493 C.2       6 UNK         0.5000 
     41 O           1.4384  -17.6519  -45.6463 O.2       6 UNK        -0.5000 
     42 CA          2.7003  -17.3343  -43.6395 C.3       6 UNK         0.1400 
     43 CB          4.0947  -17.3922  -44.2854 C.3       6 UNK        -0.1800 
     44 N           2.7482  -16.4883  -42.4442 N.am      6 UNK        -0.5000 
     45 C           1.8583  -16.5295  -41.4432 C.2       5 UNK         0.5000 
     46 O           0.9024  -17.3038  -41.4152 O.2       5 UNK        -0.5000 
     47 CA          2.0307  -15.5038  -40.3059 C.3       5 UNK         0.1400 
     48 CB          2.8536  -16.1121  -39.1604 C.3       5 UNK        -0.1800 
     49 N           2.6375  -14.2295  -40.7106 N.am      5 UNK        -0.5000 
     50 C           2.1452  -13.3977  -41.6387 C.2       4 UNK         0.5000 
     51 O           1.1551  -13.6553  -42.3284 O.2       4 UNK        -0.5000 
     52 CA          2.8749  -12.0569  -41.8164 C.3       4 UNK         0.1400 
     53 CB          4.3136  -12.2458  -42.3335 C.3       4 UNK        -0.1800 
     54 N           2.1082  -11.2235  -42.7379 N.am      4 UNK        -0.5000 
     55 C           2.1748   -9.8917  -42.8364 C.2       3 UNK         0.5000 
     56 O           2.9391   -9.2029  -42.1572 O.2       3 UNK        -0.5000 
     57 CA          1.2081   -9.2123  -43.8355 C.3       3 UNK         0.1400 
     58 CB          1.7251   -7.8424  -44.3248 C.3       3 UNK        -0.1800 
     59 N           0.8140  -10.0512  -44.9775 N.am      3 UNK        -0.5000 
     60 C           1.6200  -10.5631  -45.9181 C.2       2 UNK         0.5000 
     61 O           2.8471  -10.4318  -45.9320 O.2       2 UNK        -0.5000 
     62 CA          0.9351  -11.3416  -47.0502 C.3       2 UNK         0.1400 
     63 CB          0.6385  -10.4325  -48.2535 C.3       2 UNK        -0.1800 
     64 N           1.8369  -12.4098  -47.4522 N.am      2 UNK        -0.5000 
     65 C           1.4849  -13.6487  -47.8096 C.2       1 UNK         0.5000 
     66 O           0.3186  -13.9885  -48.0095 O.2       1 UNK        -0.5000 
     67 C          -2.0974  -22.2975  -47.1853 C.2       11 UNK         0.5000 
     68 O          -2.6310  -22.5705  -48.2632 O.2       11 UNK        -0.5000 
     69 N          -2.2913  -23.0231  -46.0718 N.am      12 UNK        -0.5000 
     70 CA         -3.1292  -24.2233  -46.0053 C.3       12 UNK         0.1400 
     71 CB         -3.4196  -24.5715  -44.5386 C.3       12 UNK        -0.1800 
     72 C          -2.5273  -25.4328  -46.7466 C.2       12 UNK         0.5000 
     73 O          -3.2749  -26.3398  -47.1103 O.2       12 UNK        -0.5000 
     74 N          -1.2089  -25.4231  -46.9785 N.am      13 UNK        -0.5000 
     75 CA         -0.5129  -26.4070  -47.8040 C.3       13 UNK         0.1400 
     76 CB          0.8505  -26.7300  -47.1718 C.3       13 UNK        -0.1800 
     77 C          -0.3383  -25.8857  -49.2401 C.2       13 UNK         0.5000 
     78 O          -0.5497  -26.6406  -50.1893 O.2       13 UNK        -0.5000 
     79 N           0.0517  -24.6102  -49.3728 N.am      14 UNK        -0.5000 
     80 CA          0.4098  -23.9783  -50.6411 C.3       14 UNK         0.1400 
     81 CB          1.1890  -22.6849  -50.3571 C.3       14 UNK        -0.1800 
     82 C          -0.7878  -23.6959  -51.5650 C.2       14 UNK         0.5000 
     83 O          -0.6376  -23.8175  -52.7812 O.2       14 UNK        -0.5000 
     84 N          -1.9366  -23.3087  -50.9934 N.am      15 UNK        -0.5000 
     85 CA         -3.1242  -22.9006  -51.7489 C.3       15 UNK         0.1400 
     86 CB         -3.1805  -21.3648  -51.8024 C.3       15 UNK        -0.1800 
     87 C          -4.4371  -23.4654  -51.1868 C.2       15 UNK         0.5000 
     88 O          -5.4923  -23.1299  -51.7217 O.2       15 UNK        -0.5000 
     89 N          -4.3794  -24.2712  -50.1179 N.am      16 UNK        -0.5000 
     90 CA         -5.5317  -24.7732  -49.3537 C.3       16 UNK         0.1400 
     91 CB         -6.4458  -25.6607  -50.2274 C.3       16 UNK        -0.1800 
     92 C          -6.3060  -23.6559  -48.6147 C.2       16 UNK         0.5000 
     93 O          -7.4928  -23.8230  -48.3332 O.2       16 UNK        -0.5000 
     94 N          -5.6067  -22.5499  -48.3105 N.am      17 UNK        -0.5000 
     95 CA         -6.0500  -21.3447  -47.5989 C.3       17 UNK         0.1400 
     96 CB         -5.9759  -21.5950  -46.0790 C.3       17 UNK        -0.1800 
     97 C          -7.4258  -20.7879  -48.0439 C.2       17 UNK         0.5000 
     98 O          -8.3662  -20.7973  -47.2496 O.2       17 UNK        -0.5000 
     99 N          -7.5922  -20.3058  -49.2831 N.am      18 UNK        -0.5000 
    100 CA        -6.6279  -20.2095  -50.3825 C.3       18 UNK         0.1400 
    101 CB        -6.0135  -18.7987  -50.4085 C.3       18 UNK        -0.1800 
    102 C         -7.3322  -20.5820  -51.7020 C.2       18 UNK         0.5000 
    103 O         -7.0712  -19.9748  -52.7414 O.2       18 UNK        -0.5000 
    104 N         -8.2382  -21.5675  -51.6224 N.am      19 UNK        -0.5000 
    105 CA        -9.1618  -21.9958  -52.6752 C.3       19 UNK         0.1400 
    106 CB       -10.0593  -23.1093  -52.1134 C.3       19 UNK        -0.1800 
    107 C         -8.5105  -22.4535  -53.9948 C.2       19 UNK         0.5000 
    108 O         -9.1333  -22.3047  -55.0472 O.2       19 UNK        -0.5000 
    109 N         -7.2858  -22.9931  -53.9324 N.am      20 UNK        -0.5000 
    110 CA        -6.5300  -23.4358  -55.1065 C.3       20 UNK         0.1400 
    111 CB        -5.5841  -24.5786  -54.7045 C.3       20 UNK        -0.1800 
    112 C         -5.7498  -22.2930  -55.7859 C.2       20 UNK         0.5000 
    113 O         -5.1925  -22.5167  -56.8615 O.2       20 UNK        -0.5000 
    114 N         -5.6962  -21.1067  -55.1554 N.am      21 UNK        -0.5000 
    115 CA        -5.0670  -19.8694  -55.6410 C.3       21 UNK         0.1400 
    116 CB        -5.9084  -19.2650  -56.7836 C.3       21 UNK        -0.1800 
    117 C         -3.5768  -20.0339  -56.0175 C.2       21 UNK         0.5000 
    118 O         -3.1115  -19.4401  -56.9918 O.2       21 UNK        -0.5000 
    119 N         -2.8726  -20.8675  -55.2416 N.am      22 UNK        -0.5000 
    120 CA        -1.4767  -21.2976  -55.4418 C.3       22 UNK         0.1400 
    121 C         -1.2619  -22.2679  -56.6452 C.2       22 UNK         0.5000 
    122 N         -2.3008  -22.7992  -57.2801 N.am      22 UNK        -0.7600 
    123 O         -0.1261  -22.5734  -56.9985 O.2       22 UNK        -0.5000 
    124 C124       -0.4424  -20.1326  -55.4407 C.3       23 UNK        -0.0398 
    125 S125       -0.5800  -19.0168  -54.0029 S.3       23 UNK        -0.2404 
    126 C126        0.4362  -19.9071  -52.7817 C.3       23 UNK        -0.0205 
    127 H127        6.2874  -13.6014  -46.7516 H         1 UNK         0.0600 
    128 H128        6.0838  -14.2131  -45.1076 H         1 UNK         0.0600 
    129 H129        5.6449  -12.5443  -45.4897 H         1 UNK         0.0600 
    130 H130        4.6357  -14.1121  -48.1721 H         1 UNK         0.3000 
    131 H131        2.3199  -15.5404  -47.3433 H         1 UNK         0.0600 
    132 H132        1.7275  -15.5333  -49.7835 H         1 UNK         0.0800 
    133 H133        2.9757  -14.3648  -50.0863 H         1 UNK         0.0800 
    134 H134        2.9806  -17.8076  -47.8601 H         1 UNK         0.0800 
    135 H135        3.7591  -18.8387  -49.0268 H         1 UNK         0.0800 
    136 H136        2.6329  -19.2028  -51.3182 H         1 UNK         0.1150 
    137 H137       -1.6549  -19.0326  -51.2383 H         1 UNK         0.1150 
    138 H138        0.6069  -17.4279  -47.9873 H         1 UNK         0.1150 
    139 H139       -1.7520  -17.0774  -48.0365 H         1 UNK         0.0800 
    140 H140       -2.5771  -17.2488  -49.5641 H         1 UNK         0.0800 
    141 H141       -2.4474  -19.8466  -45.9274 H         1 UNK         0.0800 
    142 H142       -1.0928  -18.9956  -46.6060 H         1 UNK         0.0800 
    143 H143       -0.6260  -21.0283  -48.0806 H         1 UNK         0.0600 
    144 H144        0.0240  -20.6876  -45.3550 H         1 UNK         0.3000 
    145 H145        2.0244  -23.5685  -44.8568 H         1 UNK         0.0600 
    146 H146        3.8881  -21.9603  -44.5318 H         1 UNK         0.0600 
    147 H147        3.5683  -22.1617  -46.2471 H         1 UNK         0.0600 
    148 H148        3.0054  -20.7151  -45.4177 H         1 UNK         0.0600 
    149 H149        1.8427  -21.2407  -43.2960 H         1 UNK         0.3000 
    150 H150       -0.6949  -22.2764  -41.1639 H         1 UNK         0.0600 
    151 H151        1.7621  -21.7588  -40.8931 H         1 UNK         0.0600 
    152 H152        0.7228  -20.5804  -40.1131 H         1 UNK         0.0600 
    153 H153        1.4981  -20.1805  -41.6361 H         1 UNK         0.0600 
    154 H154       -1.9266  -20.4169  -41.3923 H         1 UNK         0.3000 
    155 H155       -2.9502  -18.5993  -43.6054 H         1 UNK         0.0600 
    156 H156       -1.8584  -17.9562  -40.8030 H         1 UNK         0.0600 
    157 H157       -3.2811  -18.9307  -41.1792 H         1 UNK         0.0600 
    158 H158       -3.2888  -17.2098  -41.5068 H         1 UNK         0.0600 
    159 H159       -0.5576  -16.9723  -42.8909 H         1 UNK         0.3000 
    160 H160       -0.3158  -15.7295  -46.1121 H         1 UNK         0.0600 
    161 H161       -0.0433  -13.4654  -44.9909 H         1 UNK         0.0600 
    162 H162       -1.1361  -14.0002  -43.7168 H         1 UNK         0.0600 
    163 H163       -1.7137  -13.8629  -45.3738 H         1 UNK         0.0600 
    164 H164        1.0521  -15.3035  -43.5756 H         1 UNK         0.3000 
    165 H165        2.4569  -18.3494  -43.3183 H         1 UNK         0.0600 
    166 H166        4.4766  -16.4008  -44.5193 H         1 UNK         0.0600 
    167 H167        4.8115  -17.8724  -43.6194 H         1 UNK         0.0600 
    168 H168        4.0808  -17.9679  -45.2118 H         1 UNK         0.0600 
    169 H169        3.4762  -15.7897  -42.4129 H         1 UNK         0.3000 
    170 H170        1.0323  -15.2802  -39.9242 H         1 UNK         0.0600 
    171 H171        2.4150  -17.0510  -38.8193 H         1 UNK         0.0600 
    172 H172        3.8786  -16.3217  -39.4690 H         1 UNK         0.0600 
    173 H173        2.8907  -15.4424  -38.3009 H         1 UNK         0.0600 
    174 H174        3.4567  -13.9458  -40.1928 H         1 UNK         0.3000 
    175 H175        2.9035  -11.5688  -40.8401 H         1 UNK         0.0600 
    176 H176        4.3252  -12.7256  -43.3100 H         1 UNK         0.0600 
    177 H177        4.8300  -11.2908  -42.4290 H         1 UNK         0.0600 
    178 H178        4.9050  -12.8626  -41.6565 H         1 UNK         0.0600 
    179 H179        1.4286  -11.7361  -43.2859 H         1 UNK         0.3000 
    180 H180        0.2920   -9.0279  -43.2728 H         1 UNK         0.0600 
    181 H181        2.6810   -7.9319  -44.8417 H         1 UNK         0.0600 
    182 H182        1.8684   -7.1550  -43.4904 H         1 UNK         0.0600 
    183 H183        1.0166   -7.3745  -45.0084 H         1 UNK         0.0600 
    184 H184       -0.1788  -10.2247  -45.0551 H         1 UNK         0.3000 
    185 H185       -0.0004  -11.7619  -46.6759 H         1 UNK         0.0600 
    186 H186       -0.0299   -9.6179  -47.9722 H         1 UNK         0.0600 
    187 H187        1.5498   -9.9877  -48.6553 H         1 UNK         0.0600 
    188 H188        0.1547  -10.9887  -49.0567 H         1 UNK         0.0600 
    189 H189        2.8115  -12.2214  -47.2538 H         1 UNK         0.3000 
    190 H190       -1.7688  -22.7972  -45.2320 H         1 UNK         0.3000 
    191 H191       -4.0822  -23.9961  -46.4833 H         1 UNK         0.0600 
    192 H192       -2.5218  -24.9024  -44.0166 H         1 UNK         0.0600 
    193 H193       -4.1501  -25.3785  -44.4696 H         1 UNK         0.0600 
    194 H194       -3.8284  -23.7161  -44.0004 H         1 UNK         0.0600 
    195 H195       -0.6638  -24.6280  -46.6697 H         1 UNK         0.3000 
    196 H196       -1.0846  -27.3364  -47.8505 H         1 UNK         0.0600 
    197 H197        1.3861  -27.4749  -47.7616 H         1 UNK         0.0600 
    198 H198        0.7304  -27.1360  -46.1672 H         1 UNK         0.0600 
    199 H199        1.4880  -25.8482  -47.1010 H         1 UNK         0.0600 
    200 H200        0.2551  -24.0726  -48.5332 H         1 UNK         0.3000 
    201 H201        1.0795  -24.6589  -51.1715 H         1 UNK         0.0600 
    202 H202        2.0411  -22.8700  -49.7029 H         1 UNK         0.0600 
    203 H203        0.5616  -21.9302  -49.8832 H         1 UNK         0.0600 
    204 H204        1.5801  -22.2558  -51.2798 H         1 UNK         0.0600 
    205 H205       -1.9774  -23.1782  -49.9866 H         1 UNK         0.3000 
    206 H206       -3.0635  -23.2729  -52.7725 H         1 UNK         0.0600 
    207 H207       -2.3111  -20.9649  -52.3189 H         1 UNK         0.0600 
    208 H208       -4.0612  -21.0084  -52.3379 H         1 UNK         0.0600 
    209 H209       -3.2065  -20.9326  -50.8015 H         1 UNK         0.0600 
    210 H210       -3.4698  -24.4986  -49.7439 H         1 UNK         0.3000 
    211 H211       -5.1249  -25.4133  -48.5740 H         1 UNK         0.0600 
    212 H212       -7.0052  -25.0796  -50.9609 H         1 UNK         0.0600 
    213 H213       -7.1750  -26.1899  -49.6131 H         1 UNK         0.0600 
    214 H214       -5.8690  -26.4137  -50.7640 H         1 UNK         0.0600 
    215 H215       -4.6266  -22.5441  -48.5742 H         1 UNK         0.3000 
    216 H216       -5.3266  -20.5649  -47.8268 H         1 UNK         0.0600 
    217 H217       -6.2949  -20.7154  -45.5186 H         1 UNK         0.0600 
    218 H218       -4.9567  -21.8168  -45.7654 H         1 UNK         0.0600 
    219 H219       -6.6108  -22.4284  -45.7763 H         1 UNK         0.0600 
    220 H220       -8.5143  -19.9703  -49.5234 H         1 UNK         0.3000 
    221 H221       -5.8165  -20.9217  -50.2598 H         1 UNK         0.0600 
    222 H222       -6.7638  -18.0388  -50.6297 H         1 UNK         0.0600 
    223 H223       -5.5571  -18.5458  -49.4521 H         1 UNK         0.0600 
    224 H224       -5.2339  -18.7254  -51.1679 H         1 UNK         0.0600 
    225 H225       -8.3442  -22.0296  -50.7306 H         1 UNK         0.3000 
    226 H226       -9.7939  -21.1381  -52.9134 H         1 UNK         0.0600 
    227 H227      -10.6225  -22.7641  -51.2462 H         1 UNK         0.0600 
    228 H228      -10.7840  -23.4430  -52.8574 H         1 UNK         0.0600 
    229 H229       -9.4748  -23.9792  -51.8103 H         1 UNK         0.0600 
    230 H230       -6.8101  -23.0566  -53.0341 H         1 UNK         0.3000 
    231 H231       -7.2264  -23.8349  -55.8470 H         1 UNK         0.0600 
    232 H232       -6.1167  -25.3678  -54.1735 H         1 UNK         0.0600 
    233 H233       -4.7754  -24.2295  -54.0659 H         1 UNK         0.0600 
    234 H234       -5.1263  -25.0308  -55.5851 H         1 UNK         0.0600 
    235 H235       -6.1974  -21.0116  -54.2778 H         1 UNK         0.3000 
    236 H236       -5.0916  -19.1675  -54.8060 H         1 UNK         0.0600 
    237 H237       -5.8959  -19.8979  -57.6716 H         1 UNK         0.0600 
    238 H238       -6.9470  -19.1343  -56.4795 H         1 UNK         0.0600 
    239 H239       -5.5309  -18.2838  -57.0735 H         1 UNK         0.0600 
    240 H240       -3.3614  -21.3177  -54.4841 H         1 UNK         0.3000 
    241 H241       -1.2536  -21.9109  -54.5696 H         1 UNK         0.0600 
    242 H242       -3.2575  -22.5668  -57.0317 H         1 UNK         0.3800 
    243 H243       -2.1329  -23.4302  -58.0472 H         1 UNK         0.3800 
    244 H244       -0.5505  -19.5304  -56.3435 H         1 UNK         0.0800 
    245 H245        0.5754  -20.5252  -55.4705 H         1 UNK         0.0800 
    246 H246        1.4431  -20.0290  -53.1839 H         1 UNK         0.0800 
    247 H247        0.0346  -20.9099  -52.6400 H         1 UNK         0.0800 
@<TRIPOS>BOND
     1    1    2 1    
     2    1  127 1    
     3    1  128 1    
     4    1  129 1    
     5    2    3 2    
     6    2    4 am   BACKBONE|DICT|INTERRES
     7    4    5 1    
     8    4  130 1    
     9    5    6 1    
    10    5   65 1    
    11    5  131 1    
    12    6    7 1    
    13    6  132 1    
    14    6  133 1    
    15    7    8 1    
    16    8    9 1    
    17    8  134 1    
    18    8  135 1    
    19    9   10 ar   
    20    9   14 ar   
    21   10   11 ar   
    22   10  136 1    
    23   11   12 ar   
    24   11  126 1    
    25   12   13 ar   
    26   12  137 1    
    27   13   14 ar   
    28   13   15 1    
    29   14  138 1    
    30   15   16 1    
    31   15  139 1    
    32   15  140 1    
    33   16   17 1    
    34   17   18 1    
    35   17  141 1    
    36   17  142 1    
    37   18   19 1    
    38   18   67 1    
    39   18  143 1    
    40   19   20 am   BACKBONE|DICT|INTERRES
    41   19  144 1    
    42   20   21 2    
    43   20   22 1    
    44   22   23 1    
    45   22   24 1    
    46   22  145 1    
    47   23  146 1    
    48   23  147 1    
    49   23  148 1    
    50   24   25 am   BACKBONE|DICT|INTERRES
    51   24  149 1    
    52   25   26 2    
    53   25   27 1    
    54   27   28 1    
    55   27   29 1    
    56   27  150 1    
    57   28  151 1    
    58   28  152 1    
    59   28  153 1    
    60   29   30 am   BACKBONE|DICT|INTERRES
    61   29  154 1    
    62   30   31 2    
    63   30   32 1    
    64   32   33 1    
    65   32   34 1    
    66   32  155 1    
    67   33  156 1    
    68   33  157 1    
    69   33  158 1    
    70   34   35 am   BACKBONE|DICT|INTERRES
    71   34  159 1    
    72   35   36 2    
    73   35   37 1    
    74   37   38 1    
    75   37   39 1    
    76   37  160 1    
    77   38  161 1    
    78   38  162 1    
    79   38  163 1    
    80   39   40 am   BACKBONE|DICT|INTERRES
    81   39  164 1    
    82   40   41 2    
    83   40   42 1    
    84   42   43 1    
    85   42   44 1    
    86   42  165 1    
    87   43  166 1    
    88   43  167 1    
    89   43  168 1    
    90   44   45 am   BACKBONE|DICT|INTERRES
    91   44  169 1    
    92   45   46 2    
    93   45   47 1    
    94   47   48 1    
    95   47   49 1    
    96   47  170 1    
    97   48  171 1    
    98   48  172 1    
    99   48  173 1    
   100   49   50 am   BACKBONE|DICT|INTERRES
   101   49  174 1    
   102   50   51 2    
   103   50   52 1    
   104   52   53 1    
   105   52   54 1    
   106   52  175 1    
   107   53  176 1    
   108   53  177 1    
   109   53  178 1    
   110   54   55 am   BACKBONE|DICT|INTERRES
   111   54  179 1    
   112   55   56 2    
   113   55   57 1    
   114   57   58 1    
   115   57   59 1    
   116   57  180 1    
   117   58  181 1    
   118   58  182 1    
   119   58  183 1    
   120   59   60 am   BACKBONE|DICT|INTERRES
   121   59  184 1    
   122   60   61 2    
   123   60   62 1    
   124   62   63 1    
   125   62   64 1    
   126   62  185 1    
   127   63  186 1    
   128   63  187 1    
   129   63  188 1    
   130   64   65 am   BACKBONE|DICT|INTERRES
   131   64  189 1    
   132   65   66 2    
   133   67   68 2    
   134   67   69 am   BACKBONE|DICT|INTERRES
   135   69   70 1    
   136   69  190 1    
   137   70   71 1    
   138   70   72 1    
   139   70  191 1    
   140   71  192 1    
   141   71  193 1    
   142   71  194 1    
   143   72   73 2    
   144   72   74 am   BACKBONE|DICT|INTERRES
   145   74   75 1    
   146   74  195 1    
   147   75   76 1    
   148   75   77 1    
   149   75  196 1    
   150   76  197 1    
   151   76  198 1    
   152   76  199 1    
   153   77   78 2    
   154   77   79 am   BACKBONE|DICT|INTERRES
   155   79   80 1    
   156   79  200 1    
   157   80   81 1    
   158   80   82 1    
   159   80  201 1    
   160   81  202 1    
   161   81  203 1    
   162   81  204 1    
   163   82   83 2    
   164   82   84 am   BACKBONE|DICT|INTERRES
   165   84   85 1    
   166   84  205 1    
   167   85   86 1    
   168   85   87 1    
   169   85  206 1    
   170   86  207 1    
   171   86  208 1    
   172   86  209 1    
   173   87   88 2    
   174   87   89 am   BACKBONE|DICT|INTERRES
   175   89   90 1    
   176   89  210 1    
   177   90   91 1    
   178   90   92 1    
   179   90  211 1    
   180   91  212 1    
   181   91  213 1    
   182   91  214 1    
   183   92   93 2    
   184   92   94 am   BACKBONE|DICT|INTERRES
   185   94   95 1    
   186   94  215 1    
   187   95   96 1    
   188   95   97 1    
   189   95  216 1    
   190   96  217 1    
   191   96  218 1    
   192   96  219 1    
   193   97   98 2    
   194   97   99 am   BACKBONE|DICT|INTERRES
   195   99  100 1    
   196   99  220 1    
   197  100  101 1    
   198  100  102 1    
   199  100  221 1    
   200  101  222 1    
   201  101  223 1    
   202  101  224 1    
   203  102  103 2    
   204  102  104 am   BACKBONE|DICT|INTERRES
   205  104  105 1    
   206  104  225 1    
   207  105  106 1    
   208  105  107 1    
   209  105  226 1    
   210  106  227 1    
   211  106  228 1    
   212  106  229 1    
   213  107  108 2    
   214  107  109 am   BACKBONE|DICT|INTERRES
   215  109  110 1    
   216  109  230 1    
   217  110  111 1    
   218  110  112 1    
   219  110  231 1    
   220  111  232 1    
   221  111  233 1    
   222  111  234 1    
   223  112  113 2    
   224  112  114 am   BACKBONE|DICT|INTERRES
   225  114  115 1    
   226  114  235 1    
   227  115  116 1    
   228  115  117 1    
   229  115  236 1    
   230  116  237 1    
   231  116  238 1    
   232  116  239 1    
   233  117  118 2    
   234  117  119 am   BACKBONE|DICT|INTERRES
   235  119  120 1    
   236  119  240 1    
   237  120  121 1    
   238  120  124 1    
   239  120  241 1    
   240  121  122 am   BACKBONE|DICT|INTERRES
   241  121  123 2    
   242  122  242 1    
   243  122  243 1    
   244  124  125 1    
   245  124  244 1    
   246  124  245 1    
   247  125  126 1    
   248  126  246 1    
   249  126  247 1    
@<TRIPOS>SUBSTRUCTURE
     1 UNK         1 GROUP             0       ****    0 ROOT    
