@<TRIPOS>MOLECULE
3R540
247   249    1
SMALL
USER_CHARGES


@<TRIPOS>ATOM
      1 CA         -3.3155  -13.6353  -49.9803 C.3       0 UNK        -0.1800 
      2 C          -2.5218  -13.1274  -48.7870 C.2       0 UNK         0.5000 
      3 O          -2.9372  -12.1769  -48.1241 O.2       0 UNK        -0.5000 
      4 N          -1.3867  -13.7726  -48.4966 N.am      1 UNK        -0.5000 
      5 CA         -0.4260  -13.4239  -47.4385 C.3       1 UNK         0.1400 
      6 C6          0.9756  -14.0265  -47.7128 C.3       23 UNK        -0.0398 
      7 S7          1.6859  -13.5909  -49.3341 S.3       23 UNK        -0.2404 
      8 C8          1.7914  -15.2246  -50.1322 C.3       23 UNK        -0.0205 
      9 C9          0.4486  -15.6603  -50.6950 C.ar      23 UNK        -0.0193 
     10 C10         0.0358  -15.1710  -51.9354 C.ar      23 UNK        -0.1150 
     11 C11        -1.1859  -15.5612  -52.4866 C.ar      23 UNK        -0.0193 
     12 C12        -2.0039  -16.4482  -51.7792 C.ar      23 UNK        -0.1150 
     13 C13        -1.6130  -16.9308  -50.5241 C.ar      23 UNK        -0.0193 
     14 C14        -0.3800  -16.5398  -49.9902 C.ar      23 UNK        -0.1150 
     15 C15        -2.5433  -17.8423  -49.7344 C.3       23 UNK        -0.0205 
     16 S16        -2.1007  -19.5972  -49.9194 S.3       23 UNK        -0.2404 
     17 C17        -0.8625  -19.8294  -48.5939 C.3       23 UNK        -0.0398 
     18 CA         -1.0021  -21.1864  -47.8517 C.3       11 UNK         0.1400 
     19 N           0.0824  -21.3755  -46.8909 N.am      11 UNK        -0.5000 
     20 C           0.7252  -22.5305  -46.6772 C.2       10 UNK         0.5000 
     21 O           0.4311  -23.5924  -47.2245 O.2       10 UNK        -0.5000 
     22 CA          1.9209  -22.4890  -45.7095 C.3       10 UNK         0.1400 
     23 CB          3.1467  -21.8490  -46.3809 C.3       10 UNK        -0.1800 
     24 N           1.6119  -21.7666  -44.4782 N.am      10 UNK        -0.5000 
     25 C           0.9678  -22.3003  -43.4321 C.2       9 UNK         0.5000 
     26 O           0.5859  -23.4700  -43.3894 O.2       9 UNK        -0.5000 
     27 CA          0.7090  -21.3759  -42.2251 C.3       9 UNK         0.1400 
     28 CB          1.8677  -21.4694  -41.2211 C.3       9 UNK        -0.1800 
     29 N           0.5001  -19.9764  -42.5991 N.am      9 UNK        -0.5000 
     30 C          -0.5304  -19.5319  -43.3321 C.2       8 UNK         0.5000 
     31 O          -1.4480  -20.2505  -43.7212 O.2       8 UNK        -0.5000 
     32 CA         -0.5033  -18.0524  -43.7541 C.3       8 UNK         0.1400 
     33 CB         -1.0504  -17.1568  -42.6346 C.3       8 UNK        -0.1800 
     34 N           0.8389  -17.6085  -44.1238 N.am      8 UNK        -0.5000 
     35 C           1.5620  -18.1007  -45.1381 C.2       7 UNK         0.5000 
     36 O           1.1385  -18.9434  -45.9288 O.2       7 UNK        -0.5000 
     37 CA          3.0163  -17.6172  -45.2525 C.3       7 UNK         0.1400 
     38 CB          3.1005  -16.3054  -46.0397 C.3       7 UNK        -0.1800 
     39 N           3.6201  -17.4324  -43.9342 N.am      7 UNK        -0.5000 
     40 C           4.1284  -18.4269  -43.1953 C.2       6 UNK         0.5000 
     41 O           4.1673  -19.6002  -43.5662 O.2       6 UNK        -0.5000 
     42 CA          4.6682  -18.0510  -41.8017 C.3       6 UNK         0.1400 
     43 CB          6.1364  -17.6093  -41.8943 C.3       6 UNK        -0.1800 
     44 N           3.8891  -16.9989  -41.1445 N.am      6 UNK        -0.5000 
     45 C           2.6342  -17.1580  -40.7031 C.2       5 UNK         0.5000 
     46 O           2.0050  -18.2102  -40.8053 O.2       5 UNK        -0.5000 
     47 CA          1.9489  -15.9259  -40.0798 C.3       5 UNK         0.1400 
     48 CB          2.3193  -15.8009  -38.5944 C.3       5 UNK        -0.1800 
     49 N           2.2184  -14.6502  -40.7548 N.am      5 UNK        -0.5000 
     50 C           2.0554  -14.4127  -42.0629 C.2       4 UNK         0.5000 
     51 O           1.7805  -15.2832  -42.8870 O.2       4 UNK        -0.5000 
     52 CA          2.1973  -12.9597  -42.5281 C.3       4 UNK         0.1400 
     53 CB          3.0507  -12.8565  -43.8032 C.3       4 UNK        -0.1800 
     54 N           0.8619  -12.4420  -42.8076 N.am      4 UNK        -0.5000 
     55 C           0.1602  -11.6547  -41.9812 C.2       3 UNK         0.5000 
     56 O           0.5855  -11.2647  -40.8928 O.2       3 UNK        -0.5000 
     57 CA         -1.2437  -11.2055  -42.4369 C.3       3 UNK         0.1400 
     58 CB         -1.1953   -9.7646  -42.9690 C.3       3 UNK        -0.1800 
     59 N          -1.8285  -12.0641  -43.4669 N.am      3 UNK        -0.5000 
     60 C          -2.3662  -13.2707  -43.2442 C.2       2 UNK         0.5000 
     61 O          -2.4725  -13.7734  -42.1254 O.2       2 UNK        -0.5000 
     62 CA         -2.8621  -14.0527  -44.4792 C.3       2 UNK         0.1400 
     63 CB         -4.3827  -13.9068  -44.6382 C.3       2 UNK        -0.1800 
     64 N          -2.2155  -13.6694  -45.7388 N.am      2 UNK        -0.5000 
     65 C          -0.9120  -13.8024  -46.0153 C.2       1 UNK         0.5000 
     66 O          -0.1008  -14.2045  -45.1819 O.2       1 UNK        -0.5000 
     67 C          -2.3659  -21.3825  -47.1594 C.2       11 UNK         0.5000 
     68 O          -2.9773  -22.4410  -47.3127 O.2       11 UNK        -0.5000 
     69 N          -2.8367  -20.3519  -46.4433 N.am      12 UNK        -0.5000 
     70 CA         -4.2014  -20.2293  -45.9217 C.3       12 UNK         0.1400 
     71 CB         -4.3584  -18.8670  -45.2274 C.3       12 UNK        -0.1800 
     72 C          -4.6407  -21.3746  -44.9911 C.2       12 UNK         0.5000 
     73 O          -5.7459  -21.8942  -45.1487 O.2       12 UNK        -0.5000 
     74 N          -3.7564  -21.7823  -44.0727 N.am      13 UNK        -0.5000 
     75 CA         -3.9855  -22.8746  -43.1222 C.3       13 UNK         0.1400 
     76 CB         -2.8933  -22.8440  -42.0459 C.3       13 UNK        -0.1800 
     77 C          -4.0450  -24.2655  -43.7844 C.2       13 UNK         0.5000 
     78 O          -4.6420  -25.1795  -43.2151 O.2       13 UNK        -0.5000 
     79 N          -3.4536  -24.3954  -44.9791 N.am      14 UNK        -0.5000 
     80 CA         -3.5065  -25.5903  -45.8217 C.3       14 UNK         0.1400 
     81 CB         -2.1540  -25.7475  -46.5370 C.3       14 UNK        -0.1800 
     82 C          -4.6646  -25.5290  -46.8392 C.2       14 UNK         0.5000 
     83 O          -4.7250  -26.3801  -47.7265 O.2       14 UNK        -0.5000 
     84 N          -5.5384  -24.5146  -46.7256 N.am      15 UNK        -0.5000 
     85 CA         -6.6578  -24.1971  -47.6197 C.3       15 UNK         0.1400 
     86 CB         -7.7339  -25.3020  -47.5719 C.3       15 UNK        -0.1800 
     87 C          -6.2028  -23.8554  -49.0550 C.2       15 UNK         0.5000 
     88 O          -6.9379  -24.1082  -50.0109 O.2       15 UNK        -0.5000 
     89 N          -4.9932  -23.2856  -49.1696 N.am      16 UNK        -0.5000 
     90 CA         -4.2992  -22.9031  -50.3992 C.3       16 UNK         0.1400 
     91 CB         -5.0159  -21.7265  -51.0923 C.3       16 UNK        -0.1800 
     92 C          -4.0227  -24.0957  -51.3380 C.2       16 UNK         0.5000 
     93 O          -4.1175  -23.9519  -52.5568 O.2       16 UNK        -0.5000 
     94 N          -3.6645  -25.2534  -50.7609 N.am      17 UNK        -0.5000 
     95 CA         -3.2507  -26.4631  -51.4788 C.3       17 UNK         0.1400 
     96 CB         -2.8968  -27.5599  -50.4625 C.3       17 UNK        -0.1800 
     97 C          -2.0647  -26.1776  -52.4213 C.2       17 UNK         0.5000 
     98 O          -0.9945  -25.7925  -51.9466 O.2       17 UNK        -0.5000 
     99 N          -2.3134  -26.2764  -53.7354 N.am      18 UNK        -0.5000 
    100 CA        -1.4627  -25.8852  -54.8726 C.3       18 UNK         0.1400 
    101 CB        -0.1226  -26.6450  -54.8703 C.3       18 UNK        -0.1800 
    102 C         -1.2412  -24.3620  -55.0140 C.2       18 UNK         0.5000 
    103 O         -1.1881  -23.8601  -56.1378 O.2       18 UNK        -0.5000 
    104 N         -1.1483  -23.6469  -53.8863 N.am      19 UNK        -0.5000 
    105 CA        -0.9697  -22.1981  -53.7843 C.3       19 UNK         0.1400 
    106 CB        -0.6979  -21.8358  -52.3186 C.3       19 UNK        -0.1800 
    107 C         -2.1417  -21.3678  -54.3465 C.2       19 UNK         0.5000 
    108 O         -1.9347  -20.2043  -54.6865 O.2       19 UNK        -0.5000 
    109 N         -3.3299  -21.9752  -54.4886 N.am      20 UNK        -0.5000 
    110 CA        -4.5437  -21.4017  -55.0858 C.3       20 UNK         0.1400 
    111 CB        -5.6863  -22.4249  -54.9813 C.3       20 UNK        -0.1800 
    112 C         -4.3958  -20.9164  -56.5448 C.2       20 UNK         0.5000 
    113 O         -5.2658  -20.1903  -57.0269 O.2       20 UNK        -0.5000 
    114 N         -3.2984  -21.2942  -57.2169 N.am      21 UNK        -0.5000 
    115 CA        -2.8598  -20.7287  -58.4940 C.3       21 UNK         0.1400 
    116 CB        -1.6678  -21.5471  -59.0127 C.3       21 UNK        -0.1800 
    117 C         -2.4907  -19.2300  -58.4037 C.2       21 UNK         0.5000 
    118 O         -2.5536  -18.5340  -59.4179 O.2       21 UNK        -0.5000 
    119 N         -2.1233  -18.7585  -57.2033 N.am      22 UNK        -0.5000 
    120 CA        -1.9248  -17.3439  -56.8700 C.3       22 UNK         0.1400 
    121 C         -3.2695  -16.5623  -56.8999 C.2       22 UNK         0.5000 
    122 N         -3.3665  -15.4999  -57.6877 N.am      22 UNK        -0.7600 
    123 O         -4.2131  -16.8935  -56.1862 O.2       22 UNK        -0.5000 
    124 C124       -1.2122  -17.2101  -55.4998 C.3       23 UNK        -0.0398 
    125 S125       -0.5605  -15.5340  -55.1966 S.3       23 UNK        -0.2404 
    126 C126       -1.6262  -14.9829  -53.8247 C.3       23 UNK        -0.0205 
    127 H127       -2.7291  -13.5413  -50.8942 H         1 UNK         0.0600 
    128 H128       -4.2349  -13.0633  -50.1063 H         1 UNK         0.0600 
    129 H129       -3.5837  -14.6828  -49.8439 H         1 UNK         0.0600 
    130 H130       -1.1047  -14.5405  -49.0908 H         1 UNK         0.3000 
    131 H131       -0.3167  -12.3375  -47.4400 H         1 UNK         0.0600 
    132 H132        1.6891  -13.6780  -46.9645 H         1 UNK         0.0800 
    133 H133        0.9340  -15.1109  -47.6116 H         1 UNK         0.0800 
    134 H134        2.1813  -15.9663  -49.4340 H         1 UNK         0.0800 
    135 H135        2.5192  -15.1681  -50.9431 H         1 UNK         0.0800 
    136 H136        0.6686  -14.4809  -52.4762 H         1 UNK         0.1150 
    137 H137       -2.9559  -16.7465  -52.1955 H         1 UNK         0.1150 
    138 H138       -0.0692  -16.9156  -49.0257 H         1 UNK         0.1150 
    139 H139       -2.5521  -17.5570  -48.6817 H         1 UNK         0.0800 
    140 H140       -3.5688  -17.7123  -50.0834 H         1 UNK         0.0800 
    141 H141       -0.9020  -18.9980  -47.8896 H         1 UNK         0.0800 
    142 H142        0.1226  -19.7706  -49.0589 H         1 UNK         0.0800 
    143 H143       -0.9305  -21.9627  -48.6172 H         1 UNK         0.0600 
    144 H144        0.4128  -20.5392  -46.4136 H         1 UNK         0.3000 
    145 H145        2.1831  -23.5191  -45.4579 H         1 UNK         0.0600 
    146 H146        4.0101  -21.8606  -45.7153 H         1 UNK         0.0600 
    147 H147        3.4242  -22.3934  -47.2842 H         1 UNK         0.0600 
    148 H148        2.9615  -20.8135  -46.6668 H         1 UNK         0.0600 
    149 H149        1.8908  -20.7966  -44.4335 H         1 UNK         0.3000 
    150 H150       -0.1944  -21.7240  -41.7234 H         1 UNK         0.0600 
    151 H151        2.0463  -22.5034  -40.9237 H         1 UNK         0.0600 
    152 H152        1.6492  -20.9053  -40.3143 H         1 UNK         0.0600 
    153 H153        2.7964  -21.0823  -41.6412 H         1 UNK         0.0600 
    154 H154        1.1772  -19.3065  -42.2475 H         1 UNK         0.3000 
    155 H155       -1.1429  -17.9353  -44.6310 H         1 UNK         0.0600 
    156 H156       -2.1025  -17.3700  -42.4430 H         1 UNK         0.0600 
    157 H157       -0.9697  -16.1024  -42.8978 H         1 UNK         0.0600 
    158 H158       -0.5093  -17.3052  -41.7005 H         1 UNK         0.0600 
    159 H159        1.2352  -16.8500  -43.5709 H         1 UNK         0.3000 
    160 H160        3.5823  -18.3739  -45.8001 H         1 UNK         0.0600 
    161 H161        2.4794  -15.5315  -45.5895 H         1 UNK         0.0600 
    162 H162        2.7644  -16.4536  -47.0655 H         1 UNK         0.0600 
    163 H163        4.1239  -15.9329  -46.0848 H         1 UNK         0.0600 
    164 H164        3.5372  -16.5117  -43.5244 H         1 UNK         0.3000 
    165 H165        4.6215  -18.9467  -41.1784 H         1 UNK         0.0600 
    166 H166        6.5544  -17.4198  -40.9055 H         1 UNK         0.0600 
    167 H167        6.7477  -18.3826  -42.3615 H         1 UNK         0.0600 
    168 H168        6.2476  -16.7002  -42.4867 H         1 UNK         0.0600 
    169 H169        4.3312  -16.0984  -41.0329 H         1 UNK         0.3000 
    170 H170        0.8722  -16.0932  -40.1417 H         1 UNK         0.0600 
    171 H171        2.1111  -16.7288  -38.0597 H         1 UNK         0.0600 
    172 H172        3.3781  -15.5754  -38.4611 H         1 UNK         0.0600 
    173 H173        1.7438  -15.0128  -38.1085 H         1 UNK         0.0600 
    174 H174        2.4384  -13.8706  -40.1516 H         1 UNK         0.3000 
    175 H175        2.6907  -12.3780  -41.7467 H         1 UNK         0.0600 
    176 H176        2.5832  -13.3653  -44.6458 H         1 UNK         0.0600 
    177 H177        3.2018  -11.8155  -44.0888 H         1 UNK         0.0600 
    178 H178        4.0354  -13.3009  -43.6538 H         1 UNK         0.0600 
    179 H179        0.4127  -12.8193  -43.6345 H         1 UNK         0.3000 
    180 H180       -1.8941  -11.2219  -41.5597 H         1 UNK         0.0600 
    181 H181       -0.5644   -9.6836  -43.8550 H         1 UNK         0.0600 
    182 H182       -0.7946   -9.0831  -42.2173 H         1 UNK         0.0600 
    183 H183       -2.1913   -9.4069  -43.2310 H         1 UNK         0.0600 
    184 H184       -1.7914  -11.7265  -44.4173 H         1 UNK         0.3000 
    185 H185       -2.6413  -15.1073  -44.3057 H         1 UNK         0.0600 
    186 H186       -4.9028  -14.2107  -43.7287 H         1 UNK         0.0600 
    187 H187       -4.6667  -12.8755  -44.8511 H         1 UNK         0.0600 
    188 H188       -4.7562  -14.5328  -45.4489 H         1 UNK         0.0600 
    189 H189       -2.8057  -13.2696  -46.4606 H         1 UNK         0.3000 
    190 H190       -2.2402  -19.5521  -46.3033 H         1 UNK         0.3000 
    191 H191       -4.8712  -20.2436  -46.7841 H         1 UNK         0.0600 
    192 H192       -4.1450  -18.0462  -45.9125 H         1 UNK         0.0600 
    193 H193       -5.3782  -18.7293  -44.8655 H         1 UNK         0.0600 
    194 H194       -3.6921  -18.7709  -44.3698 H         1 UNK         0.0600 
    195 H195       -2.8677  -21.2863  -44.0020 H         1 UNK         0.3000 
    196 H196       -4.9473  -22.6990  -42.6360 H         1 UNK         0.0600 
    197 H197       -3.0980  -23.5722  -41.2602 H         1 UNK         0.0600 
    198 H198       -2.8241  -21.8634  -41.5745 H         1 UNK         0.0600 
    199 H199       -1.9205  -23.0871  -42.4708 H         1 UNK         0.0600 
    200 H200       -3.0255  -23.5796  -45.3996 H         1 UNK         0.3000 
    201 H201       -3.6643  -26.4747  -45.2015 H         1 UNK         0.0600 
    202 H202       -1.3272  -25.7495  -45.8264 H         1 UNK         0.0600 
    203 H203       -1.9790  -24.9411  -47.2496 H         1 UNK         0.0600 
    204 H204       -2.1083  -26.6865  -47.0898 H         1 UNK         0.0600 
    205 H205       -5.3906  -23.8443  -45.9805 H         1 UNK         0.3000 
    206 H206       -7.1082  -23.2854  -47.2250 H         1 UNK         0.0600 
    207 H207       -8.0303  -25.5193  -46.5457 H         1 UNK         0.0600 
    208 H208       -8.6321  -24.9961  -48.1095 H         1 UNK         0.0600 
    209 H209       -7.3841  -26.2301  -48.0246 H         1 UNK         0.0600 
    210 H210       -4.4580  -23.1243  -48.3202 H         1 UNK         0.3000 
    211 H211       -3.3194  -22.5427  -50.0854 H         1 UNK         0.0600 
    212 H212       -4.4186  -21.3371  -51.9167 H         1 UNK         0.0600 
    213 H213       -5.1779  -20.9019  -50.3982 H         1 UNK         0.0600 
    214 H214       -5.9841  -22.0218  -51.4968 H         1 UNK         0.0600 
    215 H215       -3.6457  -25.3042  -49.7522 H         1 UNK         0.3000 
    216 H216       -4.1017  -26.8073  -52.0697 H         1 UNK         0.0600 
    217 H217       -2.5597  -28.4664  -50.9667 H         1 UNK         0.0600 
    218 H218       -3.7621  -27.8293  -49.8568 H         1 UNK         0.0600 
    219 H219       -2.1009  -27.2426  -49.7874 H         1 UNK         0.0600 
    220 H220       -3.2501  -26.5486  -54.0004 H         1 UNK         0.3000 
    221 H221       -2.0094  -26.1971  -55.7638 H         1 UNK         0.0600 
    222 H222        0.5126  -26.3547  -54.0332 H         1 UNK         0.0600 
    223 H223       -0.2797  -27.7222  -54.8158 H         1 UNK         0.0600 
    224 H224        0.4370  -26.4439  -55.7845 H         1 UNK         0.0600 
    225 H225       -1.1710  -24.1663  -53.0151 H         1 UNK         0.3000 
    226 H226       -0.0848  -21.9363  -54.3677 H         1 UNK         0.0600 
    227 H227        0.1762  -22.3618  -51.9347 H         1 UNK         0.0600 
    228 H228       -0.5057  -20.7674  -52.2118 H         1 UNK         0.0600 
    229 H229       -1.5459  -22.0853  -51.6816 H         1 UNK         0.0600 
    230 H230       -3.4334  -22.9049  -54.0935 H         1 UNK         0.3000 
    231 H231       -4.8140  -20.5267  -54.4915 H         1 UNK         0.0600 
    232 H232       -5.4257  -23.3669  -55.4650 H         1 UNK         0.0600 
    233 H233       -6.5969  -22.0530  -55.4528 H         1 UNK         0.0600 
    234 H234       -5.9334  -22.6374  -53.9419 H         1 UNK         0.0600 
    235 H235       -2.6522  -21.9213  -56.7564 H         1 UNK         0.3000 
    236 H236       -3.6813  -20.8245  -59.2069 H         1 UNK         0.0600 
    237 H237       -1.9374  -22.5949  -59.1477 H         1 UNK         0.0600 
    238 H238       -1.3255  -21.1723  -59.9781 H         1 UNK         0.0600 
    239 H239       -0.8227  -21.5055  -58.3241 H         1 UNK         0.0600 
    240 H240       -2.1186  -19.3937  -56.4101 H         1 UNK         0.3000 
    241 H241       -1.2622  -16.9295  -57.6325 H         1 UNK         0.0600 
    242 H242       -4.2296  -14.9793  -57.7058 H         1 UNK         0.3800 
    243 H243       -2.6013  -15.2097  -58.2769 H         1 UNK         0.3800 
    244 H244       -1.8721  -17.5136  -54.6851 H         1 UNK         0.0800 
    245 H245       -0.3615  -17.8919  -55.4584 H         1 UNK         0.0800 
    246 H246       -1.5838  -13.8945  -53.7658 H         1 UNK         0.0800 
    247 H247       -2.6660  -15.2343  -54.0403 H         1 UNK         0.0800 
@<TRIPOS>BOND
     1    1    2 1    
     2    1  127 1    
     3    1  128 1    
     4    1  129 1    
     5    2    3 2    
     6    2    4 am   BACKBONE|DICT|INTERRES
     7    4    5 1    
     8    4  130 1    
     9    5    6 1    
    10    5   65 1    
    11    5  131 1    
    12    6    7 1    
    13    6  132 1    
    14    6  133 1    
    15    7    8 1    
    16    8    9 1    
    17    8  134 1    
    18    8  135 1    
    19    9   10 ar   
    20    9   14 ar   
    21   10   11 ar   
    22   10  136 1    
    23   11   12 ar   
    24   11  126 1    
    25   12   13 ar   
    26   12  137 1    
    27   13   14 ar   
    28   13   15 1    
    29   14  138 1    
    30   15   16 1    
    31   15  139 1    
    32   15  140 1    
    33   16   17 1    
    34   17   18 1    
    35   17  141 1    
    36   17  142 1    
    37   18   19 1    
    38   18   67 1    
    39   18  143 1    
    40   19   20 am   BACKBONE|DICT|INTERRES
    41   19  144 1    
    42   20   21 2    
    43   20   22 1    
    44   22   23 1    
    45   22   24 1    
    46   22  145 1    
    47   23  146 1    
    48   23  147 1    
    49   23  148 1    
    50   24   25 am   BACKBONE|DICT|INTERRES
    51   24  149 1    
    52   25   26 2    
    53   25   27 1    
    54   27   28 1    
    55   27   29 1    
    56   27  150 1    
    57   28  151 1    
    58   28  152 1    
    59   28  153 1    
    60   29   30 am   BACKBONE|DICT|INTERRES
    61   29  154 1    
    62   30   31 2    
    63   30   32 1    
    64   32   33 1    
    65   32   34 1    
    66   32  155 1    
    67   33  156 1    
    68   33  157 1    
    69   33  158 1    
    70   34   35 am   BACKBONE|DICT|INTERRES
    71   34  159 1    
    72   35   36 2    
    73   35   37 1    
    74   37   38 1    
    75   37   39 1    
    76   37  160 1    
    77   38  161 1    
    78   38  162 1    
    79   38  163 1    
    80   39   40 am   BACKBONE|DICT|INTERRES
    81   39  164 1    
    82   40   41 2    
    83   40   42 1    
    84   42   43 1    
    85   42   44 1    
    86   42  165 1    
    87   43  166 1    
    88   43  167 1    
    89   43  168 1    
    90   44   45 am   BACKBONE|DICT|INTERRES
    91   44  169 1    
    92   45   46 2    
    93   45   47 1    
    94   47   48 1    
    95   47   49 1    
    96   47  170 1    
    97   48  171 1    
    98   48  172 1    
    99   48  173 1    
   100   49   50 am   BACKBONE|DICT|INTERRES
   101   49  174 1    
   102   50   51 2    
   103   50   52 1    
   104   52   53 1    
   105   52   54 1    
   106   52  175 1    
   107   53  176 1    
   108   53  177 1    
   109   53  178 1    
   110   54   55 am   BACKBONE|DICT|INTERRES
   111   54  179 1    
   112   55   56 2    
   113   55   57 1    
   114   57   58 1    
   115   57   59 1    
   116   57  180 1    
   117   58  181 1    
   118   58  182 1    
   119   58  183 1    
   120   59   60 am   BACKBONE|DICT|INTERRES
   121   59  184 1    
   122   60   61 2    
   123   60   62 1    
   124   62   63 1    
   125   62   64 1    
   126   62  185 1    
   127   63  186 1    
   128   63  187 1    
   129   63  188 1    
   130   64   65 am   BACKBONE|DICT|INTERRES
   131   64  189 1    
   132   65   66 2    
   133   67   68 2    
   134   67   69 am   BACKBONE|DICT|INTERRES
   135   69   70 1    
   136   69  190 1    
   137   70   71 1    
   138   70   72 1    
   139   70  191 1    
   140   71  192 1    
   141   71  193 1    
   142   71  194 1    
   143   72   73 2    
   144   72   74 am   BACKBONE|DICT|INTERRES
   145   74   75 1    
   146   74  195 1    
   147   75   76 1    
   148   75   77 1    
   149   75  196 1    
   150   76  197 1    
   151   76  198 1    
   152   76  199 1    
   153   77   78 2    
   154   77   79 am   BACKBONE|DICT|INTERRES
   155   79   80 1    
   156   79  200 1    
   157   80   81 1    
   158   80   82 1    
   159   80  201 1    
   160   81  202 1    
   161   81  203 1    
   162   81  204 1    
   163   82   83 2    
   164   82   84 am   BACKBONE|DICT|INTERRES
   165   84   85 1    
   166   84  205 1    
   167   85   86 1    
   168   85   87 1    
   169   85  206 1    
   170   86  207 1    
   171   86  208 1    
   172   86  209 1    
   173   87   88 2    
   174   87   89 am   BACKBONE|DICT|INTERRES
   175   89   90 1    
   176   89  210 1    
   177   90   91 1    
   178   90   92 1    
   179   90  211 1    
   180   91  212 1    
   181   91  213 1    
   182   91  214 1    
   183   92   93 2    
   184   92   94 am   BACKBONE|DICT|INTERRES
   185   94   95 1    
   186   94  215 1    
   187   95   96 1    
   188   95   97 1    
   189   95  216 1    
   190   96  217 1    
   191   96  218 1    
   192   96  219 1    
   193   97   98 2    
   194   97   99 am   BACKBONE|DICT|INTERRES
   195   99  100 1    
   196   99  220 1    
   197  100  101 1    
   198  100  102 1    
   199  100  221 1    
   200  101  222 1    
   201  101  223 1    
   202  101  224 1    
   203  102  103 2    
   204  102  104 am   BACKBONE|DICT|INTERRES
   205  104  105 1    
   206  104  225 1    
   207  105  106 1    
   208  105  107 1    
   209  105  226 1    
   210  106  227 1    
   211  106  228 1    
   212  106  229 1    
   213  107  108 2    
   214  107  109 am   BACKBONE|DICT|INTERRES
   215  109  110 1    
   216  109  230 1    
   217  110  111 1    
   218  110  112 1    
   219  110  231 1    
   220  111  232 1    
   221  111  233 1    
   222  111  234 1    
   223  112  113 2    
   224  112  114 am   BACKBONE|DICT|INTERRES
   225  114  115 1    
   226  114  235 1    
   227  115  116 1    
   228  115  117 1    
   229  115  236 1    
   230  116  237 1    
   231  116  238 1    
   232  116  239 1    
   233  117  118 2    
   234  117  119 am   BACKBONE|DICT|INTERRES
   235  119  120 1    
   236  119  240 1    
   237  120  121 1    
   238  120  124 1    
   239  120  241 1    
   240  121  122 am   BACKBONE|DICT|INTERRES
   241  121  123 2    
   242  122  242 1    
   243  122  243 1    
   244  124  125 1    
   245  124  244 1    
   246  124  245 1    
   247  125  126 1    
   248  126  246 1    
   249  126  247 1    
@<TRIPOS>SUBSTRUCTURE
     1 UNK         1 GROUP             0       ****    0 ROOT    
