@<TRIPOS>MOLECULE
3R540
247   249    1
SMALL
USER_CHARGES


@<TRIPOS>ATOM
      1 CA          4.2999  -13.7504  -49.9961 C.3       0 UNK        -0.1800 
      2 C           3.3677  -13.4270  -48.8394 C.2       0 UNK         0.5000 
      3 O           3.7487  -13.5962  -47.6792 O.2       0 UNK        -0.5000 
      4 N           2.1490  -12.9580  -49.1402 N.am      1 UNK        -0.5000 
      5 CA          1.1141  -12.6101  -48.1562 C.3       1 UNK         0.1400 
      6 C6         -0.2538  -12.2945  -48.8074 C.3       23 UNK        -0.0398 
      7 S7         -0.8985  -13.7136  -49.7565 S.3       23 UNK        -0.2404 
      8 C8         -1.9860  -14.4841  -48.5126 C.3       23 UNK        -0.0205 
      9 C9         -2.3508  -15.9332  -48.8201 C.ar      23 UNK        -0.0193 
     10 C10        -3.6621  -16.3808  -48.6239 C.ar      23 UNK        -0.1150 
     11 C11        -3.9941  -17.7248  -48.8243 C.ar      23 UNK        -0.0193 
     12 C12        -3.0068  -18.6198  -49.2466 C.ar      23 UNK        -0.1150 
     13 C13        -1.6942  -18.1885  -49.4483 C.ar      23 UNK        -0.0193 
     14 C14        -1.3735  -16.8466  -49.2309 C.ar      23 UNK        -0.1150 
     15 C15        -0.6158  -19.1717  -49.8775 C.3       23 UNK        -0.0205 
     16 S16         0.1560  -19.9854  -48.4438 S.3       23 UNK        -0.2404 
     17 C17        -1.1105  -21.2208  -48.0027 C.3       23 UNK        -0.0398 
     18 CA         -0.4823  -22.4880  -47.3813 C.3       11 UNK         0.1400 
     19 N           0.1730  -22.2172  -46.1009 N.am      11 UNK        -0.5000 
     20 C           1.0346  -23.0450  -45.4967 C.2       10 UNK         0.5000 
     21 O           1.3856  -24.1284  -45.9636 O.2       10 UNK        -0.5000 
     22 CA          1.5498  -22.6013  -44.1157 C.3       10 UNK         0.1400 
     23 CB          2.6662  -21.5559  -44.2619 C.3       10 UNK        -0.1800 
     24 N           0.4830  -22.0578  -43.2728 N.am      10 UNK        -0.5000 
     25 C          -0.5515  -22.7730  -42.8092 C.2       9 UNK         0.5000 
     26 O          -0.6964  -23.9774  -43.0151 O.2       9 UNK        -0.5000 
     27 CA         -1.6295  -22.0064  -42.0220 C.3       9 UNK         0.1400 
     28 CB         -1.2339  -21.8872  -40.5430 C.3       9 UNK        -0.1800 
     29 N          -1.9213  -20.6714  -42.5493 N.am      9 UNK        -0.5000 
     30 C          -2.3227  -20.3801  -43.7926 C.2       8 UNK         0.5000 
     31 O          -2.4251  -21.2224  -44.6834 O.2       8 UNK        -0.5000 
     32 CA         -2.6486  -18.9111  -44.1242 C.3       8 UNK         0.1400 
     33 CB         -4.1648  -18.6569  -44.0537 C.3       8 UNK        -0.1800 
     34 N          -1.9087  -17.8962  -43.3608 N.am      8 UNK        -0.5000 
     35 C          -1.9432  -17.6053  -42.0493 C.2       7 UNK         0.5000 
     36 O          -2.5752  -18.2600  -41.2202 O.2       7 UNK        -0.5000 
     37 CA         -1.1209  -16.3876  -41.5711 C.3       7 UNK         0.1400 
     38 CB          0.2045  -16.8534  -40.9494 C.3       7 UNK        -0.1800 
     39 N          -0.8293  -15.4280  -42.6377 N.am      7 UNK        -0.5000 
     40 C          -1.7530  -14.7105  -43.2959 C.2       6 UNK         0.5000 
     41 O          -2.9335  -14.6460  -42.9515 O.2       6 UNK        -0.5000 
     42 CA         -1.3042  -13.9821  -44.5807 C.3       6 UNK         0.1400 
     43 CB         -1.2392  -12.4654  -44.3505 C.3       6 UNK        -0.1800 
     44 N          -0.0235  -14.4530  -45.1260 N.am      6 UNK        -0.5000 
     45 C           0.2210  -15.7016  -45.5575 C.2       5 UNK         0.5000 
     46 O          -0.6479  -16.5692  -45.6250 O.2       5 UNK        -0.5000 
     47 CA          1.6749  -16.0806  -45.9041 C.3       5 UNK         0.1400 
     48 CB          1.8337  -16.4073  -47.3965 C.3       5 UNK        -0.1800 
     49 N           2.6923  -15.1069  -45.4852 N.am      5 UNK        -0.5000 
     50 C           3.0018  -14.8701  -44.2003 C.2       4 UNK         0.5000 
     51 O           2.3319  -15.3059  -43.2618 O.2       4 UNK        -0.5000 
     52 CA          4.2673  -14.0566  -43.8832 C.3       4 UNK         0.1400 
     53 CB          5.4186  -15.0249  -43.5394 C.3       4 UNK        -0.1800 
     54 N           4.6763  -13.1345  -44.9483 N.am      4 UNK        -0.5000 
     55 C           5.5677  -12.1474  -44.7722 C.2       3 UNK         0.5000 
     56 O           6.0964  -11.8848  -43.6907 O.2       3 UNK        -0.5000 
     57 CA          5.9285  -11.2992  -46.0021 C.3       3 UNK         0.1400 
     58 CB          6.7856  -12.0944  -47.0010 C.3       3 UNK        -0.1800 
     59 N           4.7350  -10.7827  -46.6659 N.am      3 UNK        -0.5000 
     60 C           4.0467   -9.7089  -46.2521 C.2       2 UNK         0.5000 
     61 O           4.3726   -9.0198  -45.2847 O.2       2 UNK        -0.5000 
     62 CA          2.7885   -9.3251  -47.0564 C.3       2 UNK         0.1400 
     63 CB          3.1082   -8.1947  -48.0468 C.3       2 UNK        -0.1800 
     64 N           2.2067  -10.4484  -47.7923 N.am      2 UNK        -0.5000 
     65 C           1.5636  -11.4743  -47.2193 C.2       1 UNK         0.5000 
     66 O           1.3767  -11.5777  -46.0076 O.2       1 UNK        -0.5000 
     67 C          -1.5254  -23.6127  -47.2501 C.2       11 UNK         0.5000 
     68 O          -1.6517  -24.4219  -48.1677 O.2       11 UNK        -0.5000 
     69 N          -2.2378  -23.6662  -46.1171 N.am      12 UNK        -0.5000 
     70 CA         -3.1834  -24.7301  -45.7823 C.3       12 UNK         0.1400 
     71 CB         -3.9851  -24.3393  -44.5328 C.3       12 UNK        -0.1800 
     72 C          -2.4876  -26.0902  -45.5989 C.2       12 UNK         0.5000 
     73 O          -2.9601  -27.0858  -46.1467 O.2       12 UNK        -0.5000 
     74 N          -1.3509  -26.1006  -44.8871 N.am      13 UNK        -0.5000 
     75 CA         -0.4981  -27.2767  -44.6917 C.3       13 UNK         0.1400 
     76 CB          0.5975  -26.9511  -43.6655 C.3       13 UNK        -0.1800 
     77 C           0.1224  -27.7956  -46.0032 C.2       13 UNK         0.5000 
     78 O           0.2259  -29.0084  -46.1895 O.2       13 UNK        -0.5000 
     79 N           0.4889  -26.8709  -46.9009 N.am      14 UNK        -0.5000 
     80 CA          0.9865  -27.1611  -48.2475 C.3       14 UNK         0.1400 
     81 CB          1.7120  -25.9150  -48.7806 C.3       14 UNK        -0.1800 
     82 C          -0.1159  -27.5959  -49.2370 C.2       14 UNK         0.5000 
     83 O           0.2149  -28.0592  -50.3290 O.2       14 UNK        -0.5000 
     84 N          -1.3910  -27.4098  -48.8594 N.am      15 UNK        -0.5000 
     85 CA         -2.6038  -27.5907  -49.6676 C.3       15 UNK         0.1400 
     86 CB         -2.7964  -29.0692  -50.0632 C.3       15 UNK        -0.1800 
     87 C          -2.6745  -26.6244  -50.8722 C.2       15 UNK         0.5000 
     88 O          -3.2865  -26.9442  -51.8925 O.2       15 UNK        -0.5000 
     89 N          -2.0477  -25.4517  -50.7222 N.am      16 UNK        -0.5000 
     90 CA         -1.9940  -24.3779  -51.7092 C.3       16 UNK         0.1400 
     91 CB         -0.6453  -23.6539  -51.5721 C.3       16 UNK        -0.1800 
     92 C          -3.1497  -23.3792  -51.5360 C.2       16 UNK         0.5000 
     93 O          -3.5138  -22.7155  -52.5075 O.2       16 UNK        -0.5000 
     94 N          -3.7070  -23.2850  -50.3174 N.am      17 UNK        -0.5000 
     95 CA         -4.8035  -22.3897  -49.9314 C.3       17 UNK         0.1400 
     96 CB         -4.8767  -22.3094  -48.3959 C.3       17 UNK        -0.1800 
     97 C          -6.1542  -22.7890  -50.5650 C.2       17 UNK         0.5000 
     98 O          -7.0753  -23.2181  -49.8681 O.2       17 UNK        -0.5000 
     99 N          -6.2176  -22.6531  -51.8894 N.am      18 UNK        -0.5000 
    100 CA        -7.3229  -22.9807  -52.7835 C.3       18 UNK         0.1400 
    101 CB        -7.6333  -24.4910  -52.7550 C.3       18 UNK        -0.1800 
    102 C         -6.9927  -22.5440  -54.2213 C.2       18 UNK         0.5000 
    103 O         -7.9163  -22.2352  -54.9759 O.2       18 UNK        -0.5000 
    104 N         -5.6996  -22.5187  -54.5798 N.am      19 UNK        -0.5000 
    105 CA        -5.2054  -22.1383  -55.9003 C.3       19 UNK         0.1400 
    106 CB        -5.1427  -23.3830  -56.8069 C.3       19 UNK        -0.1800 
    107 C         -3.8561  -21.4113  -55.7643 C.2       19 UNK         0.5000 
    108 O         -2.8854  -21.7694  -56.4348 O.2       19 UNK        -0.5000 
    109 N         -3.8215  -20.4052  -54.8857 N.am      20 UNK        -0.5000 
    110 CA        -2.6841  -19.5210  -54.6506 C.3       20 UNK         0.1400 
    111 CB        -2.0214  -19.8885  -53.3071 C.3       20 UNK        -0.1800 
    112 C         -3.1933  -18.0721  -54.7312 C.2       20 UNK         0.5000 
    113 O         -3.8904  -17.7322  -55.6902 O.2       20 UNK        -0.5000 
    114 N         -2.8668  -17.2429  -53.7300 N.am      21 UNK        -0.5000 
    115 CA        -3.4278  -15.8996  -53.5606 C.3       21 UNK         0.1400 
    116 CB        -2.6097  -15.1402  -52.5110 C.3       21 UNK        -0.1800 
    117 C         -4.9185  -15.9375  -53.1684 C.2       21 UNK         0.5000 
    118 O         -5.6660  -15.0302  -53.5363 O.2       21 UNK        -0.5000 
    119 N         -5.3201  -17.0056  -52.4695 N.am      22 UNK        -0.5000 
    120 CA        -6.7115  -17.4129  -52.2604 C.3       22 UNK         0.1400 
    121 C         -7.0341  -18.6842  -53.0985 C.2       22 UNK         0.5000 
    122 N         -8.3020  -18.9439  -53.3859 N.am      22 UNK        -0.7600 
    123 O         -6.1483  -19.4482  -53.4800 O.2       22 UNK        -0.5000 
    124 C124       -7.0330  -17.5841  -50.7521 C.3       23 UNK        -0.0398 
    125 S125       -6.2161  -19.0014  -49.9342 S.3       23 UNK        -0.2404 
    126 C126       -5.3932  -18.2325  -48.5038 C.3       23 UNK        -0.0205 
    127 H127        5.2054  -13.1478  -49.9264 H         1 UNK         0.0600 
    128 H128        3.8317  -13.5546  -50.9609 H         1 UNK         0.0600 
    129 H129        4.5849  -14.8018  -49.9617 H         1 UNK         0.0600 
    130 H130        1.8803  -12.8605  -50.1093 H         1 UNK         0.3000 
    131 H131        0.9727  -13.4817  -47.5198 H         1 UNK         0.0600 
    132 H132       -0.9888  -12.0099  -48.0518 H         1 UNK         0.0800 
    133 H133       -0.1691  -11.4421  -49.4835 H         1 UNK         0.0800 
    134 H134       -1.4830  -14.4676  -47.5493 H         1 UNK         0.0800 
    135 H135       -2.8837  -13.8729  -48.4083 H         1 UNK         0.0800 
    136 H136       -4.4179  -15.6894  -48.2792 H         1 UNK         0.1150 
    137 H137       -3.2574  -19.6596  -49.3920 H         1 UNK         0.1150 
    138 H138       -0.3551  -16.5149  -49.3697 H         1 UNK         0.1150 
    139 H139       -1.0259  -19.9208  -50.5555 H         1 UNK         0.0800 
    140 H140        0.1584  -18.6472  -50.4395 H         1 UNK         0.0800 
    141 H141       -1.6643  -21.4837  -48.9055 H         1 UNK         0.0800 
    142 H142       -1.8267  -20.7601  -47.3203 H         1 UNK         0.0800 
    143 H143        0.2818  -22.8511  -48.0721 H         1 UNK         0.0600 
    144 H144       -0.0997  -21.3677  -45.6296 H         1 UNK         0.3000 
    145 H145        1.9647  -23.4794  -43.6162 H         1 UNK         0.0600 
    146 H146        3.4816  -21.9405  -44.8759 H         1 UNK         0.0600 
    147 H147        3.0880  -21.2918  -43.2920 H         1 UNK         0.0600 
    148 H148        2.3053  -20.6401  -44.7320 H         1 UNK         0.0600 
    149 H149        0.5195  -21.0721  -43.0599 H         1 UNK         0.3000 
    150 H150       -2.5524  -22.5857  -42.0805 H         1 UNK         0.0600 
    151 H151       -0.3387  -21.2778  -40.4135 H         1 UNK         0.0600 
    152 H152       -1.0302  -22.8684  -40.1118 H         1 UNK         0.0600 
    153 H153       -2.0341  -21.4351  -39.9565 H         1 UNK         0.0600 
    154 H154       -1.9409  -19.9095  -41.8780 H         1 UNK         0.3000 
    155 H155       -2.3460  -18.7654  -45.1628 H         1 UNK         0.0600 
    156 H156       -4.5528  -18.7886  -43.0433 H         1 UNK         0.0600 
    157 H157       -4.7058  -19.3457  -44.7040 H         1 UNK         0.0600 
    158 H158       -4.4084  -17.6452  -44.3788 H         1 UNK         0.0600 
    159 H159       -1.3378  -17.2991  -43.9520 H         1 UNK         0.3000 
    160 H160       -1.7037  -15.8762  -40.8025 H         1 UNK         0.0600 
    161 H161        0.8353  -17.3600  -41.6812 H         1 UNK         0.0600 
    162 H162        0.0297  -17.5486  -40.1272 H         1 UNK         0.0600 
    163 H163        0.7693  -16.0115  -40.5484 H         1 UNK         0.0600 
    164 H164        0.1302  -15.3942  -42.9619 H         1 UNK         0.3000 
    165 H165       -2.0777  -14.1756  -45.3256 H         1 UNK         0.0600 
    166 H166       -1.1364  -11.9309  -45.2942 H         1 UNK         0.0600 
    167 H167       -2.1498  -12.0971  -43.8760 H         1 UNK         0.0600 
    168 H168       -0.3999  -12.1905  -43.7106 H         1 UNK         0.0600 
    169 H169        0.7481  -13.8009  -45.0818 H         1 UNK         0.3000 
    170 H170        1.8823  -17.0038  -45.3583 H         1 UNK         0.0600 
    171 H171        2.8655  -16.6584  -47.6424 H         1 UNK         0.0600 
    172 H172        1.5243  -15.5853  -48.0375 H         1 UNK         0.0600 
    173 H173        1.2216  -17.2685  -47.6639 H         1 UNK         0.0600 
    174 H174        3.2461  -14.6945  -46.2294 H         1 UNK         0.3000 
    175 H175        4.0347  -13.4650  -42.9952 H         1 UNK         0.0600 
    176 H176        5.1121  -15.7495  -42.7836 H         1 UNK         0.0600 
    177 H177        5.7433  -15.5843  -44.4175 H         1 UNK         0.0600 
    178 H178        6.2852  -14.4998  -43.1386 H         1 UNK         0.0600 
    179 H179        4.2728  -13.2694  -45.8705 H         1 UNK         0.3000 
    180 H180        6.5303  -10.4541  -45.6600 H         1 UNK         0.0600 
    181 H181        6.2701  -12.9770  -47.3779 H         1 UNK         0.0600 
    182 H182        7.7089  -12.4352  -46.5310 H         1 UNK         0.0600 
    183 H183        7.0653  -11.4795  -47.8565 H         1 UNK         0.0600 
    184 H184        4.3723  -11.3253  -47.4357 H         1 UNK         0.3000 
    185 H185        2.0444   -8.9572  -46.3466 H         1 UNK         0.0600 
    186 H186        3.5174   -7.3259  -47.5293 H         1 UNK         0.0600 
    187 H187        3.8404   -8.5075  -48.7923 H         1 UNK         0.0600 
    188 H188        2.2119   -7.8650  -48.5725 H         1 UNK         0.0600 
    189 H189        2.3408  -10.4554  -48.7931 H         1 UNK         0.3000 
    190 H190       -2.1378  -22.9115  -45.4428 H         1 UNK         0.3000 
    191 H191       -3.8835  -24.8300  -46.6135 H         1 UNK         0.0600 
    192 H192       -4.4988  -23.3884  -44.6758 H         1 UNK         0.0600 
    193 H193       -4.7434  -25.0899  -44.3068 H         1 UNK         0.0600 
    194 H194       -3.3457  -24.2461  -43.6557 H         1 UNK         0.0600 
    195 H195       -1.0544  -25.2462  -44.4229 H         1 UNK         0.3000 
    196 H196       -1.1206  -28.0750  -44.2826 H         1 UNK         0.0600 
    197 H197        1.2421  -27.8139  -43.4933 H         1 UNK         0.0600 
    198 H198        0.1656  -26.6711  -42.7046 H         1 UNK         0.0600 
    199 H199        1.2302  -26.1282  -43.9997 H         1 UNK         0.0600 
    200 H200        0.4395  -25.8928  -46.6376 H         1 UNK         0.3000 
    201 H201        1.7098  -27.9763  -48.1828 H         1 UNK         0.0600 
    202 H202        2.1443  -26.1021  -49.7643 H         1 UNK         0.0600 
    203 H203        2.5268  -25.6190  -48.1197 H         1 UNK         0.0600 
    204 H204        1.0337  -25.0670  -48.8774 H         1 UNK         0.0600 
    205 H205       -1.5493  -27.0223  -47.9381 H         1 UNK         0.3000 
    206 H206       -3.4361  -27.3163  -49.0180 H         1 UNK         0.0600 
    207 H207       -2.7374  -29.7206  -49.1912 H         1 UNK         0.0600 
    208 H208       -3.7744  -29.2270  -50.5191 H         1 UNK         0.0600 
    209 H209       -2.0459  -29.3998  -50.7815 H         1 UNK         0.0600 
    210 H210       -1.6365  -25.2477  -49.8145 H         1 UNK         0.3000 
    211 H211       -2.0590  -24.7983  -52.7148 H         1 UNK         0.0600 
    212 H212       -0.5318  -23.1908  -50.5914 H         1 UNK         0.0600 
    213 H213       -0.5453  -22.8675  -52.3208 H         1 UNK         0.0600 
    214 H214        0.1869  -24.3438  -51.7135 H         1 UNK         0.0600 
    215 H215       -3.3467  -23.8904  -49.5926 H         1 UNK         0.3000 
    216 H216       -4.5598  -21.3938  -50.3038 H         1 UNK         0.0600 
    217 H217       -5.6777  -21.6403  -48.0792 H         1 UNK         0.0600 
    218 H218       -3.9537  -21.9215  -47.9696 H         1 UNK         0.0600 
    219 H219       -5.0721  -23.2852  -47.9518 H         1 UNK         0.0600 
    220 H220       -5.3835  -22.2918  -52.3397 H         1 UNK         0.3000 
    221 H221       -8.2031  -22.4237  -52.4571 H         1 UNK         0.0600 
    222 H222       -6.7489  -25.0848  -52.9898 H         1 UNK         0.0600 
    223 H223       -8.0021  -24.8099  -51.7807 H         1 UNK         0.0600 
    224 H224       -8.4033  -24.7457  -53.4844 H         1 UNK         0.0600 
    225 H225       -4.9764  -22.7648  -53.9123 H         1 UNK         0.3000 
    226 H226       -5.8901  -21.4184  -56.3537 H         1 UNK         0.0600 
    227 H227       -6.1256  -23.8412  -56.9169 H         1 UNK         0.0600 
    228 H228       -4.7940  -23.1233  -57.8071 H         1 UNK         0.0600 
    229 H229       -4.4649  -24.1367  -56.4045 H         1 UNK         0.0600 
    230 H230       -4.6825  -20.1453  -54.4058 H         1 UNK         0.3000 
    231 H231       -1.9415  -19.6305  -55.4432 H         1 UNK         0.0600 
    232 H232       -1.6614  -20.9164  -53.3278 H         1 UNK         0.0600 
    233 H233       -2.7198  -19.8016  -52.4733 H         1 UNK         0.0600 
    234 H234       -1.1565  -19.2578  -53.0992 H         1 UNK         0.0600 
    235 H235       -2.2756  -17.5841  -52.9866 H         1 UNK         0.3000 
    236 H236       -3.3442  -15.3668  -54.5102 H         1 UNK         0.0600 
    237 H237       -1.5617  -15.0631  -52.8006 H         1 UNK         0.0600 
    238 H238       -2.9868  -14.1255  -52.3771 H         1 UNK         0.0600 
    239 H239       -2.6555  -15.6364  -51.5432 H         1 UNK         0.0600 
    240 H240       -4.6386  -17.7151  -52.2457 H         1 UNK         0.3000 
    241 H241       -7.3690  -16.6277  -52.6379 H         1 UNK         0.0600 
    242 H242       -8.5142  -19.7630  -53.9344 H         1 UNK         0.3800 
    243 H243       -9.0517  -18.3392  -53.0882 H         1 UNK         0.3800 
    244 H244       -8.1088  -17.7057  -50.6187 H         1 UNK         0.0800 
    245 H245       -6.7779  -16.6636  -50.2258 H         1 UNK         0.0800 
    246 H246       -5.3087  -18.9813  -47.7150 H         1 UNK         0.0800 
    247 H247       -6.0214  -17.4390  -48.0966 H         1 UNK         0.0800 
@<TRIPOS>BOND
     1    1    2 1    
     2    1  127 1    
     3    1  128 1    
     4    1  129 1    
     5    2    3 2    
     6    2    4 am   BACKBONE|DICT|INTERRES
     7    4    5 1    
     8    4  130 1    
     9    5    6 1    
    10    5   65 1    
    11    5  131 1    
    12    6    7 1    
    13    6  132 1    
    14    6  133 1    
    15    7    8 1    
    16    8    9 1    
    17    8  134 1    
    18    8  135 1    
    19    9   10 ar   
    20    9   14 ar   
    21   10   11 ar   
    22   10  136 1    
    23   11   12 ar   
    24   11  126 1    
    25   12   13 ar   
    26   12  137 1    
    27   13   14 ar   
    28   13   15 1    
    29   14  138 1    
    30   15   16 1    
    31   15  139 1    
    32   15  140 1    
    33   16   17 1    
    34   17   18 1    
    35   17  141 1    
    36   17  142 1    
    37   18   19 1    
    38   18   67 1    
    39   18  143 1    
    40   19   20 am   BACKBONE|DICT|INTERRES
    41   19  144 1    
    42   20   21 2    
    43   20   22 1    
    44   22   23 1    
    45   22   24 1    
    46   22  145 1    
    47   23  146 1    
    48   23  147 1    
    49   23  148 1    
    50   24   25 am   BACKBONE|DICT|INTERRES
    51   24  149 1    
    52   25   26 2    
    53   25   27 1    
    54   27   28 1    
    55   27   29 1    
    56   27  150 1    
    57   28  151 1    
    58   28  152 1    
    59   28  153 1    
    60   29   30 am   BACKBONE|DICT|INTERRES
    61   29  154 1    
    62   30   31 2    
    63   30   32 1    
    64   32   33 1    
    65   32   34 1    
    66   32  155 1    
    67   33  156 1    
    68   33  157 1    
    69   33  158 1    
    70   34   35 am   BACKBONE|DICT|INTERRES
    71   34  159 1    
    72   35   36 2    
    73   35   37 1    
    74   37   38 1    
    75   37   39 1    
    76   37  160 1    
    77   38  161 1    
    78   38  162 1    
    79   38  163 1    
    80   39   40 am   BACKBONE|DICT|INTERRES
    81   39  164 1    
    82   40   41 2    
    83   40   42 1    
    84   42   43 1    
    85   42   44 1    
    86   42  165 1    
    87   43  166 1    
    88   43  167 1    
    89   43  168 1    
    90   44   45 am   BACKBONE|DICT|INTERRES
    91   44  169 1    
    92   45   46 2    
    93   45   47 1    
    94   47   48 1    
    95   47   49 1    
    96   47  170 1    
    97   48  171 1    
    98   48  172 1    
    99   48  173 1    
   100   49   50 am   BACKBONE|DICT|INTERRES
   101   49  174 1    
   102   50   51 2    
   103   50   52 1    
   104   52   53 1    
   105   52   54 1    
   106   52  175 1    
   107   53  176 1    
   108   53  177 1    
   109   53  178 1    
   110   54   55 am   BACKBONE|DICT|INTERRES
   111   54  179 1    
   112   55   56 2    
   113   55   57 1    
   114   57   58 1    
   115   57   59 1    
   116   57  180 1    
   117   58  181 1    
   118   58  182 1    
   119   58  183 1    
   120   59   60 am   BACKBONE|DICT|INTERRES
   121   59  184 1    
   122   60   61 2    
   123   60   62 1    
   124   62   63 1    
   125   62   64 1    
   126   62  185 1    
   127   63  186 1    
   128   63  187 1    
   129   63  188 1    
   130   64   65 am   BACKBONE|DICT|INTERRES
   131   64  189 1    
   132   65   66 2    
   133   67   68 2    
   134   67   69 am   BACKBONE|DICT|INTERRES
   135   69   70 1    
   136   69  190 1    
   137   70   71 1    
   138   70   72 1    
   139   70  191 1    
   140   71  192 1    
   141   71  193 1    
   142   71  194 1    
   143   72   73 2    
   144   72   74 am   BACKBONE|DICT|INTERRES
   145   74   75 1    
   146   74  195 1    
   147   75   76 1    
   148   75   77 1    
   149   75  196 1    
   150   76  197 1    
   151   76  198 1    
   152   76  199 1    
   153   77   78 2    
   154   77   79 am   BACKBONE|DICT|INTERRES
   155   79   80 1    
   156   79  200 1    
   157   80   81 1    
   158   80   82 1    
   159   80  201 1    
   160   81  202 1    
   161   81  203 1    
   162   81  204 1    
   163   82   83 2    
   164   82   84 am   BACKBONE|DICT|INTERRES
   165   84   85 1    
   166   84  205 1    
   167   85   86 1    
   168   85   87 1    
   169   85  206 1    
   170   86  207 1    
   171   86  208 1    
   172   86  209 1    
   173   87   88 2    
   174   87   89 am   BACKBONE|DICT|INTERRES
   175   89   90 1    
   176   89  210 1    
   177   90   91 1    
   178   90   92 1    
   179   90  211 1    
   180   91  212 1    
   181   91  213 1    
   182   91  214 1    
   183   92   93 2    
   184   92   94 am   BACKBONE|DICT|INTERRES
   185   94   95 1    
   186   94  215 1    
   187   95   96 1    
   188   95   97 1    
   189   95  216 1    
   190   96  217 1    
   191   96  218 1    
   192   96  219 1    
   193   97   98 2    
   194   97   99 am   BACKBONE|DICT|INTERRES
   195   99  100 1    
   196   99  220 1    
   197  100  101 1    
   198  100  102 1    
   199  100  221 1    
   200  101  222 1    
   201  101  223 1    
   202  101  224 1    
   203  102  103 2    
   204  102  104 am   BACKBONE|DICT|INTERRES
   205  104  105 1    
   206  104  225 1    
   207  105  106 1    
   208  105  107 1    
   209  105  226 1    
   210  106  227 1    
   211  106  228 1    
   212  106  229 1    
   213  107  108 2    
   214  107  109 am   BACKBONE|DICT|INTERRES
   215  109  110 1    
   216  109  230 1    
   217  110  111 1    
   218  110  112 1    
   219  110  231 1    
   220  111  232 1    
   221  111  233 1    
   222  111  234 1    
   223  112  113 2    
   224  112  114 am   BACKBONE|DICT|INTERRES
   225  114  115 1    
   226  114  235 1    
   227  115  116 1    
   228  115  117 1    
   229  115  236 1    
   230  116  237 1    
   231  116  238 1    
   232  116  239 1    
   233  117  118 2    
   234  117  119 am   BACKBONE|DICT|INTERRES
   235  119  120 1    
   236  119  240 1    
   237  120  121 1    
   238  120  124 1    
   239  120  241 1    
   240  121  122 am   BACKBONE|DICT|INTERRES
   241  121  123 2    
   242  122  242 1    
   243  122  243 1    
   244  124  125 1    
   245  124  244 1    
   246  124  245 1    
   247  125  126 1    
   248  126  246 1    
   249  126  247 1    
@<TRIPOS>SUBSTRUCTURE
     1 UNK         1 GROUP             0       ****    0 ROOT    
