@<TRIPOS>MOLECULE
3R540
247   249    1
SMALL
USER_CHARGES


@<TRIPOS>ATOM
      1 CA          3.1135  -12.3788  -52.1671 C.3       0 UNK        -0.1800 
      2 C           3.6643  -12.3998  -50.7485 C.2       0 UNK         0.5000 
      3 O           4.2406  -11.4105  -50.2974 O.2       0 UNK        -0.5000 
      4 N           3.4731  -13.5185  -50.0395 N.am      1 UNK        -0.5000 
      5 CA          3.9330  -13.7382  -48.6602 C.3       1 UNK         0.1400 
      6 C6          4.3501  -15.2104  -48.3986 C.3       23 UNK        -0.0398 
      7 S7          5.6671  -15.7660  -49.5416 S.3       23 UNK        -0.2404 
      8 C8          5.2861  -17.5419  -49.7727 C.3       23 UNK        -0.0205 
      9 C9          3.9194  -17.8695  -50.3790 C.ar      23 UNK        -0.0193 
     10 C10         3.1503  -16.9209  -51.0604 C.ar      23 UNK        -0.1150 
     11 C11         1.8706  -17.2328  -51.5194 C.ar      23 UNK        -0.0193 
     12 C12         1.3793  -18.5310  -51.3578 C.ar      23 UNK        -0.1150 
     13 C13         2.1558  -19.5158  -50.7391 C.ar      23 UNK        -0.0193 
     14 C14         3.4219  -19.1693  -50.2466 C.ar      23 UNK        -0.1150 
     15 C15         1.6145  -20.9450  -50.6652 C.3       23 UNK        -0.0205 
     16 S16         2.2667  -21.9506  -49.2872 S.3       23 UNK        -0.2404 
     17 C17         1.3536  -21.2482  -47.8744 C.3       23 UNK        -0.0398 
     18 CA          0.3526  -22.2549  -47.2596 C.3       11 UNK         0.1400 
     19 N          -0.0539  -21.8560  -45.9098 N.am      11 UNK        -0.5000 
     20 C          -0.7834  -22.6061  -45.0722 C.2       10 UNK         0.5000 
     21 O          -1.1653  -23.7452  -45.3309 O.2       10 UNK        -0.5000 
     22 CA         -1.2150  -21.9540  -43.7477 C.3       10 UNK         0.1400 
     23 CB         -0.0716  -21.9759  -42.7230 C.3       10 UNK        -0.1800 
     24 N          -1.6979  -20.5861  -43.9387 N.am      10 UNK        -0.5000 
     25 C          -2.7808  -20.2685  -44.6638 C.2       9 UNK         0.5000 
     26 O          -3.5210  -21.1041  -45.1840 O.2       9 UNK        -0.5000 
     27 CA         -3.0603  -18.7709  -44.8831 C.3       9 UNK         0.1400 
     28 CB         -3.7845  -18.1721  -43.6686 C.3       9 UNK        -0.1800 
     29 N          -1.8470  -18.0015  -45.1671 N.am      9 UNK        -0.5000 
     30 C          -1.0721  -18.1712  -46.2489 C.2       8 UNK         0.5000 
     31 O          -1.3227  -18.9722  -47.1478 O.2       8 UNK        -0.5000 
     32 CA          0.2342  -17.3577  -46.3101 C.3       8 UNK         0.1400 
     33 CB         -0.0258  -15.9161  -46.7660 C.3       8 UNK        -0.1800 
     34 N           0.9456  -17.3532  -45.0315 N.am      8 UNK        -0.5000 
     35 C           1.4494  -18.4495  -44.4474 C.2       7 UNK         0.5000 
     36 O           1.4175  -19.5703  -44.9543 O.2       7 UNK        -0.5000 
     37 CA          2.0374  -18.2752  -43.0386 C.3       7 UNK         0.1400 
     38 CB          3.4836  -17.7608  -43.1038 C.3       7 UNK        -0.1800 
     39 N           1.2209  -17.3759  -42.2235 N.am      7 UNK        -0.5000 
     40 C           0.0196  -17.6980  -41.7230 C.2       6 UNK         0.5000 
     41 O          -0.5097  -18.7983  -41.8761 O.2       6 UNK        -0.5000 
     42 CA         -0.7334  -16.5977  -40.9520 C.3       6 UNK         0.1400 
     43 CB         -0.2732  -16.5516  -39.4875 C.3       6 UNK        -0.1800 
     44 N          -0.5765  -15.2722  -41.5518 N.am      6 UNK        -0.5000 
     45 C          -1.0571  -14.9262  -42.7538 C.2       5 UNK         0.5000 
     46 O          -1.7074  -15.6822  -43.4735 O.2       5 UNK        -0.5000 
     47 CA         -0.7117  -13.5152  -43.2616 C.3       5 UNK         0.1400 
     48 CB         -1.7368  -12.4940  -42.7470 C.3       5 UNK        -0.1800 
     49 N           0.6398  -13.0576  -42.9236 N.am      5 UNK        -0.5000 
     50 C           1.7771  -13.7066  -43.2081 C.2       4 UNK         0.5000 
     51 O           1.8135  -14.8362  -43.6987 O.2       4 UNK        -0.5000 
     52 CA          3.0747  -12.9220  -42.9580 C.3       4 UNK         0.1400 
     53 CB          4.3286  -13.8111  -43.0336 C.3       4 UNK        -0.1800 
     54 N           3.1520  -11.9032  -43.9964 N.am      4 UNK        -0.5000 
     55 C           2.9017  -10.5970  -43.8375 C.2       3 UNK         0.5000 
     56 O           2.7485  -10.0573  -42.7415 O.2       3 UNK        -0.5000 
     57 CA          2.7385   -9.7636  -45.1280 C.3       3 UNK         0.1400 
     58 CB          4.0873   -9.1723  -45.5641 C.3       3 UNK        -0.1800 
     59 N           2.1772  -10.5456  -46.2336 N.am      3 UNK        -0.5000 
     60 C           0.9575  -11.1030  -46.2313 C.2       2 UNK         0.5000 
     61 O           0.0997  -10.8445  -45.3873 O.2       2 UNK        -0.5000 
     62 CA          0.6438  -12.1551  -47.3164 C.3       2 UNK         0.1400 
     63 CB         -0.4230  -11.6345  -48.2911 C.3       2 UNK        -0.1800 
     64 N           1.7914  -12.6397  -48.0927 N.am      2 UNK        -0.5000 
     65 C           2.8879  -13.2594  -47.6276 C.2       1 UNK         0.5000 
     66 O           3.0998  -13.4421  -46.4303 O.2       1 UNK        -0.5000 
     67 C          -0.8616  -22.5040  -48.1814 C.2       11 UNK         0.5000 
     68 O          -0.9009  -23.5209  -48.8743 O.2       11 UNK        -0.5000 
     69 N          -1.8504  -21.6004  -48.1352 N.am      12 UNK        -0.5000 
     70 CA         -3.1063  -21.6915  -48.8796 C.3       12 UNK         0.1400 
     71 CB         -3.9254  -20.4137  -48.6429 C.3       12 UNK        -0.1800 
     72 C          -3.9348  -22.9423  -48.5302 C.2       12 UNK         0.5000 
     73 O          -4.5373  -23.5372  -49.4259 O.2       12 UNK        -0.5000 
     74 N          -3.9344  -23.3201  -47.2447 N.am      13 UNK        -0.5000 
     75 CA         -4.5571  -24.5403  -46.7369 C.3       13 UNK         0.1400 
     76 CB         -4.7540  -24.4190  -45.2185 C.3       13 UNK        -0.1800 
     77 C          -3.7434  -25.7996  -47.0866 C.2       13 UNK         0.5000 
     78 O          -4.3258  -26.7938  -47.5205 O.2       13 UNK        -0.5000 
     79 N          -2.4145  -25.7362  -46.9131 N.am      14 UNK        -0.5000 
     80 CA         -1.4734  -26.8257  -47.1963 C.3       14 UNK         0.1400 
     81 CB         -0.0673  -26.4353  -46.7184 C.3       14 UNK        -0.1800 
     82 C          -1.4383  -27.2434  -48.6772 C.2       14 UNK         0.5000 
     83 O          -1.1822  -28.4125  -48.9710 O.2       14 UNK        -0.5000 
     84 N          -1.7408  -26.3016  -49.5796 N.am      15 UNK        -0.5000 
     85 CA         -1.9401  -26.5025  -51.0143 C.3       15 UNK         0.1400 
     86 CB         -1.8841  -25.1295  -51.7065 C.3       15 UNK        -0.1800 
     87 C          -3.2499  -27.2634  -51.3244 C.2       15 UNK         0.5000 
     88 O          -4.1257  -26.7344  -52.0088 O.2       15 UNK        -0.5000 
     89 N          -3.3706  -28.4876  -50.7908 N.am      16 UNK        -0.5000 
     90 CA         -4.4551  -29.4595  -50.9849 C.3       16 UNK         0.1400 
     91 CB         -4.3819  -30.0404  -52.4123 C.3       16 UNK        -0.1800 
     92 C          -5.8656  -28.9282  -50.6403 C.2       16 UNK         0.5000 
     93 O          -6.8486  -29.3810  -51.2298 O.2       16 UNK        -0.5000 
     94 N          -5.9386  -27.9643  -49.7090 N.am      17 UNK        -0.5000 
     95 CA         -7.1302  -27.2123  -49.3008 C.3       17 UNK         0.1400 
     96 CB         -8.1300  -28.1268  -48.5632 C.3       17 UNK        -0.1800 
     97 C          -7.7833  -26.4052  -50.4464 C.2       17 UNK         0.5000 
     98 O          -8.9794  -26.1159  -50.3829 O.2       17 UNK        -0.5000 
     99 N          -6.9949  -26.0365  -51.4683 N.am      18 UNK        -0.5000 
    100 CA        -7.4513  -25.2793  -52.6372 C.3       18 UNK         0.1400 
    101 CB        -6.4395  -25.4596  -53.7799 C.3       18 UNK        -0.1800 
    102 C         -7.6722  -23.7807  -52.3548 C.2       18 UNK         0.5000 
    103 O         -8.2649  -23.1007  -53.1934 O.2       18 UNK        -0.5000 
    104 N         -7.1830  -23.2945  -51.2027 N.am      19 UNK        -0.5000 
    105 CA        -7.1830  -21.8973  -50.7602 C.3       19 UNK         0.1400 
    106 CB        -8.6171  -21.3604  -50.5693 C.3       19 UNK        -0.1800 
    107 C         -6.3127  -21.0203  -51.6811 C.2       19 UNK         0.5000 
    108 O         -6.7419  -19.9539  -52.1260 O.2       19 UNK        -0.5000 
    109 N         -5.0898  -21.4997  -51.9489 N.am      20 UNK        -0.5000 
    110 CA        -4.0796  -20.8742  -52.8075 C.3       20 UNK         0.1400 
    111 CB        -3.0643  -21.9513  -53.2297 C.3       20 UNK        -0.1800 
    112 C         -3.4021  -19.6499  -52.1494 C.2       20 UNK         0.5000 
    113 O         -2.1773  -19.6089  -52.0209 O.2       20 UNK        -0.5000 
    114 N         -4.2191  -18.6831  -51.7193 N.am      21 UNK        -0.5000 
    115 CA        -3.7984  -17.4048  -51.1525 C.3       21 UNK         0.1400 
    116 CB        -4.9929  -16.7817  -50.4136 C.3       21 UNK        -0.1800 
    117 C         -3.2599  -16.4516  -52.2359 C.2       21 UNK         0.5000 
    118 O         -3.5390  -16.6333  -53.4242 O.2       21 UNK        -0.5000 
    119 N         -2.5010  -15.4430  -51.7966 N.am      22 UNK        -0.5000 
    120 CA        -1.7885  -14.4883  -52.6638 C.3       22 UNK         0.1400 
    121 C         -2.6813  -13.4055  -53.3396 C.2       22 UNK         0.5000 
    122 N         -3.9556  -13.2779  -52.9914 N.am      22 UNK        -0.7600 
    123 O         -2.2075  -12.6690  -54.2003 O.2       22 UNK        -0.5000 
    124 C124       -0.5812  -13.8311  -51.9392 C.3       23 UNK        -0.0398 
    125 S125        0.4239  -14.9721  -50.9245 S.3       23 UNK        -0.2404 
    126 C126        1.0226  -16.1552  -52.1727 C.3       23 UNK        -0.0205 
    127 H127        2.2833  -11.6762  -52.2375 H         1 UNK         0.0600 
    128 H128        3.8885  -12.0648  -52.8663 H         1 UNK         0.0600 
    129 H129        2.7579  -13.3612  -52.4777 H         1 UNK         0.0600 
    130 H130        2.9505  -14.2802  -50.4481 H         1 UNK         0.3000 
    131 H131        4.8200  -13.1249  -48.4881 H         1 UNK         0.0600 
    132 H132        3.4842  -15.8698  -48.4724 H         1 UNK         0.0800 
    133 H133        4.7304  -15.3268  -47.3821 H         1 UNK         0.0800 
    134 H134        6.0563  -17.9761  -50.4114 H         1 UNK         0.0800 
    135 H135        5.3769  -18.0338  -48.8030 H         1 UNK         0.0800 
    136 H136        3.5295  -15.9245  -51.2183 H         1 UNK         0.1150 
    137 H137        0.3938  -18.7797  -51.7275 H         1 UNK         0.1150 
    138 H138        4.0357  -19.9129  -49.7593 H         1 UNK         0.1150 
    139 H139        0.5242  -20.9339  -50.6080 H         1 UNK         0.0800 
    140 H140        1.8651  -21.4471  -51.6003 H         1 UNK         0.0800 
    141 H141        0.8594  -20.3172  -48.1576 H         1 UNK         0.0800 
    142 H142        2.1019  -20.9716  -47.1310 H         1 UNK         0.0800 
    143 H143        0.8714  -23.2089  -47.1469 H         1 UNK         0.0600 
    144 H144        0.2583  -20.9406  -45.5963 H         1 UNK         0.3000 
    145 H145       -2.0402  -22.5436  -43.3428 H         1 UNK         0.0600 
    146 H146       -0.4002  -21.5887  -41.7585 H         1 UNK         0.0600 
    147 H147        0.2856  -22.9934  -42.5597 H         1 UNK         0.0600 
    148 H148        0.7788  -21.3788  -43.0511 H         1 UNK         0.0600 
    149 H149       -1.1677  -19.8473  -43.4888 H         1 UNK         0.3000 
    150 H150       -3.7200  -18.6804  -45.7482 H         1 UNK         0.0600 
    151 H151       -4.6953  -18.7280  -43.4426 H         1 UNK         0.0600 
    152 H152       -4.0732  -17.1374  -43.8537 H         1 UNK         0.0600 
    153 H153       -3.1574  -18.1900  -42.7768 H         1 UNK         0.0600 
    154 H154       -1.6027  -17.2798  -44.4939 H         1 UNK         0.3000 
    155 H155        0.8843  -17.8306  -47.0496 H         1 UNK         0.0600 
    156 H156       -0.5079  -15.8954  -47.7443 H         1 UNK         0.0600 
    157 H157        0.9096  -15.3649  -46.8525 H         1 UNK         0.0600 
    158 H158       -0.6689  -15.3805  -46.0679 H         1 UNK         0.0600 
    159 H159        1.0530  -16.4604  -44.5589 H         1 UNK         0.3000 
    160 H160        2.0519  -19.2550  -42.5566 H         1 UNK         0.0600 
    161 H161        3.9055  -17.6391  -42.1062 H         1 UNK         0.0600 
    162 H162        3.5536  -16.8022  -43.6176 H         1 UNK         0.0600 
    163 H163        4.1195  -18.4642  -43.6425 H         1 UNK         0.0600 
    164 H164        1.5440  -16.4213  -42.1448 H         1 UNK         0.3000 
    165 H165       -1.7955  -16.8511  -40.9670 H         1 UNK         0.0600 
    166 H166       -0.8570  -15.8321  -38.9132 H         1 UNK         0.0600 
    167 H167       -0.3968  -17.5243  -39.0094 H         1 UNK         0.0600 
    168 H168        0.7786  -16.2754  -39.4031 H         1 UNK         0.0600 
    169 H169       -0.0439  -14.5909  -41.0312 H         1 UNK         0.3000 
    170 H170       -0.7769  -13.5389  -44.3510 H         1 UNK         0.0600 
    171 H171       -2.7529  -12.7964  -43.0040 H         1 UNK         0.0600 
    172 H172       -1.6893  -12.3867  -41.6627 H         1 UNK         0.0600 
    173 H173       -1.5711  -11.5116  -43.1897 H         1 UNK         0.0600 
    174 H174        0.7086  -12.1201  -42.5538 H         1 UNK         0.3000 
    175 H175        3.0246  -12.4755  -41.9629 H         1 UNK         0.0600 
    176 H176        5.2319  -13.2309  -42.8458 H         1 UNK         0.0600 
    177 H177        4.2892  -14.6054  -42.2874 H         1 UNK         0.0600 
    178 H178        4.4332  -14.2821  -44.0122 H         1 UNK         0.0600 
    179 H179        3.2018  -12.2772  -44.9413 H         1 UNK         0.3000 
    180 H180        2.0537   -8.9413  -44.9110 H         1 UNK         0.0600 
    181 H181        4.8075   -9.9528  -45.8129 H         1 UNK         0.0600 
    182 H182        4.5222   -8.5651  -44.7691 H         1 UNK         0.0600 
    183 H183        3.9727   -8.5296  -46.4372 H         1 UNK         0.0600 
    184 H184        2.8122  -10.8037  -46.9742 H         1 UNK         0.3000 
    185 H185        0.2256  -13.0139  -46.7899 H         1 UNK         0.0600 
    186 H186       -0.7624  -12.4267  -48.9577 H         1 UNK         0.0600 
    187 H187       -1.3009  -11.2678  -47.7575 H         1 UNK         0.0600 
    188 H188       -0.0433  -10.8153  -48.9027 H         1 UNK         0.0600 
    189 H189        1.7234  -12.5271  -49.0932 H         1 UNK         0.3000 
    190 H190       -1.7176  -20.7591  -47.5789 H         1 UNK         0.3000 
    191 H191       -2.8514  -21.7483  -49.9389 H         1 UNK         0.0600 
    192 H192       -4.2095  -20.3026  -47.5974 H         1 UNK         0.0600 
    193 H193       -4.8434  -20.4137  -49.2272 H         1 UNK         0.0600 
    194 H194       -3.3606  -19.5271  -48.9290 H         1 UNK         0.0600 
    195 H195       -3.4572  -22.7344  -46.5683 H         1 UNK         0.3000 
    196 H196       -5.5425  -24.6405  -47.1966 H         1 UNK         0.0600 
    197 H197       -3.8053  -24.2922  -44.6959 H         1 UNK         0.0600 
    198 H198       -5.2365  -25.3098  -44.8145 H         1 UNK         0.0600 
    199 H199       -5.3854  -23.5652  -44.9716 H         1 UNK         0.0600 
    200 H200       -2.0129  -24.8960  -46.5027 H         1 UNK         0.3000 
    201 H201       -1.7976  -27.6956  -46.6217 H         1 UNK         0.0600 
    202 H202        0.2989  -25.5491  -47.2365 H         1 UNK         0.0600 
    203 H203        0.6460  -27.2402  -46.9001 H         1 UNK         0.0600 
    204 H204       -0.0565  -26.2293  -45.6481 H         1 UNK         0.0600 
    205 H205       -1.8673  -25.3538  -49.2419 H         1 UNK         0.3000 
    206 H206       -1.1153  -27.1062  -51.3976 H         1 UNK         0.0600 
    207 H207       -0.9308  -24.6329  -51.5248 H         1 UNK         0.0600 
    208 H208       -2.0002  -25.2257  -52.7867 H         1 UNK         0.0600 
    209 H209       -2.6765  -24.4732  -51.3453 H         1 UNK         0.0600 
    210 H210       -2.6119  -28.7899  -50.1853 H         1 UNK         0.3000 
    211 H211       -4.2624  -30.2736  -50.2851 H         1 UNK         0.0600 
    212 H212       -4.6181  -29.2869  -53.1647 H         1 UNK         0.0600 
    213 H213       -5.0847  -30.8644  -52.5404 H         1 UNK         0.0600 
    214 H214       -3.3873  -30.4303  -52.6290 H         1 UNK         0.0600 
    215 H215       -5.0815  -27.6729  -49.2506 H         1 UNK         0.3000 
    216 H216       -6.7838  -26.4679  -48.5836 H         1 UNK         0.0600 
    217 H217       -7.6427  -28.6687  -47.7526 H         1 UNK         0.0600 
    218 H218       -8.9401  -27.5460  -48.1206 H         1 UNK         0.0600 
    219 H219       -8.5818  -28.8585  -49.2332 H         1 UNK         0.0600 
    220 H220       -6.0192  -26.3206  -51.4726 H         1 UNK         0.3000 
    221 H221       -8.4065  -25.6954  -52.9640 H         1 UNK         0.0600 
    222 H222       -5.4787  -25.0019  -53.5409 H         1 UNK         0.0600 
    223 H223       -6.2659  -26.5147  -53.9930 H         1 UNK         0.0600 
    224 H224       -6.8010  -24.9973  -54.6992 H         1 UNK         0.0600 
    225 H225       -6.6743  -23.9360  -50.6089 H         1 UNK         0.3000 
    226 H226       -6.7062  -21.8870  -49.7799 H         1 UNK         0.0600 
    227 H227       -9.1981  -22.0128  -49.9174 H         1 UNK         0.0600 
    228 H228       -8.6018  -20.3717  -50.1093 H         1 UNK         0.0600 
    229 H229       -9.1516  -21.2687  -51.5150 H         1 UNK         0.0600 
    230 H230       -4.8282  -22.3775  -51.5206 H         1 UNK         0.3000 
    231 H231       -4.5762  -20.5159  -53.7116 H         1 UNK         0.0600 
    232 H232       -3.5585  -22.8050  -53.6941 H         1 UNK         0.0600 
    233 H233       -2.4898  -22.3161  -52.3782 H         1 UNK         0.0600 
    234 H234       -2.3538  -21.5540  -53.9556 H         1 UNK         0.0600 
    235 H235       -5.2138  -18.8084  -51.8806 H         1 UNK         0.3000 
    236 H236       -2.9987  -17.5910  -50.4322 H         1 UNK         0.0600 
    237 H237       -4.7163  -15.8403  -49.9376 H         1 UNK         0.0600 
    238 H238       -5.8224  -16.5774  -51.0919 H         1 UNK         0.0600 
    239 H239       -5.3581  -17.4448  -49.6289 H         1 UNK         0.0600 
    240 H240       -2.3194  -15.3528  -50.8078 H         1 UNK         0.3000 
    241 H241       -1.3811  -15.0657  -53.4954 H         1 UNK         0.0600 
    242 H242       -4.5254  -12.5765  -53.4382 H         1 UNK         0.3800 
    243 H243       -4.3585  -13.8823  -52.2939 H         1 UNK         0.3800 
    244 H244        0.0752  -13.3473  -52.6644 H         1 UNK         0.0800 
    245 H245       -0.9309  -13.0377  -51.2773 H         1 UNK         0.0800 
    246 H246        1.6068  -15.6318  -52.9308 H         1 UNK         0.0800 
    247 H247        0.1754  -16.6106  -52.6866 H         1 UNK         0.0800 
@<TRIPOS>BOND
     1    1    2 1    
     2    1  127 1    
     3    1  128 1    
     4    1  129 1    
     5    2    3 2    
     6    2    4 am   BACKBONE|DICT|INTERRES
     7    4    5 1    
     8    4  130 1    
     9    5    6 1    
    10    5   65 1    
    11    5  131 1    
    12    6    7 1    
    13    6  132 1    
    14    6  133 1    
    15    7    8 1    
    16    8    9 1    
    17    8  134 1    
    18    8  135 1    
    19    9   10 ar   
    20    9   14 ar   
    21   10   11 ar   
    22   10  136 1    
    23   11   12 ar   
    24   11  126 1    
    25   12   13 ar   
    26   12  137 1    
    27   13   14 ar   
    28   13   15 1    
    29   14  138 1    
    30   15   16 1    
    31   15  139 1    
    32   15  140 1    
    33   16   17 1    
    34   17   18 1    
    35   17  141 1    
    36   17  142 1    
    37   18   19 1    
    38   18   67 1    
    39   18  143 1    
    40   19   20 am   BACKBONE|DICT|INTERRES
    41   19  144 1    
    42   20   21 2    
    43   20   22 1    
    44   22   23 1    
    45   22   24 1    
    46   22  145 1    
    47   23  146 1    
    48   23  147 1    
    49   23  148 1    
    50   24   25 am   BACKBONE|DICT|INTERRES
    51   24  149 1    
    52   25   26 2    
    53   25   27 1    
    54   27   28 1    
    55   27   29 1    
    56   27  150 1    
    57   28  151 1    
    58   28  152 1    
    59   28  153 1    
    60   29   30 am   BACKBONE|DICT|INTERRES
    61   29  154 1    
    62   30   31 2    
    63   30   32 1    
    64   32   33 1    
    65   32   34 1    
    66   32  155 1    
    67   33  156 1    
    68   33  157 1    
    69   33  158 1    
    70   34   35 am   BACKBONE|DICT|INTERRES
    71   34  159 1    
    72   35   36 2    
    73   35   37 1    
    74   37   38 1    
    75   37   39 1    
    76   37  160 1    
    77   38  161 1    
    78   38  162 1    
    79   38  163 1    
    80   39   40 am   BACKBONE|DICT|INTERRES
    81   39  164 1    
    82   40   41 2    
    83   40   42 1    
    84   42   43 1    
    85   42   44 1    
    86   42  165 1    
    87   43  166 1    
    88   43  167 1    
    89   43  168 1    
    90   44   45 am   BACKBONE|DICT|INTERRES
    91   44  169 1    
    92   45   46 2    
    93   45   47 1    
    94   47   48 1    
    95   47   49 1    
    96   47  170 1    
    97   48  171 1    
    98   48  172 1    
    99   48  173 1    
   100   49   50 am   BACKBONE|DICT|INTERRES
   101   49  174 1    
   102   50   51 2    
   103   50   52 1    
   104   52   53 1    
   105   52   54 1    
   106   52  175 1    
   107   53  176 1    
   108   53  177 1    
   109   53  178 1    
   110   54   55 am   BACKBONE|DICT|INTERRES
   111   54  179 1    
   112   55   56 2    
   113   55   57 1    
   114   57   58 1    
   115   57   59 1    
   116   57  180 1    
   117   58  181 1    
   118   58  182 1    
   119   58  183 1    
   120   59   60 am   BACKBONE|DICT|INTERRES
   121   59  184 1    
   122   60   61 2    
   123   60   62 1    
   124   62   63 1    
   125   62   64 1    
   126   62  185 1    
   127   63  186 1    
   128   63  187 1    
   129   63  188 1    
   130   64   65 am   BACKBONE|DICT|INTERRES
   131   64  189 1    
   132   65   66 2    
   133   67   68 2    
   134   67   69 am   BACKBONE|DICT|INTERRES
   135   69   70 1    
   136   69  190 1    
   137   70   71 1    
   138   70   72 1    
   139   70  191 1    
   140   71  192 1    
   141   71  193 1    
   142   71  194 1    
   143   72   73 2    
   144   72   74 am   BACKBONE|DICT|INTERRES
   145   74   75 1    
   146   74  195 1    
   147   75   76 1    
   148   75   77 1    
   149   75  196 1    
   150   76  197 1    
   151   76  198 1    
   152   76  199 1    
   153   77   78 2    
   154   77   79 am   BACKBONE|DICT|INTERRES
   155   79   80 1    
   156   79  200 1    
   157   80   81 1    
   158   80   82 1    
   159   80  201 1    
   160   81  202 1    
   161   81  203 1    
   162   81  204 1    
   163   82   83 2    
   164   82   84 am   BACKBONE|DICT|INTERRES
   165   84   85 1    
   166   84  205 1    
   167   85   86 1    
   168   85   87 1    
   169   85  206 1    
   170   86  207 1    
   171   86  208 1    
   172   86  209 1    
   173   87   88 2    
   174   87   89 am   BACKBONE|DICT|INTERRES
   175   89   90 1    
   176   89  210 1    
   177   90   91 1    
   178   90   92 1    
   179   90  211 1    
   180   91  212 1    
   181   91  213 1    
   182   91  214 1    
   183   92   93 2    
   184   92   94 am   BACKBONE|DICT|INTERRES
   185   94   95 1    
   186   94  215 1    
   187   95   96 1    
   188   95   97 1    
   189   95  216 1    
   190   96  217 1    
   191   96  218 1    
   192   96  219 1    
   193   97   98 2    
   194   97   99 am   BACKBONE|DICT|INTERRES
   195   99  100 1    
   196   99  220 1    
   197  100  101 1    
   198  100  102 1    
   199  100  221 1    
   200  101  222 1    
   201  101  223 1    
   202  101  224 1    
   203  102  103 2    
   204  102  104 am   BACKBONE|DICT|INTERRES
   205  104  105 1    
   206  104  225 1    
   207  105  106 1    
   208  105  107 1    
   209  105  226 1    
   210  106  227 1    
   211  106  228 1    
   212  106  229 1    
   213  107  108 2    
   214  107  109 am   BACKBONE|DICT|INTERRES
   215  109  110 1    
   216  109  230 1    
   217  110  111 1    
   218  110  112 1    
   219  110  231 1    
   220  111  232 1    
   221  111  233 1    
   222  111  234 1    
   223  112  113 2    
   224  112  114 am   BACKBONE|DICT|INTERRES
   225  114  115 1    
   226  114  235 1    
   227  115  116 1    
   228  115  117 1    
   229  115  236 1    
   230  116  237 1    
   231  116  238 1    
   232  116  239 1    
   233  117  118 2    
   234  117  119 am   BACKBONE|DICT|INTERRES
   235  119  120 1    
   236  119  240 1    
   237  120  121 1    
   238  120  124 1    
   239  120  241 1    
   240  121  122 am   BACKBONE|DICT|INTERRES
   241  121  123 2    
   242  122  242 1    
   243  122  243 1    
   244  124  125 1    
   245  124  244 1    
   246  124  245 1    
   247  125  126 1    
   248  126  246 1    
   249  126  247 1    
@<TRIPOS>SUBSTRUCTURE
     1 UNK         1 GROUP             0       ****    0 ROOT    
