@<TRIPOS>MOLECULE
3R540
247   249    1
SMALL
USER_CHARGES


@<TRIPOS>ATOM
      1 CA          3.5863  -19.6493  -48.1968 C.3       0 UNK        -0.1800 
      2 C           3.5918  -18.4463  -49.1293 C.2       0 UNK         0.5000 
      3 O           4.6618  -17.9451  -49.4739 O.2       0 UNK        -0.5000 
      4 N           2.3991  -17.9954  -49.5381 N.am      1 UNK        -0.5000 
      5 CA          2.1539  -16.8904  -50.4759 C.3       1 UNK         0.1400 
      6 C6          2.6943  -17.1386  -51.9163 C.3       23 UNK        -0.0398 
      7 S7          2.2554  -18.7741  -52.6113 S.3       23 UNK        -0.2404 
      8 C8          0.6938  -18.4278  -53.4910 C.3       23 UNK        -0.0205 
      9 C9         -0.4188  -17.9524  -52.5649 C.ar      23 UNK        -0.0193 
     10 C10        -1.1623  -16.8138  -52.8878 C.ar      23 UNK        -0.1150 
     11 C11        -2.1689  -16.3563  -52.0330 C.ar      23 UNK        -0.0193 
     12 C12        -2.3920  -17.0163  -50.8212 C.ar      23 UNK        -0.1150 
     13 C13        -1.6692  -18.1664  -50.4946 C.ar      23 UNK        -0.0193 
     14 C14        -0.7049  -18.6432  -51.3838 C.ar      23 UNK        -0.1150 
     15 C15        -1.9232  -18.8957  -49.1863 C.3       23 UNK        -0.0205 
     16 S16        -0.5152  -18.7170  -48.0523 S.3       23 UNK        -0.2404 
     17 C17        -1.1394  -19.5990  -46.5892 C.3       23 UNK        -0.0398 
     18 CA         -0.5173  -21.0114  -46.4185 C.3       11 UNK         0.1400 
     19 N           0.0309  -21.1883  -45.0673 N.am      11 UNK        -0.5000 
     20 C           0.7537  -22.2326  -44.6390 C.2       10 UNK         0.5000 
     21 O           1.0457  -23.1930  -45.3494 O.2       10 UNK        -0.5000 
     22 CA          1.1630  -22.2312  -43.1568 C.3       10 UNK         0.1400 
     23 CB          2.5708  -21.6412  -42.9915 C.3       10 UNK        -0.1800 
     24 N           0.2272  -21.4730  -42.3280 N.am      10 UNK        -0.5000 
     25 C          -1.0310  -21.8311  -42.0377 C.2       9 UNK         0.5000 
     26 O          -1.5321  -22.8921  -42.4120 O.2       9 UNK        -0.5000 
     27 CA         -1.8840  -20.8072  -41.2555 C.3       9 UNK         0.1400 
     28 CB         -2.8462  -21.4760  -40.2529 C.3       9 UNK        -0.1800 
     29 N          -1.0918  -19.7451  -40.6212 N.am      9 UNK        -0.5000 
     30 C          -0.2181  -19.8566  -39.6087 C.2       8 UNK         0.5000 
     31 O          -0.0163  -20.8998  -38.9868 O.2       8 UNK        -0.5000 
     32 CA          0.6118  -18.6046  -39.2563 C.3       8 UNK         0.1400 
     33 CB          2.0683  -18.7979  -39.7085 C.3       8 UNK        -0.1800 
     34 N           0.0973  -17.3683  -39.8512 N.am      8 UNK        -0.5000 
     35 C          -0.9903  -16.7105  -39.4267 C.2       7 UNK         0.5000 
     36 O          -1.6594  -17.0540  -38.4516 O.2       7 UNK        -0.5000 
     37 CA         -1.4206  -15.4806  -40.2489 C.3       7 UNK         0.1400 
     38 CB         -0.6283  -14.2367  -39.8191 C.3       7 UNK        -0.1800 
     39 N          -1.2771  -15.6757  -41.6940 N.am      7 UNK        -0.5000 
     40 C          -1.9654  -16.5700  -42.4183 C.2       6 UNK         0.5000 
     41 O          -2.8146  -17.3257  -41.9465 O.2       6 UNK        -0.5000 
     42 CA         -1.6044  -16.6826  -43.9102 C.3       6 UNK         0.1400 
     43 CB         -2.2381  -15.5516  -44.7327 C.3       6 UNK        -0.1800 
     44 N          -0.1580  -16.7012  -44.1258 N.am      6 UNK        -0.5000 
     45 C           0.6542  -17.6867  -43.7208 C.2       5 UNK         0.5000 
     46 O           0.2561  -18.7332  -43.2099 O.2       5 UNK        -0.5000 
     47 CA          2.1632  -17.4656  -43.9018 C.3       5 UNK         0.1400 
     48 CB          2.6117  -17.9214  -45.2974 C.3       5 UNK        -0.1800 
     49 N           2.5465  -16.0717  -43.6783 N.am      5 UNK        -0.5000 
     50 C           2.5226  -15.4702  -42.4796 C.2       4 UNK         0.5000 
     51 O           2.2027  -16.0390  -41.4366 O.2       4 UNK        -0.5000 
     52 CA          2.8655  -13.9699  -42.4507 C.3       4 UNK         0.1400 
     53 CB          4.3870  -13.7608  -42.4429 C.3       4 UNK        -0.1800 
     54 N           2.2803  -13.2433  -43.5777 N.am      4 UNK        -0.5000 
     55 C           0.9641  -13.0776  -43.7718 C.2       3 UNK         0.5000 
     56 O           0.1031  -13.4752  -42.9882 O.2       3 UNK        -0.5000 
     57 CA          0.5389  -12.4035  -45.0899 C.3       3 UNK         0.1400 
     58 CB          0.4773  -10.8784  -44.9209 C.3       3 UNK        -0.1800 
     59 N           1.4187  -12.7347  -46.2153 N.am      3 UNK        -0.5000 
     60 C           1.5885  -13.9687  -46.7071 C.2       2 UNK         0.5000 
     61 O           1.0208  -14.9693  -46.2604 O.2       2 UNK        -0.5000 
     62 CA          2.6039  -14.1141  -47.8461 C.3       2 UNK         0.1400 
     63 CB          4.0354  -14.2059  -47.2881 C.3       2 UNK        -0.1800 
     64 N           2.2972  -15.3220  -48.6014 N.am      2 UNK        -0.5000 
     65 C           2.5904  -15.5295  -49.8905 C.2       1 UNK         0.5000 
     66 O           3.1737  -14.7039  -50.5962 O.2       1 UNK        -0.5000 
     67 C          -1.5198  -22.1156  -46.8342 C.2       11 UNK         0.5000 
     68 O          -1.7586  -22.2933  -48.0273 O.2       11 UNK        -0.5000 
     69 N          -2.0849  -22.8384  -45.8564 N.am      12 UNK        -0.5000 
     70 CA         -2.9670  -23.9863  -46.0710 C.3       12 UNK         0.1400 
     71 CB         -3.9620  -24.0657  -44.9027 C.3       12 UNK        -0.1800 
     72 C          -2.2082  -25.3180  -46.2394 C.2       12 UNK         0.5000 
     73 O          -2.8294  -26.3104  -46.6217 O.2       12 UNK        -0.5000 
     74 N          -0.9012  -25.3305  -45.9456 N.am      13 UNK        -0.5000 
     75 CA         -0.0156  -26.4811  -46.1241 C.3       13 UNK         0.1400 
     76 CB          0.7799  -26.7131  -44.8292 C.3       13 UNK        -0.1800 
     77 C           0.9337  -26.2515  -47.3105 C.2       13 UNK         0.5000 
     78 O           1.1396  -27.1624  -48.1130 O.2       13 UNK        -0.5000 
     79 N           1.4870  -25.0351  -47.4066 N.am      14 UNK        -0.5000 
     80 CA          2.4117  -24.6091  -48.4568 C.3       14 UNK         0.1400 
     81 CB          3.1638  -23.3626  -47.9652 C.3       14 UNK        -0.1800 
     82 C           1.7223  -24.3178  -49.8036 C.2       14 UNK         0.5000 
     83 O           2.3998  -24.2951  -50.8321 O.2       14 UNK        -0.5000 
     84 N           0.4050  -24.0914  -49.7801 N.am      15 UNK        -0.5000 
     85 CA         -0.4280  -23.7887  -50.9372 C.3       15 UNK         0.1400 
     86 CB         -0.3653  -22.2784  -51.2339 C.3       15 UNK        -0.1800 
     87 C          -1.8606  -24.2875  -50.6798 C.2       15 UNK         0.5000 
     88 O          -2.1095  -24.9742  -49.6868 O.2       15 UNK        -0.5000 
     89 N          -2.7841  -23.9392  -51.5835 N.am      16 UNK        -0.5000 
     90 CA         -4.1822  -24.3818  -51.5910 C.3       16 UNK         0.1400 
     91 CB         -4.6935  -24.3527  -53.0441 C.3       16 UNK        -0.1800 
     92 C          -5.1130  -23.5894  -50.6428 C.2       16 UNK         0.5000 
     93 O          -6.3231  -23.5800  -50.8722 O.2       16 UNK        -0.5000 
     94 N          -4.5545  -22.9475  -49.6035 N.am      17 UNK        -0.5000 
     95 CA         -5.2469  -22.1115  -48.6132 C.3       17 UNK         0.1400 
     96 CB         -6.2569  -22.9385  -47.7857 C.3       17 UNK        -0.1800 
     97 C          -5.8730  -20.8549  -49.2518 C.2       17 UNK         0.5000 
     98 O          -7.0467  -20.5570  -49.0222 O.2       17 UNK        -0.5000 
     99 N          -5.0552  -20.1478  -50.0445 N.am      18 UNK        -0.5000 
    100 CA        -5.4004  -18.9655  -50.8384 C.3       18 UNK         0.1400 
    101 CB        -5.8870  -17.8016  -49.9429 C.3       18 UNK        -0.1800 
    102 C         -6.3445  -19.3271  -52.0015 C.2       18 UNK         0.5000 
    103 O         -6.1547  -20.3798  -52.6168 O.2       18 UNK        -0.5000 
    104 N         -7.3050  -18.4432  -52.3107 N.am      19 UNK        -0.5000 
    105 CA        -8.2949  -18.5516  -53.3861 C.3       19 UNK         0.1400 
    106 CB        -9.3430  -19.6341  -53.0427 C.3       19 UNK        -0.1800 
    107 C         -7.6173  -18.7468  -54.7574 C.2       19 UNK         0.5000 
    108 O         -7.0367  -17.7956  -55.2817 O.2       19 UNK        -0.5000 
    109 N         -7.6591  -19.9767  -55.2876 N.am      20 UNK        -0.5000 
    110 CA        -7.0158  -20.3908  -56.5350 C.3       20 UNK         0.1400 
    111 CB        -7.3971  -21.8486  -56.8330 C.3       20 UNK        -0.1800 
    112 C         -5.4830  -20.2263  -56.5341 C.2       20 UNK         0.5000 
    113 O         -4.9079  -19.9839  -57.5965 O.2       20 UNK        -0.5000 
    114 N         -4.8488  -20.3168  -55.3535 N.am      21 UNK        -0.5000 
    115 CA        -3.4083  -20.1037  -55.1777 C.3       21 UNK         0.1400 
    116 CB        -2.9918  -20.5065  -53.7557 C.3       21 UNK        -0.1800 
    117 C         -2.9651  -18.6572  -55.4708 C.2       21 UNK         0.5000 
    118 O         -1.8112  -18.4467  -55.8453 O.2       21 UNK        -0.5000 
    119 N         -3.8865  -17.6967  -55.3187 N.am      22 UNK        -0.5000 
    120 CA        -3.6664  -16.2756  -55.6207 C.3       22 UNK         0.1400 
    121 C         -3.7380  -15.9301  -57.1387 C.2       22 UNK         0.5000 
    122 N         -4.0783  -16.8580  -58.0273 N.am      22 UNK        -0.7600 
    123 O         -3.4687  -14.7949  -57.5217 O.2       22 UNK        -0.5000 
    124 C124       -4.5936  -15.3441  -54.7953 C.3       23 UNK        -0.0398 
    125 S125       -4.6644  -15.7046  -53.0046 S.3       23 UNK        -0.2404 
    126 C126       -3.0288  -15.1603  -52.4122 C.3       23 UNK        -0.0205 
    127 H127        2.5792  -19.9011  -47.8638 H         1 UNK         0.0600 
    128 H128        4.1975  -19.4495  -47.3172 H         1 UNK         0.0600 
    129 H129        4.0031  -20.5154  -48.7099 H         1 UNK         0.0600 
    130 H130        1.5618  -18.4507  -49.1990 H         1 UNK         0.3000 
    131 H131        1.0712  -16.8064  -50.5467 H         1 UNK         0.0600 
    132 H132        2.3345  -16.3630  -52.5943 H         1 UNK         0.0800 
    133 H133        3.7827  -17.0636  -51.9263 H         1 UNK         0.0800 
    134 H134        0.8849  -17.6958  -54.2772 H         1 UNK         0.0800 
    135 H135        0.3632  -19.3377  -53.9929 H         1 UNK         0.0800 
    136 H136       -0.9613  -16.2905  -53.8110 H         1 UNK         0.1150 
    137 H137       -3.1503  -16.6464  -50.1461 H         1 UNK         0.1150 
    138 H138       -0.1353  -19.5242  -51.1296 H         1 UNK         0.1150 
    139 H139       -2.8246  -18.5141  -48.7047 H         1 UNK         0.0800 
    140 H140       -2.0964  -19.9528  -49.3864 H         1 UNK         0.0800 
    141 H141       -2.2312  -19.6158  -46.5933 H         1 UNK         0.0800 
    142 H142       -0.8788  -18.9664  -45.7456 H         1 UNK         0.0800 
    143 H143        0.3335  -21.1118  -47.0958 H         1 UNK         0.0600 
    144 H144       -0.1377  -20.4389  -44.4061 H         1 UNK         0.3000 
    145 H145        1.1739  -23.2665  -42.8099 H         1 UNK         0.0600 
    146 H146        2.8924  -21.6751  -41.9503 H         1 UNK         0.0600 
    147 H147        3.3006  -22.2031  -43.5760 H         1 UNK         0.0600 
    148 H148        2.6144  -20.6031  -43.3219 H         1 UNK         0.0600 
    149 H149        0.5099  -20.5359  -42.0713 H         1 UNK         0.3000 
    150 H150       -2.4962  -20.3032  -42.0046 H         1 UNK         0.0600 
    151 H151       -3.5504  -22.1314  -40.7668 H         1 UNK         0.0600 
    152 H152       -3.4320  -20.7321  -39.7130 H         1 UNK         0.0600 
    153 H153       -2.3149  -22.0837  -39.5204 H         1 UNK         0.0600 
    154 H154       -1.1655  -18.8396  -41.0665 H         1 UNK         0.3000 
    155 H155        0.6016  -18.4987  -38.1696 H         1 UNK         0.0600 
    156 H156        2.1419  -18.8991  -40.7920 H         1 UNK         0.0600 
    157 H157        2.5041  -19.6938  -39.2645 H         1 UNK         0.0600 
    158 H158        2.6894  -17.9538  -39.4084 H         1 UNK         0.0600 
    159 H159        0.6393  -16.9742  -40.6143 H         1 UNK         0.3000 
    160 H160       -2.4770  -15.2979  -40.0418 H         1 UNK         0.0600 
    161 H161        0.4354  -14.3430  -40.0339 H         1 UNK         0.0600 
    162 H162       -0.7320  -14.0569  -38.7484 H         1 UNK         0.0600 
    163 H163       -0.9853  -13.3451  -40.3348 H         1 UNK         0.0600 
    164 H164       -0.6296  -15.0547  -42.1717 H         1 UNK         0.3000 
    165 H165       -2.0159  -17.6260  -44.2721 H         1 UNK         0.0600 
    166 H166       -2.0005  -15.6554  -45.7919 H         1 UNK         0.0600 
    167 H167       -3.3245  -15.5644  -44.6387 H         1 UNK         0.0600 
    168 H168       -1.8936  -14.5707  -44.4073 H         1 UNK         0.0600 
    169 H169        0.2463  -15.9090  -44.6132 H         1 UNK         0.3000 
    170 H170        2.6800  -18.0811  -43.1628 H         1 UNK         0.0600 
    171 H171        2.3841  -18.9774  -45.4490 H         1 UNK         0.0600 
    172 H172        2.1121  -17.3658  -46.0908 H         1 UNK         0.0600 
    173 H173        3.6869  -17.7976  -45.4263 H         1 UNK         0.0600 
    174 H174        2.7627  -15.5220  -44.4959 H         1 UNK         0.3000 
    175 H175        2.4574  -13.5520  -41.5280 H         1 UNK         0.0600 
    176 H176        4.8518  -14.1342  -43.3564 H         1 UNK         0.0600 
    177 H177        4.6389  -12.7047  -42.3454 H         1 UNK         0.0600 
    178 H178        4.8476  -14.2825  -41.6029 H         1 UNK         0.0600 
    179 H179        2.9184  -12.8788  -44.2691 H         1 UNK         0.3000 
    180 H180       -0.4637  -12.7602  -45.3340 H         1 UNK         0.0600 
    181 H181        1.4591  -10.4563  -44.7026 H         1 UNK         0.0600 
    182 H182       -0.1880  -10.6035  -44.1012 H         1 UNK         0.0600 
    183 H183        0.0966  -10.3967  -45.8217 H         1 UNK         0.0600 
    184 H184        1.9259  -11.9660  -46.6301 H         1 UNK         0.3000 
    185 H185        2.5160  -13.2421  -48.4977 H         1 UNK         0.0600 
    186 H186        4.1581  -15.0740  -46.6390 H         1 UNK         0.0600 
    187 H187        4.7671  -14.2873  -48.0921 H         1 UNK         0.0600 
    188 H188        4.2918  -13.3191  -46.7073 H         1 UNK         0.0600 
    189 H189        1.7705  -16.0160  -48.0861 H         1 UNK         0.3000 
    190 H190       -1.8423  -22.6357  -44.8961 H         1 UNK         0.3000 
    191 H191       -3.5314  -23.8367  -46.9908 H         1 UNK         0.0600 
    192 H192       -4.5425  -23.1470  -44.8165 H         1 UNK         0.0600 
    193 H193       -4.6698  -24.8832  -45.0452 H         1 UNK         0.0600 
    194 H194       -3.4537  -24.2332  -43.9524 H         1 UNK         0.0600 
    195 H195       -0.4578  -24.4695  -45.6489 H         1 UNK         0.3000 
    196 H196       -0.5919  -27.3854  -46.3301 H         1 UNK         0.0600 
    197 H197        1.4503  -27.5673  -44.9312 H         1 UNK         0.0600 
    198 H198        0.1133  -26.9207  -43.9921 H         1 UNK         0.0600 
    199 H199        1.3883  -25.8476  -44.5639 H         1 UNK         0.0600 
    200 H200        1.3026  -24.3522  -46.6746 H         1 UNK         0.3000 
    201 H201        3.1396  -25.4059  -48.6229 H         1 UNK         0.0600 
    202 H202        3.6977  -23.5634  -47.0361 H         1 UNK         0.0600 
    203 H203        2.4829  -22.5298  -47.7857 H         1 UNK         0.0600 
    204 H204        3.9006  -23.0354  -48.6996 H         1 UNK         0.0600 
    205 H205       -0.1036  -24.1895  -48.9110 H         1 UNK         0.3000 
    206 H206       -0.0523  -24.3385  -51.8025 H         1 UNK         0.0600 
    207 H207        0.6629  -21.9445  -51.3754 H         1 UNK         0.0600 
    208 H208       -0.9065  -22.0251  -52.1443 H         1 UNK         0.0600 
    209 H209       -0.7927  -21.6963  -50.4186 H         1 UNK         0.0600 
    210 H210       -2.5033  -23.3595  -52.3598 H         1 UNK         0.3000 
    211 H211       -4.2121  -25.4205  -51.2551 H         1 UNK         0.0600 
    212 H212       -4.7929  -23.3329  -53.4170 H         1 UNK         0.0600 
    213 H213       -5.6740  -24.8235  -53.1245 H         1 UNK         0.0600 
    214 H214       -4.0244  -24.8942  -53.7131 H         1 UNK         0.0600 
    215 H215       -3.5543  -23.0405  -49.4739 H         1 UNK         0.3000 
    216 H216       -4.4810  -21.7515  -47.9255 H         1 UNK         0.0600 
    217 H217       -6.6181  -22.3643  -46.9318 H         1 UNK         0.0600 
    218 H218       -5.8097  -23.8523  -47.3971 H         1 UNK         0.0600 
    219 H219       -7.1289  -23.2250  -48.3742 H         1 UNK         0.0600 
    220 H220       -4.1400  -20.5327  -50.2219 H         1 UNK         0.3000 
    221 H221       -4.4762  -18.6436  -51.3134 H         1 UNK         0.0600 
    222 H222       -6.8806  -17.9837  -49.5326 H         1 UNK         0.0600 
    223 H223       -5.2094  -17.6431  -49.1042 H         1 UNK         0.0600 
    224 H224       -5.9267  -16.8645  -50.4981 H         1 UNK         0.0600 
    225 H225       -7.3447  -17.5885  -51.7739 H         1 UNK         0.3000 
    226 H226       -8.8135  -17.5930  -53.4345 H         1 UNK         0.0600 
    227 H227       -9.8704  -19.3818  -52.1227 H         1 UNK         0.0600 
    228 H228      -10.0942  -19.7184  -53.8292 H         1 UNK         0.0600 
    229 H229       -8.8952  -20.6183  -52.9007 H         1 UNK         0.0600 
    230 H230       -8.1183  -20.7029  -54.7574 H         1 UNK         0.3000 
    231 H231       -7.4114  -19.7614  -57.3348 H         1 UNK         0.0600 
    232 H232       -7.0514  -22.5227  -56.0479 H         1 UNK         0.0600 
    233 H233       -6.9553  -22.1843  -57.7722 H         1 UNK         0.0600 
    234 H234       -8.4773  -21.9640  -56.9243 H         1 UNK         0.0600 
    235 H235       -5.3934  -20.4853  -54.5130 H         1 UNK         0.3000 
    236 H236       -2.8874  -20.7567  -55.8810 H         1 UNK         0.0600 
    237 H237       -3.2900  -21.5274  -53.5251 H         1 UNK         0.0600 
    238 H238       -1.9093  -20.4475  -53.6427 H         1 UNK         0.0600 
    239 H239       -3.4292  -19.8477  -53.0074 H         1 UNK         0.0600 
    240 H240       -4.8295  -17.9479  -55.0510 H         1 UNK         0.3000 
    241 H241       -2.6444  -16.0355  -55.3286 H         1 UNK         0.0600 
    242 H242       -4.2920  -17.8027  -57.7375 H         1 UNK         0.3800 
    243 H243       -4.1141  -16.6163  -59.0050 H         1 UNK         0.3800 
    244 H244       -5.6148  -15.4110  -55.1743 H         1 UNK         0.0800 
    245 H245       -4.2970  -14.3015  -54.9222 H         1 UNK         0.0800 
    246 H246       -3.1648  -14.5208  -51.5389 H         1 UNK         0.0800 
    247 H247       -2.5319  -14.5465  -53.1647 H         1 UNK         0.0800 
@<TRIPOS>BOND
     1    1    2 1    
     2    1  127 1    
     3    1  128 1    
     4    1  129 1    
     5    2    3 2    
     6    2    4 am   BACKBONE|DICT|INTERRES
     7    4    5 1    
     8    4  130 1    
     9    5    6 1    
    10    5   65 1    
    11    5  131 1    
    12    6    7 1    
    13    6  132 1    
    14    6  133 1    
    15    7    8 1    
    16    8    9 1    
    17    8  134 1    
    18    8  135 1    
    19    9   10 ar   
    20    9   14 ar   
    21   10   11 ar   
    22   10  136 1    
    23   11   12 ar   
    24   11  126 1    
    25   12   13 ar   
    26   12  137 1    
    27   13   14 ar   
    28   13   15 1    
    29   14  138 1    
    30   15   16 1    
    31   15  139 1    
    32   15  140 1    
    33   16   17 1    
    34   17   18 1    
    35   17  141 1    
    36   17  142 1    
    37   18   19 1    
    38   18   67 1    
    39   18  143 1    
    40   19   20 am   BACKBONE|DICT|INTERRES
    41   19  144 1    
    42   20   21 2    
    43   20   22 1    
    44   22   23 1    
    45   22   24 1    
    46   22  145 1    
    47   23  146 1    
    48   23  147 1    
    49   23  148 1    
    50   24   25 am   BACKBONE|DICT|INTERRES
    51   24  149 1    
    52   25   26 2    
    53   25   27 1    
    54   27   28 1    
    55   27   29 1    
    56   27  150 1    
    57   28  151 1    
    58   28  152 1    
    59   28  153 1    
    60   29   30 am   BACKBONE|DICT|INTERRES
    61   29  154 1    
    62   30   31 2    
    63   30   32 1    
    64   32   33 1    
    65   32   34 1    
    66   32  155 1    
    67   33  156 1    
    68   33  157 1    
    69   33  158 1    
    70   34   35 am   BACKBONE|DICT|INTERRES
    71   34  159 1    
    72   35   36 2    
    73   35   37 1    
    74   37   38 1    
    75   37   39 1    
    76   37  160 1    
    77   38  161 1    
    78   38  162 1    
    79   38  163 1    
    80   39   40 am   BACKBONE|DICT|INTERRES
    81   39  164 1    
    82   40   41 2    
    83   40   42 1    
    84   42   43 1    
    85   42   44 1    
    86   42  165 1    
    87   43  166 1    
    88   43  167 1    
    89   43  168 1    
    90   44   45 am   BACKBONE|DICT|INTERRES
    91   44  169 1    
    92   45   46 2    
    93   45   47 1    
    94   47   48 1    
    95   47   49 1    
    96   47  170 1    
    97   48  171 1    
    98   48  172 1    
    99   48  173 1    
   100   49   50 am   BACKBONE|DICT|INTERRES
   101   49  174 1    
   102   50   51 2    
   103   50   52 1    
   104   52   53 1    
   105   52   54 1    
   106   52  175 1    
   107   53  176 1    
   108   53  177 1    
   109   53  178 1    
   110   54   55 am   BACKBONE|DICT|INTERRES
   111   54  179 1    
   112   55   56 2    
   113   55   57 1    
   114   57   58 1    
   115   57   59 1    
   116   57  180 1    
   117   58  181 1    
   118   58  182 1    
   119   58  183 1    
   120   59   60 am   BACKBONE|DICT|INTERRES
   121   59  184 1    
   122   60   61 2    
   123   60   62 1    
   124   62   63 1    
   125   62   64 1    
   126   62  185 1    
   127   63  186 1    
   128   63  187 1    
   129   63  188 1    
   130   64   65 am   BACKBONE|DICT|INTERRES
   131   64  189 1    
   132   65   66 2    
   133   67   68 2    
   134   67   69 am   BACKBONE|DICT|INTERRES
   135   69   70 1    
   136   69  190 1    
   137   70   71 1    
   138   70   72 1    
   139   70  191 1    
   140   71  192 1    
   141   71  193 1    
   142   71  194 1    
   143   72   73 2    
   144   72   74 am   BACKBONE|DICT|INTERRES
   145   74   75 1    
   146   74  195 1    
   147   75   76 1    
   148   75   77 1    
   149   75  196 1    
   150   76  197 1    
   151   76  198 1    
   152   76  199 1    
   153   77   78 2    
   154   77   79 am   BACKBONE|DICT|INTERRES
   155   79   80 1    
   156   79  200 1    
   157   80   81 1    
   158   80   82 1    
   159   80  201 1    
   160   81  202 1    
   161   81  203 1    
   162   81  204 1    
   163   82   83 2    
   164   82   84 am   BACKBONE|DICT|INTERRES
   165   84   85 1    
   166   84  205 1    
   167   85   86 1    
   168   85   87 1    
   169   85  206 1    
   170   86  207 1    
   171   86  208 1    
   172   86  209 1    
   173   87   88 2    
   174   87   89 am   BACKBONE|DICT|INTERRES
   175   89   90 1    
   176   89  210 1    
   177   90   91 1    
   178   90   92 1    
   179   90  211 1    
   180   91  212 1    
   181   91  213 1    
   182   91  214 1    
   183   92   93 2    
   184   92   94 am   BACKBONE|DICT|INTERRES
   185   94   95 1    
   186   94  215 1    
   187   95   96 1    
   188   95   97 1    
   189   95  216 1    
   190   96  217 1    
   191   96  218 1    
   192   96  219 1    
   193   97   98 2    
   194   97   99 am   BACKBONE|DICT|INTERRES
   195   99  100 1    
   196   99  220 1    
   197  100  101 1    
   198  100  102 1    
   199  100  221 1    
   200  101  222 1    
   201  101  223 1    
   202  101  224 1    
   203  102  103 2    
   204  102  104 am   BACKBONE|DICT|INTERRES
   205  104  105 1    
   206  104  225 1    
   207  105  106 1    
   208  105  107 1    
   209  105  226 1    
   210  106  227 1    
   211  106  228 1    
   212  106  229 1    
   213  107  108 2    
   214  107  109 am   BACKBONE|DICT|INTERRES
   215  109  110 1    
   216  109  230 1    
   217  110  111 1    
   218  110  112 1    
   219  110  231 1    
   220  111  232 1    
   221  111  233 1    
   222  111  234 1    
   223  112  113 2    
   224  112  114 am   BACKBONE|DICT|INTERRES
   225  114  115 1    
   226  114  235 1    
   227  115  116 1    
   228  115  117 1    
   229  115  236 1    
   230  116  237 1    
   231  116  238 1    
   232  116  239 1    
   233  117  118 2    
   234  117  119 am   BACKBONE|DICT|INTERRES
   235  119  120 1    
   236  119  240 1    
   237  120  121 1    
   238  120  124 1    
   239  120  241 1    
   240  121  122 am   BACKBONE|DICT|INTERRES
   241  121  123 2    
   242  122  242 1    
   243  122  243 1    
   244  124  125 1    
   245  124  244 1    
   246  124  245 1    
   247  125  126 1    
   248  126  246 1    
   249  126  247 1    
@<TRIPOS>SUBSTRUCTURE
     1 UNK         1 GROUP             0       ****    0 ROOT    
