@<TRIPOS>MOLECULE
3R540
247   249    1
SMALL
USER_CHARGES


@<TRIPOS>ATOM
      1 CA          2.7347  -18.6177  -46.3291 C.3       0 UNK        -0.1800 
      2 C           2.2133  -17.1988  -46.4791 C.2       0 UNK         0.5000 
      3 O           1.1420  -16.8804  -45.9673 O.2       0 UNK        -0.5000 
      4 N           2.9789  -16.3446  -47.1681 N.am      1 UNK        -0.5000 
      5 CA          2.6949  -14.9107  -47.3259 C.3       1 UNK         0.1400 
      6 C6          3.1997  -14.3704  -48.6874 C.3       23 UNK        -0.0398 
      7 S7          2.2323  -15.0473  -50.0758 S.3       23 UNK        -0.2404 
      8 C8          3.3168  -16.3551  -50.7264 C.3       23 UNK        -0.0205 
      9 C9          2.4878  -17.5472  -51.1749 C.ar      23 UNK        -0.0193 
     10 C10         1.6792  -17.4524  -52.3098 C.ar      23 UNK        -0.1150 
     11 C11         0.8476  -18.5146  -52.6922 C.ar      23 UNK        -0.0193 
     12 C12         0.8716  -19.6926  -51.9364 C.ar      23 UNK        -0.1150 
     13 C13         1.7005  -19.8118  -50.8174 C.ar      23 UNK        -0.0193 
     14 C14         2.5036  -18.7336  -50.4404 C.ar      23 UNK        -0.1150 
     15 C15         1.7540  -21.1060  -50.0219 C.3       23 UNK        -0.0205 
     16 S16         0.9863  -20.9281  -48.3811 S.3       23 UNK        -0.2404 
     17 C17         1.9402  -22.1853  -47.4566 C.3       23 UNK        -0.0398 
     18 CA          1.2511  -22.7711  -46.1999 C.3       11 UNK         0.1400 
     19 N           1.0771  -21.8013  -45.1146 N.am      11 UNK        -0.5000 
     20 C           1.8366  -21.7669  -44.0090 C.2       10 UNK         0.5000 
     21 O           2.8662  -22.4287  -43.8703 O.2       10 UNK        -0.5000 
     22 CA          1.3639  -20.8836  -42.8314 C.3       10 UNK         0.1400 
     23 CB          2.1162  -19.5438  -42.8072 C.3       10 UNK        -0.1800 
     24 N          -0.0731  -20.6113  -42.8179 N.am      10 UNK        -0.5000 
     25 C          -1.0529  -21.5250  -42.7839 C.2       9 UNK         0.5000 
     26 O          -0.8617  -22.7328  -42.6453 O.2       9 UNK        -0.5000 
     27 CA         -2.4903  -21.0114  -43.0053 C.3       9 UNK         0.1400 
     28 CB         -3.2251  -20.8982  -41.6615 C.3       9 UNK        -0.1800 
     29 N          -2.6054  -19.7283  -43.7176 N.am      9 UNK        -0.5000 
     30 C          -2.0408  -19.3929  -44.8887 C.2       8 UNK         0.5000 
     31 O          -1.2893  -20.1418  -45.5199 O.2       8 UNK        -0.5000 
     32 CA         -2.3441  -17.9713  -45.3996 C.3       8 UNK         0.1400 
     33 CB         -1.9249  -16.9108  -44.3692 C.3       8 UNK        -0.1800 
     34 N          -1.6462  -17.6804  -46.6472 N.am      8 UNK        -0.5000 
     35 C          -2.0478  -18.0620  -47.8649 C.2       7 UNK         0.5000 
     36 O          -3.0833  -18.6979  -48.0834 O.2       7 UNK        -0.5000 
     37 CA         -1.1544  -17.5988  -49.0349 C.3       7 UNK         0.1400 
     38 CB         -1.7660  -17.9252  -50.4075 C.3       7 UNK        -0.1800 
     39 N          -0.8103  -16.1730  -48.9675 N.am      7 UNK        -0.5000 
     40 C          -1.6617  -15.1402  -48.8822 C.2       6 UNK         0.5000 
     41 O          -2.8898  -15.2463  -48.8579 O.2       6 UNK        -0.5000 
     42 CA         -1.0328  -13.7369  -48.8425 C.3       6 UNK         0.1400 
     43 CB         -1.2042  -13.0230  -50.1907 C.3       6 UNK        -0.1800 
     44 N          -1.6322  -12.9288  -47.7835 N.am      6 UNK        -0.5000 
     45 C          -1.3717  -13.0964  -46.4819 C.2       5 UNK         0.5000 
     46 O          -0.5509  -13.9062  -46.0469 O.2       5 UNK        -0.5000 
     47 CA         -2.1846  -12.2306  -45.5054 C.3       5 UNK         0.1400 
     48 CB         -3.4782  -12.9482  -45.0899 C.3       5 UNK        -0.1800 
     49 N          -1.4042  -11.9351  -44.3078 N.am      5 UNK        -0.5000 
     50 C          -0.4714  -10.9830  -44.2153 C.2       4 UNK         0.5000 
     51 O          -0.2296  -10.1764  -45.1145 O.2       4 UNK        -0.5000 
     52 CA          0.3228  -10.9071  -42.8965 C.3       4 UNK         0.1400 
     53 CB         -0.5584  -10.4091  -41.7343 C.3       4 UNK        -0.1800 
     54 N           1.0328  -12.1420  -42.5403 N.am      4 UNK        -0.5000 
     55 C           0.5460  -13.3484  -42.2171 C.2       3 UNK         0.5000 
     56 O          -0.6569  -13.6147  -42.1744 O.2       3 UNK        -0.5000 
     57 CA          1.5953  -14.4319  -41.8824 C.3       3 UNK         0.1400 
     58 CB          0.9801  -15.8253  -41.6678 C.3       3 UNK        -0.1800 
     59 N           2.6376  -14.5351  -42.9062 N.am      3 UNK        -0.5000 
     60 C           3.7197  -13.7509  -42.9994 C.2       2 UNK         0.5000 
     61 O           3.9381  -12.8068  -42.2394 O.2       2 UNK        -0.5000 
     62 CA          4.7135  -14.0545  -44.1366 C.3       2 UNK         0.1400 
     63 CB          5.8496  -14.9543  -43.6270 C.3       2 UNK        -0.1800 
     64 N           4.0895  -14.6903  -45.2985 N.am      2 UNK        -0.5000 
     65 C           3.2597  -14.0755  -46.1550 C.2       1 UNK         0.5000 
     66 O           2.9436  -12.8899  -46.0516 O.2       1 UNK        -0.5000 
     67 C          -0.0669  -23.4921  -46.5330 C.2       11 UNK         0.5000 
     68 O          -0.0250  -24.6795  -46.8567 O.2       11 UNK        -0.5000 
     69 N          -1.2123  -22.8001  -46.4272 N.am      12 UNK        -0.5000 
     70 CA         -2.5372  -23.2863  -46.8287 C.3       12 UNK         0.1400 
     71 CB         -3.5464  -22.1343  -46.7491 C.3       12 UNK        -0.1800 
     72 C          -3.0544  -24.5091  -46.0475 C.2       12 UNK         0.5000 
     73 O          -3.9791  -25.1708  -46.5171 O.2       12 UNK        -0.5000 
     74 N          -2.4429  -24.8127  -44.8937 N.am      13 UNK        -0.5000 
     75 CA         -2.6706  -26.0462  -44.1386 C.3       13 UNK         0.1400 
     76 CB         -1.9641  -25.9390  -42.7793 C.3       13 UNK        -0.1800 
     77 C          -2.2087  -27.3128  -44.8919 C.2       13 UNK         0.5000 
     78 O          -2.7601  -28.3876  -44.6512 O.2       13 UNK        -0.5000 
     79 N          -1.2242  -27.1630  -45.7892 N.am      14 UNK        -0.5000 
     80 CA         -0.7297  -28.2112  -46.6793 C.3       14 UNK         0.1400 
     81 CB          0.7989  -28.3087  -46.5479 C.3       14 UNK        -0.1800 
     82 C          -1.1351  -27.9104  -48.1307 C.2       14 UNK         0.5000 
     83 O          -1.7047  -28.7731  -48.8001 O.2       14 UNK        -0.5000 
     84 N          -0.8678  -26.6803  -48.5879 N.am      15 UNK        -0.5000 
     85 CA         -1.1564  -26.1798  -49.9309 C.3       15 UNK         0.1400 
     86 CB         -0.1321  -25.0825  -50.2772 C.3       15 UNK        -0.1800 
     87 C          -2.6108  -25.6827  -50.0395 C.2       15 UNK         0.5000 
     88 O          -2.8478  -24.5315  -50.4073 O.2       15 UNK        -0.5000 
     89 N          -3.5679  -26.5593  -49.7097 N.am      16 UNK        -0.5000 
     90 CA         -5.0039  -26.2674  -49.6411 C.3       16 UNK         0.1400 
     91 CB         -5.7416  -27.5070  -49.1154 C.3       16 UNK        -0.1800 
     92 C          -5.6188  -25.7895  -50.9711 C.2       16 UNK         0.5000 
     93 O          -6.5719  -25.0113  -50.9555 O.2       16 UNK        -0.5000 
     94 N          -5.0382  -26.2251  -52.0968 N.am      17 UNK        -0.5000 
     95 CA         -5.4032  -25.7911  -53.4464 C.3       17 UNK         0.1400 
     96 CB         -4.7765  -26.7597  -54.4613 C.3       17 UNK        -0.1800 
     97 C          -4.9871  -24.3386  -53.7629 C.2       17 UNK         0.5000 
     98 O          -5.5512  -23.7433  -54.6814 O.2       17 UNK        -0.5000 
     99 N          -4.0152  -23.7980  -53.0148 N.am      18 UNK        -0.5000 
    100 CA        -3.4730  -22.4489  -53.1818 C.3       18 UNK         0.1400 
    101 CB        -1.9382  -22.5379  -53.2205 C.3       18 UNK        -0.1800 
    102 C         -3.9318  -21.4907  -52.0665 C.2       18 UNK         0.5000 
    103 O         -3.4844  -20.3440  -52.0529 O.2       18 UNK        -0.5000 
    104 N         -4.7995  -21.9583  -51.1559 N.am      19 UNK        -0.5000 
    105 CA        -5.3146  -21.2262  -49.9974 C.3       19 UNK         0.1400 
    106 CB        -6.3126  -22.1217  -49.2466 C.3       19 UNK        -0.1800 
    107 C         -5.9634  -19.8854  -50.3872 C.2       19 UNK         0.5000 
    108 O         -6.9987  -19.8838  -51.0562 O.2       19 UNK        -0.5000 
    109 N         -5.3085  -18.7812  -50.0005 N.am      20 UNK        -0.5000 
    110 CA        -5.6357  -17.3854  -50.3176 C.3       20 UNK         0.1400 
    111 CB        -6.9799  -16.9847  -49.6758 C.3       20 UNK        -0.1800 
    112 C         -5.5847  -17.0255  -51.8229 C.2       20 UNK         0.5000 
    113 O         -5.9892  -15.9192  -52.1849 O.2       20 UNK        -0.5000 
    114 N         -5.0830  -17.9271  -52.6828 N.am      21 UNK        -0.5000 
    115 CA        -5.1156  -17.7910  -54.1444 C.3       21 UNK         0.1400 
    116 CB        -4.7446  -19.1311  -54.7968 C.3       21 UNK        -0.1800 
    117 C         -4.2109  -16.6674  -54.6780 C.2       21 UNK         0.5000 
    118 O         -4.5254  -16.0699  -55.7080 O.2       21 UNK        -0.5000 
    119 N         -3.1232  -16.3911  -53.9520 N.am      22 UNK        -0.5000 
    120 CA        -2.2081  -15.2691  -54.2032 C.3       22 UNK         0.1400 
    121 C         -2.6662  -13.9324  -53.5444 C.2       22 UNK         0.5000 
    122 N         -3.8007  -13.8682  -52.8551 N.am      22 UNK        -0.7600 
    123 O         -1.9854  -12.9197  -53.6774 O.2       22 UNK        -0.5000 
    124 C124       -0.7519  -15.6350  -53.8197 C.3       23 UNK        -0.0398 
    125 S125       -0.0460  -16.9273  -54.9065 S.3       23 UNK        -0.2404 
    126 C126       -0.1249  -18.4360  -53.8740 C.3       23 UNK        -0.0205 
    127 H127        3.4405  -18.6762  -45.5012 H         1 UNK         0.0600 
    128 H128        1.9094  -19.2972  -46.1216 H         1 UNK         0.0600 
    129 H129        3.2361  -18.9567  -47.2345 H         1 UNK         0.0600 
    130 H130        3.8436  -16.6707  -47.5748 H         1 UNK         0.3000 
    131 H131        1.6153  -14.7652  -47.2910 H         1 UNK         0.0600 
    132 H132        4.2628  -14.5730  -48.8268 H         1 UNK         0.0800 
    133 H133        3.0916  -13.2851  -48.7350 H         1 UNK         0.0800 
    134 H134        3.8925  -15.9649  -51.5667 H         1 UNK         0.0800 
    135 H135        4.0401  -16.6614  -49.9699 H         1 UNK         0.0800 
    136 H136        1.6873  -16.5261  -52.8631 H         1 UNK         0.1150 
    137 H137        0.2360  -20.5201  -52.2169 H         1 UNK         0.1150 
    138 H138        3.1351  -18.8197  -49.5687 H         1 UNK         0.1150 
    139 H139        1.2614  -21.9177  -50.5597 H         1 UNK         0.0800 
    140 H140        2.7996  -21.3975  -49.9126 H         1 UNK         0.0800 
    141 H141        2.1882  -23.0019  -48.1373 H         1 UNK         0.0800 
    142 H142        2.8949  -21.7415  -47.1717 H         1 UNK         0.0800 
    143 H143        1.9054  -23.5698  -45.8438 H         1 UNK         0.0600 
    144 H144        0.2650  -21.1938  -45.1725 H         1 UNK         0.3000 
    145 H145        1.6030  -21.4253  -41.9141 H         1 UNK         0.0600 
    146 H146        1.9394  -19.0148  -41.8708 H         1 UNK         0.0600 
    147 H147        3.1934  -19.6912  -42.8964 H         1 UNK         0.0600 
    148 H148        1.8011  -18.8908  -43.6210 H         1 UNK         0.0600 
    149 H149       -0.3430  -19.6482  -42.9483 H         1 UNK         0.3000 
    150 H150       -3.0022  -21.7674  -43.6004 H         1 UNK         0.0600 
    151 H151       -3.1850  -21.8398  -41.1118 H         1 UNK         0.0600 
    152 H152       -4.2779  -20.6547  -41.8056 H         1 UNK         0.0600 
    153 H153       -2.7846  -20.1284  -41.0267 H         1 UNK         0.0600 
    154 H154       -3.1961  -19.0435  -43.2688 H         1 UNK         0.3000 
    155 H155       -3.4199  -17.8927  -45.5682 H         1 UNK         0.0600 
    156 H156       -2.0772  -15.9042  -44.7571 H         1 UNK         0.0600 
    157 H157       -0.8698  -17.0080  -44.1188 H         1 UNK         0.0600 
    158 H158       -2.4969  -16.9889  -43.4444 H         1 UNK         0.0600 
    159 H159       -0.7529  -17.2070  -46.5493 H         1 UNK         0.3000 
    160 H160       -0.2154  -18.1471  -48.9490 H         1 UNK         0.0600 
    161 H161       -2.7516  -17.4836  -50.5332 H         1 UNK         0.0600 
    162 H162       -1.8575  -19.0029  -50.5407 H         1 UNK         0.0600 
    163 H163       -1.1391  -17.5469  -51.2081 H         1 UNK         0.0600 
    164 H164        0.1804  -15.9728  -48.9924 H         1 UNK         0.3000 
    165 H165        0.0345  -13.8204  -48.6421 H         1 UNK         0.0600 
    166 H166       -2.2560  -12.8892  -50.4458 H         1 UNK         0.0600 
    167 H167       -0.7320  -12.0407  -50.1817 H         1 UNK         0.0600 
    168 H168       -0.7417  -13.5971  -50.9948 H         1 UNK         0.0600 
    169 H169       -2.3528  -12.2810  -48.0661 H         1 UNK         0.3000 
    170 H170       -2.4509  -11.2938  -45.9997 H         1 UNK         0.0600 
    171 H171       -4.0780  -13.2139  -45.9614 H         1 UNK         0.0600 
    172 H172       -3.2707  -13.8668  -44.5407 H         1 UNK         0.0600 
    173 H173       -4.0928  -12.3116  -44.4533 H         1 UNK         0.0600 
    174 H174       -1.4478  -12.6132  -43.5515 H         1 UNK         0.3000 
    175 H175        1.1035  -10.1600  -43.0488 H         1 UNK         0.0600 
    176 H176        0.0297  -10.2681  -40.8275 H         1 UNK         0.0600 
    177 H177       -1.0150   -9.4490  -41.9778 H         1 UNK         0.0600 
    178 H178       -1.3669  -11.1034  -41.5040 H         1 UNK         0.0600 
    179 H179        2.0443  -12.0662  -42.5493 H         1 UNK         0.3000 
    180 H180        2.0567  -14.1350  -40.9382 H         1 UNK         0.0600 
    181 H181        1.7336  -16.5386  -41.3341 H         1 UNK         0.0600 
    182 H182        0.1985  -15.8027  -40.9074 H         1 UNK         0.0600 
    183 H183        0.5403  -16.2102  -42.5857 H         1 UNK         0.0600 
    184 H184        2.5021  -15.2454  -43.6108 H         1 UNK         0.3000 
    185 H185        5.1476  -13.1051  -44.4572 H         1 UNK         0.0600 
    186 H186        6.6012  -15.1171  -44.3997 H         1 UNK         0.0600 
    187 H187        6.3558  -14.4992  -42.7745 H         1 UNK         0.0600 
    188 H188        5.4793  -15.9290  -43.3066 H         1 UNK         0.0600 
    189 H189        4.3029  -15.6643  -45.4528 H         1 UNK         0.3000 
    190 H190       -1.1722  -21.8163  -46.1701 H         1 UNK         0.3000 
    191 H191       -2.4613  -23.5879  -47.8742 H         1 UNK         0.0600 
    192 H192       -4.5250  -22.4485  -47.1071 H         1 UNK         0.0600 
    193 H193       -3.2256  -21.2898  -47.3576 H         1 UNK         0.0600 
    194 H194       -3.6820  -21.7801  -45.7301 H         1 UNK         0.0600 
    195 H195       -1.7053  -24.2070  -44.5613 H         1 UNK         0.3000 
    196 H196       -3.7437  -26.1417  -43.9604 H         1 UNK         0.0600 
    197 H197       -2.1162  -26.8414  -42.1858 H         1 UNK         0.0600 
    198 H198       -2.3515  -25.1010  -42.1995 H         1 UNK         0.0600 
    199 H199       -0.8887  -25.7975  -42.8949 H         1 UNK         0.0600 
    200 H200       -0.8493  -26.2333  -45.9445 H         1 UNK         0.3000 
    201 H201       -1.1535  -29.1808  -46.4102 H         1 UNK         0.0600 
    202 H202        1.0869  -28.5851  -45.5335 H         1 UNK         0.0600 
    203 H203        1.2893  -27.3642  -46.7872 H         1 UNK         0.0600 
    204 H204        1.2013  -29.0687  -47.2189 H         1 UNK         0.0600 
    205 H205       -0.4484  -26.0035  -47.9535 H         1 UNK         0.3000 
    206 H206       -1.0324  -26.9913  -50.6508 H         1 UNK         0.0600 
    207 H207        0.8894  -25.4498  -50.1781 H         1 UNK         0.0600 
    208 H208       -0.2554  -24.7446  -51.3065 H         1 UNK         0.0600 
    209 H209       -0.2376  -24.2104  -49.6304 H         1 UNK         0.0600 
    210 H210       -3.2741  -27.4827  -49.4126 H         1 UNK         0.3000 
    211 H211       -5.1387  -25.4599  -48.9196 H         1 UNK         0.0600 
    212 H212       -6.8126  -27.3183  -49.0296 H         1 UNK         0.0600 
    213 H213       -5.3820  -27.7862  -48.1246 H         1 UNK         0.0600 
    214 H214       -5.6094  -28.3645  -49.7763 H         1 UNK         0.0600 
    215 H215       -4.2613  -26.8647  -52.0179 H         1 UNK         0.3000 
    216 H216       -6.4893  -25.8497  -53.5436 H         1 UNK         0.0600 
    217 H217       -5.0523  -26.4898  -55.4816 H         1 UNK         0.0600 
    218 H218       -5.1172  -27.7818  -54.2943 H         1 UNK         0.0600 
    219 H219       -3.6872  -26.7538  -54.4035 H         1 UNK         0.0600 
    220 H220       -3.6315  -24.3254  -52.2370 H         1 UNK         0.3000 
    221 H221       -3.8064  -22.0205  -54.1286 H         1 UNK         0.0600 
    222 H222       -1.5294  -22.8505  -52.2590 H         1 UNK         0.0600 
    223 H223       -1.6005  -23.2459  -53.9773 H         1 UNK         0.0600 
    224 H224       -1.5002  -21.5701  -53.4660 H         1 UNK         0.0600 
    225 H225       -5.1295  -22.9062  -51.2648 H         1 UNK         0.3000 
    226 H226       -4.4672  -21.0274  -49.3401 H         1 UNK         0.0600 
    227 H227       -5.8504  -23.0595  -48.9396 H         1 UNK         0.0600 
    228 H228       -6.6815  -21.6272  -48.3472 H         1 UNK         0.0600 
    229 H229       -7.1767  -22.3679  -49.8652 H         1 UNK         0.0600 
    230 H230       -4.4647  -18.8946  -49.4425 H         1 UNK         0.3000 
    231 H231       -4.8634  -16.7834  -49.8395 H         1 UNK         0.0600 
    232 H232       -7.1529  -15.9118  -49.7669 H         1 UNK         0.0600 
    233 H233       -6.9952  -17.2234  -48.6124 H         1 UNK         0.0600 
    234 H234       -7.8226  -17.4910  -50.1470 H         1 UNK         0.0600 
    235 H235       -4.7021  -18.7947  -52.3169 H         1 UNK         0.3000 
    236 H236       -6.1414  -17.5497  -54.4306 H         1 UNK         0.0600 
    237 H237       -3.7138  -19.4124  -54.5781 H         1 UNK         0.0600 
    238 H238       -4.8435  -19.0764  -55.8815 H         1 UNK         0.0600 
    239 H239       -5.3972  -19.9332  -54.4516 H         1 UNK         0.0600 
    240 H240       -2.9621  -16.9286  -53.1141 H         1 UNK         0.3000 
    241 H241       -2.2093  -15.0613  -55.2749 H         1 UNK         0.0600 
    242 H242       -4.0778  -12.9865  -52.4550 H         1 UNK         0.3800 
    243 H243       -4.4125  -14.6691  -52.7585 H         1 UNK         0.3800 
    244 H244       -0.6953  -15.9358  -52.7742 H         1 UNK         0.0800 
    245 H245       -0.1002  -14.7646  -53.9132 H         1 UNK         0.0800 
    246 H246        0.0647  -19.2891  -54.5268 H         1 UNK         0.0800 
    247 H247       -1.1443  -18.5591  -53.5056 H         1 UNK         0.0800 
@<TRIPOS>BOND
     1    1    2 1    
     2    1  127 1    
     3    1  128 1    
     4    1  129 1    
     5    2    3 2    
     6    2    4 am   BACKBONE|DICT|INTERRES
     7    4    5 1    
     8    4  130 1    
     9    5    6 1    
    10    5   65 1    
    11    5  131 1    
    12    6    7 1    
    13    6  132 1    
    14    6  133 1    
    15    7    8 1    
    16    8    9 1    
    17    8  134 1    
    18    8  135 1    
    19    9   10 ar   
    20    9   14 ar   
    21   10   11 ar   
    22   10  136 1    
    23   11   12 ar   
    24   11  126 1    
    25   12   13 ar   
    26   12  137 1    
    27   13   14 ar   
    28   13   15 1    
    29   14  138 1    
    30   15   16 1    
    31   15  139 1    
    32   15  140 1    
    33   16   17 1    
    34   17   18 1    
    35   17  141 1    
    36   17  142 1    
    37   18   19 1    
    38   18   67 1    
    39   18  143 1    
    40   19   20 am   BACKBONE|DICT|INTERRES
    41   19  144 1    
    42   20   21 2    
    43   20   22 1    
    44   22   23 1    
    45   22   24 1    
    46   22  145 1    
    47   23  146 1    
    48   23  147 1    
    49   23  148 1    
    50   24   25 am   BACKBONE|DICT|INTERRES
    51   24  149 1    
    52   25   26 2    
    53   25   27 1    
    54   27   28 1    
    55   27   29 1    
    56   27  150 1    
    57   28  151 1    
    58   28  152 1    
    59   28  153 1    
    60   29   30 am   BACKBONE|DICT|INTERRES
    61   29  154 1    
    62   30   31 2    
    63   30   32 1    
    64   32   33 1    
    65   32   34 1    
    66   32  155 1    
    67   33  156 1    
    68   33  157 1    
    69   33  158 1    
    70   34   35 am   BACKBONE|DICT|INTERRES
    71   34  159 1    
    72   35   36 2    
    73   35   37 1    
    74   37   38 1    
    75   37   39 1    
    76   37  160 1    
    77   38  161 1    
    78   38  162 1    
    79   38  163 1    
    80   39   40 am   BACKBONE|DICT|INTERRES
    81   39  164 1    
    82   40   41 2    
    83   40   42 1    
    84   42   43 1    
    85   42   44 1    
    86   42  165 1    
    87   43  166 1    
    88   43  167 1    
    89   43  168 1    
    90   44   45 am   BACKBONE|DICT|INTERRES
    91   44  169 1    
    92   45   46 2    
    93   45   47 1    
    94   47   48 1    
    95   47   49 1    
    96   47  170 1    
    97   48  171 1    
    98   48  172 1    
    99   48  173 1    
   100   49   50 am   BACKBONE|DICT|INTERRES
   101   49  174 1    
   102   50   51 2    
   103   50   52 1    
   104   52   53 1    
   105   52   54 1    
   106   52  175 1    
   107   53  176 1    
   108   53  177 1    
   109   53  178 1    
   110   54   55 am   BACKBONE|DICT|INTERRES
   111   54  179 1    
   112   55   56 2    
   113   55   57 1    
   114   57   58 1    
   115   57   59 1    
   116   57  180 1    
   117   58  181 1    
   118   58  182 1    
   119   58  183 1    
   120   59   60 am   BACKBONE|DICT|INTERRES
   121   59  184 1    
   122   60   61 2    
   123   60   62 1    
   124   62   63 1    
   125   62   64 1    
   126   62  185 1    
   127   63  186 1    
   128   63  187 1    
   129   63  188 1    
   130   64   65 am   BACKBONE|DICT|INTERRES
   131   64  189 1    
   132   65   66 2    
   133   67   68 2    
   134   67   69 am   BACKBONE|DICT|INTERRES
   135   69   70 1    
   136   69  190 1    
   137   70   71 1    
   138   70   72 1    
   139   70  191 1    
   140   71  192 1    
   141   71  193 1    
   142   71  194 1    
   143   72   73 2    
   144   72   74 am   BACKBONE|DICT|INTERRES
   145   74   75 1    
   146   74  195 1    
   147   75   76 1    
   148   75   77 1    
   149   75  196 1    
   150   76  197 1    
   151   76  198 1    
   152   76  199 1    
   153   77   78 2    
   154   77   79 am   BACKBONE|DICT|INTERRES
   155   79   80 1    
   156   79  200 1    
   157   80   81 1    
   158   80   82 1    
   159   80  201 1    
   160   81  202 1    
   161   81  203 1    
   162   81  204 1    
   163   82   83 2    
   164   82   84 am   BACKBONE|DICT|INTERRES
   165   84   85 1    
   166   84  205 1    
   167   85   86 1    
   168   85   87 1    
   169   85  206 1    
   170   86  207 1    
   171   86  208 1    
   172   86  209 1    
   173   87   88 2    
   174   87   89 am   BACKBONE|DICT|INTERRES
   175   89   90 1    
   176   89  210 1    
   177   90   91 1    
   178   90   92 1    
   179   90  211 1    
   180   91  212 1    
   181   91  213 1    
   182   91  214 1    
   183   92   93 2    
   184   92   94 am   BACKBONE|DICT|INTERRES
   185   94   95 1    
   186   94  215 1    
   187   95   96 1    
   188   95   97 1    
   189   95  216 1    
   190   96  217 1    
   191   96  218 1    
   192   96  219 1    
   193   97   98 2    
   194   97   99 am   BACKBONE|DICT|INTERRES
   195   99  100 1    
   196   99  220 1    
   197  100  101 1    
   198  100  102 1    
   199  100  221 1    
   200  101  222 1    
   201  101  223 1    
   202  101  224 1    
   203  102  103 2    
   204  102  104 am   BACKBONE|DICT|INTERRES
   205  104  105 1    
   206  104  225 1    
   207  105  106 1    
   208  105  107 1    
   209  105  226 1    
   210  106  227 1    
   211  106  228 1    
   212  106  229 1    
   213  107  108 2    
   214  107  109 am   BACKBONE|DICT|INTERRES
   215  109  110 1    
   216  109  230 1    
   217  110  111 1    
   218  110  112 1    
   219  110  231 1    
   220  111  232 1    
   221  111  233 1    
   222  111  234 1    
   223  112  113 2    
   224  112  114 am   BACKBONE|DICT|INTERRES
   225  114  115 1    
   226  114  235 1    
   227  115  116 1    
   228  115  117 1    
   229  115  236 1    
   230  116  237 1    
   231  116  238 1    
   232  116  239 1    
   233  117  118 2    
   234  117  119 am   BACKBONE|DICT|INTERRES
   235  119  120 1    
   236  119  240 1    
   237  120  121 1    
   238  120  124 1    
   239  120  241 1    
   240  121  122 am   BACKBONE|DICT|INTERRES
   241  121  123 2    
   242  122  242 1    
   243  122  243 1    
   244  124  125 1    
   245  124  244 1    
   246  124  245 1    
   247  125  126 1    
   248  126  246 1    
   249  126  247 1    
@<TRIPOS>SUBSTRUCTURE
     1 UNK         1 GROUP             0       ****    0 ROOT    
