@<TRIPOS>MOLECULE
3R540
247   249    1
SMALL
USER_CHARGES


@<TRIPOS>ATOM
      1 CA          5.2641  -14.6174  -51.4029 C.3       0 UNK        -0.1800 
      2 C           5.8829  -15.9907  -51.1866 C.2       0 UNK         0.5000 
      3 O           7.0810  -16.0911  -50.9197 O.2       0 UNK        -0.5000 
      4 N           5.0710  -17.0495  -51.2882 N.am      1 UNK        -0.5000 
      5 CA          5.4510  -18.4585  -51.1135 C.3       1 UNK         0.1400 
      6 C6          4.4739  -19.4102  -51.8544 C.3       23 UNK        -0.0398 
      7 S7          4.3986  -19.0582  -53.6444 S.3       23 UNK        -0.2404 
      8 C8          2.7074  -19.6063  -54.0644 C.3       23 UNK        -0.0205 
      9 C9          1.5544  -18.7702  -53.5014 C.ar      23 UNK        -0.0193 
     10 C10         0.2638  -19.3017  -53.5767 C.ar      23 UNK        -0.1150 
     11 C11        -0.8403  -18.5829  -53.1121 C.ar      23 UNK        -0.0193 
     12 C12        -0.6462  -17.3222  -52.5434 C.ar      23 UNK        -0.1150 
     13 C13         0.6364  -16.7785  -52.4420 C.ar      23 UNK        -0.0193 
     14 C14         1.7281  -17.4970  -52.9403 C.ar      23 UNK        -0.1150 
     15 C15         0.8354  -15.4022  -51.8202 C.3       23 UNK        -0.0205 
     16 S16         0.4817  -15.3656  -50.0297 S.3       23 UNK        -0.2404 
     17 C17         1.8110  -16.4086  -49.3243 C.3       23 UNK        -0.0398 
     18 CA          1.3235  -17.4580  -48.2915 C.3       11 UNK         0.1400 
     19 N           0.6202  -16.8449  -47.1587 N.am      11 UNK        -0.5000 
     20 C           0.2283  -17.4811  -46.0460 C.2       10 UNK         0.5000 
     21 O           0.4731  -18.6679  -45.8194 O.2       10 UNK        -0.5000 
     22 CA         -0.5593  -16.6654  -45.0029 C.3       10 UNK         0.1400 
     23 CB         -0.2920  -15.1470  -45.0843 C.3       10 UNK        -0.1800 
     24 N          -2.0028  -16.9203  -45.0337 N.am      10 UNK        -0.5000 
     25 C          -2.8349  -16.8060  -46.0837 C.2       9 UNK         0.5000 
     26 O          -2.4571  -16.6413  -47.2437 O.2       9 UNK        -0.5000 
     27 CA         -4.3530  -16.8486  -45.7943 C.3       9 UNK         0.1400 
     28 CB         -4.9414  -18.2340  -46.1026 C.3       9 UNK        -0.1800 
     29 N          -4.6987  -16.5104  -44.4142 N.am      9 UNK        -0.5000 
     30 C          -4.4721  -15.3422  -43.7965 C.2       8 UNK         0.5000 
     31 O          -4.0533  -14.3360  -44.3690 O.2       8 UNK        -0.5000 
     32 CA         -4.7304  -15.3017  -42.2740 C.3       8 UNK         0.1400 
     33 CB         -5.9613  -14.4376  -41.9583 C.3       8 UNK        -0.1800 
     34 N          -4.9110  -16.6235  -41.6578 N.am      8 UNK        -0.5000 
     35 C          -3.9805  -17.5848  -41.5791 C.2       7 UNK         0.5000 
     36 O          -2.8353  -17.4748  -42.0245 O.2       7 UNK        -0.5000 
     37 CA         -4.4454  -18.9161  -40.9792 C.3       7 UNK         0.1400 
     38 CB         -5.2000  -19.7470  -42.0351 C.3       7 UNK        -0.1800 
     39 N          -3.2934  -19.6653  -40.4906 N.am      7 UNK        -0.5000 
     40 C          -3.3511  -20.6359  -39.5711 C.2       6 UNK         0.5000 
     41 O          -4.3973  -21.0004  -39.0319 O.2       6 UNK        -0.5000 
     42 CA         -2.0324  -21.3328  -39.1850 C.3       6 UNK         0.1400 
     43 CB         -1.8672  -22.6346  -39.9855 C.3       6 UNK        -0.1800 
     44 N          -0.8312  -20.5175  -39.3693 N.am      6 UNK        -0.5000 
     45 C          -0.5250  -19.4015  -38.6919 C.2       5 UNK         0.5000 
     46 O          -1.2691  -18.8857  -37.8572 O.2       5 UNK        -0.5000 
     47 CA          0.8565  -18.7707  -38.9685 C.3       5 UNK         0.1400 
     48 CB          1.7554  -18.8749  -37.7255 C.3       5 UNK        -0.1800 
     49 N           1.5526  -19.3928  -40.0999 N.am      5 UNK        -0.5000 
     50 C           1.3494  -19.0685  -41.3813 C.2       4 UNK         0.5000 
     51 O           0.5745  -18.1845  -41.7505 O.2       4 UNK        -0.5000 
     52 CA          2.1041  -19.9057  -42.4242 C.3       4 UNK         0.1400 
     53 CB          1.2177  -21.0521  -42.9326 C.3       4 UNK        -0.1800 
     54 N           2.4753  -19.0585  -43.5520 N.am      4 UNK        -0.5000 
     55 C           3.6528  -18.4378  -43.6680 C.2       3 UNK         0.5000 
     56 O           4.5994  -18.5961  -42.8939 O.2       3 UNK        -0.5000 
     57 CA          3.8047  -17.4750  -44.8474 C.3       3 UNK         0.1400 
     58 CB          3.7838  -16.0092  -44.3765 C.3       3 UNK        -0.1800 
     59 N           5.0422  -17.7906  -45.5484 N.am      3 UNK        -0.5000 
     60 C           5.3092  -17.4366  -46.8086 C.2       2 UNK         0.5000 
     61 O           4.5866  -16.6796  -47.4611 O.2       2 UNK        -0.5000 
     62 CA          6.5939  -18.0049  -47.4531 C.3       2 UNK         0.1400 
     63 CB          7.0445  -19.3601  -46.8625 C.3       2 UNK        -0.1800 
     64 N           6.4619  -18.0809  -48.9119 N.am      2 UNK        -0.5000 
     65 C           5.5761  -18.8048  -49.6124 C.2       1 UNK         0.5000 
     66 O           4.8527  -19.6690  -49.1174 O.2       1 UNK        -0.5000 
     67 C           0.4989  -18.5749  -48.9610 C.2       11 UNK         0.5000 
     68 O           1.0679  -19.5771  -49.3895 O.2       11 UNK        -0.5000 
     69 N          -0.8300  -18.4103  -48.9905 N.am      12 UNK        -0.5000 
     70 CA         -1.7563  -19.3759  -49.5688 C.3       12 UNK         0.1400 
     71 CB         -3.0716  -18.6642  -49.9000 C.3       12 UNK        -0.1800 
     72 C          -1.9911  -20.5910  -48.6562 C.2       12 UNK         0.5000 
     73 O          -2.2973  -21.6734  -49.1612 O.2       12 UNK        -0.5000 
     74 N          -1.8173  -20.4015  -47.3399 N.am      13 UNK        -0.5000 
     75 CA         -1.8057  -21.4758  -46.3483 C.3       13 UNK         0.1400 
     76 CB         -2.1089  -20.9146  -44.9502 C.3       13 UNK        -0.1800 
     77 C          -0.4741  -22.2449  -46.3701 C.2       13 UNK         0.5000 
     78 O          -0.4909  -23.4709  -46.2744 O.2       13 UNK        -0.5000 
     79 N           0.6457  -21.5283  -46.5528 N.am      14 UNK        -0.5000 
     80 CA          1.9794  -22.1093  -46.7403 C.3       14 UNK         0.1400 
     81 CB          3.0413  -21.0039  -46.6839 C.3       14 UNK        -0.1800 
     82 C           2.0989  -22.9228  -48.0433 C.2       14 UNK         0.5000 
     83 O           2.6876  -24.0043  -48.0326 O.2       14 UNK        -0.5000 
     84 N           1.4915  -22.4169  -49.1260 N.am      15 UNK        -0.5000 
     85 CA          1.3430  -23.1138  -50.4066 C.3       15 UNK         0.1400 
     86 CB          0.9181  -22.0965  -51.4766 C.3       15 UNK        -0.1800 
     87 C           0.3364  -24.2833  -50.3556 C.2       15 UNK         0.5000 
     88 O           0.3457  -25.1230  -51.2559 O.2       15 UNK        -0.5000 
     89 N          -0.5157  -24.3039  -49.3188 N.am      16 UNK        -0.5000 
     90 CA         -1.5754  -25.2766  -49.0291 C.3       16 UNK         0.1400 
     91 CB         -0.9809  -26.6761  -48.7692 C.3       16 UNK        -0.1800 
     92 C          -2.7127  -25.2913  -50.0729 C.2       16 UNK         0.5000 
     93 O          -3.4292  -26.2877  -50.1850 O.2       16 UNK        -0.5000 
     94 N          -2.8696  -24.1829  -50.8065 N.am      17 UNK        -0.5000 
     95 CA         -3.9029  -23.9947  -51.8250 C.3       17 UNK         0.1400 
     96 CB         -3.2966  -23.2111  -52.9974 C.3       17 UNK        -0.1800 
     97 C          -5.1403  -23.2674  -51.2664 C.2       17 UNK         0.5000 
     98 O          -6.2196  -23.4030  -51.8431 O.2       17 UNK        -0.5000 
     99 N          -4.9577  -22.5319  -50.1573 N.am      18 UNK        -0.5000 
    100 CA        -5.9195  -21.6709  -49.4608 C.3       18 UNK         0.1400 
    101 CB        -7.1963  -22.4390  -49.0631 C.3       18 UNK        -0.1800 
    102 C         -6.2487  -20.3792  -50.2346 C.2       18 UNK         0.5000 
    103 O         -5.9844  -20.2651  -51.4347 O.2       18 UNK        -0.5000 
    104 N         -6.8042  -19.3987  -49.5088 N.am      19 UNK        -0.5000 
    105 CA        -7.0676  -18.0377  -49.9899 C.3       19 UNK         0.1400 
    106 CB        -7.6043  -17.1849  -48.8309 C.3       19 UNK        -0.1800 
    107 C         -8.0155  -17.9570  -51.2021 C.2       19 UNK         0.5000 
    108 O         -7.8956  -17.0271  -51.9997 O.2       19 UNK        -0.5000 
    109 N         -8.9056  -18.9468  -51.3453 N.am      20 UNK        -0.5000 
    110 CA        -9.8259  -19.0847  -52.4740 C.3       20 UNK         0.1400 
    111 CB       -10.8168  -20.2186  -52.1689 C.3       20 UNK        -0.1800 
    112 C         -9.1257  -19.3318  -53.8266 C.2       20 UNK         0.5000 
    113 O         -9.6936  -18.9846  -54.8632 O.2       20 UNK        -0.5000 
    114 N         -7.9246  -19.9277  -53.8039 N.am      21 UNK        -0.5000 
    115 CA        -7.1478  -20.2341  -55.0035 C.3       21 UNK         0.1400 
    116 CB        -6.2335  -21.4360  -54.7239 C.3       21 UNK        -0.1800 
    117 C         -6.3199  -19.0324  -55.4879 C.2       21 UNK         0.5000 
    118 O         -6.2826  -18.7687  -56.6908 O.2       21 UNK        -0.5000 
    119 N         -5.6520  -18.3452  -54.5540 N.am      22 UNK        -0.5000 
    120 CA        -4.6317  -17.3233  -54.8491 C.3       22 UNK         0.1400 
    121 C         -4.3860  -16.3119  -53.6919 C.2       22 UNK         0.5000 
    122 N         -5.2595  -16.1964  -52.7013 N.am      22 UNK        -0.7600 
    123 O         -3.3965  -15.5863  -53.6962 O.2       22 UNK        -0.5000 
    124 C124       -3.3184  -17.9124  -55.4677 C.3       23 UNK        -0.0398 
    125 S125       -2.7926  -19.5575  -54.8607 S.3       23 UNK        -0.2404 
    126 C126       -2.2310  -19.1959  -53.1720 C.3       23 UNK        -0.0205 
    127 H127        5.7779  -14.0973  -52.2113 H         1 UNK         0.0600 
    128 H128        4.2074  -14.6841  -51.6595 H         1 UNK         0.0600 
    129 H129        5.3565  -14.0188  -50.4967 H         1 UNK         0.0600 
    130 H130        4.0990  -16.8964  -51.5019 H         1 UNK         0.3000 
    131 H131        6.4412  -18.6042  -51.5508 H         1 UNK         0.0600 
    132 H132        3.4724  -19.3388  -51.4252 H         1 UNK         0.0800 
    133 H133        4.7844  -20.4493  -51.7318 H         1 UNK         0.0800 
    134 H134        2.5957  -20.6433  -53.7445 H         1 UNK         0.0800 
    135 H135        2.6178  -19.6118  -55.1514 H         1 UNK         0.0800 
    136 H136        0.1127  -20.2822  -54.0063 H         1 UNK         0.1150 
    137 H137       -1.4905  -16.7622  -52.1672 H         1 UNK         0.1150 
    138 H138        2.7096  -17.0528  -52.8959 H         1 UNK         0.1150 
    139 H139        1.8474  -15.0361  -51.9943 H         1 UNK         0.0800 
    140 H140        0.1700  -14.6957  -52.3185 H         1 UNK         0.0800 
    141 H141        2.5305  -15.7411  -48.8491 H         1 UNK         0.0800 
    142 H142        2.3609  -16.9046  -50.1241 H         1 UNK         0.0800 
    143 H143        2.2127  -17.9414  -47.8836 H         1 UNK         0.0600 
    144 H144        0.3426  -15.8820  -47.2853 H         1 UNK         0.3000 
    145 H145       -0.2107  -17.0052  -44.0272 H         1 UNK         0.0600 
    146 H146       -0.7478  -14.6304  -44.2394 H         1 UNK         0.0600 
    147 H147        0.7766  -14.9301  -45.0539 H         1 UNK         0.0600 
    148 H148       -0.6980  -14.7030  -45.9939 H         1 UNK         0.0600 
    149 H149       -2.4149  -17.1007  -44.1249 H         1 UNK         0.3000 
    150 H150       -4.8288  -16.1162  -46.4496 H         1 UNK         0.0600 
    151 H151       -4.7250  -18.5477  -47.1211 H         1 UNK         0.0600 
    152 H152       -6.0256  -18.2333  -45.9905 H         1 UNK         0.0600 
    153 H153       -4.5438  -18.9939  -45.4329 H         1 UNK         0.0600 
    154 H154       -5.0644  -17.2628  -43.8516 H         1 UNK         0.3000 
    155 H155       -3.8565  -14.8359  -41.8138 H         1 UNK         0.0600 
    156 H156       -6.8714  -14.8648  -42.3812 H         1 UNK         0.0600 
    157 H157       -5.8502  -13.4322  -42.3669 H         1 UNK         0.0600 
    158 H158       -6.1060  -14.3337  -40.8828 H         1 UNK         0.0600 
    159 H159       -5.8300  -16.8091  -41.2814 H         1 UNK         0.3000 
    160 H160       -5.1110  -18.6957  -40.1417 H         1 UNK         0.0600 
    161 H161       -5.5750  -20.6797  -41.6135 H         1 UNK         0.0600 
    162 H162       -4.5576  -19.9988  -42.8794 H         1 UNK         0.0600 
    163 H163       -6.0615  -19.2044  -42.4259 H         1 UNK         0.0600 
    164 H164       -2.4004  -19.3707  -40.8659 H         1 UNK         0.3000 
    165 H165       -2.0992  -21.5892  -38.1257 H         1 UNK         0.0600 
    166 H166       -0.9884  -23.1911  -39.6594 H         1 UNK         0.0600 
    167 H167       -2.7305  -23.2881  -39.8528 H         1 UNK         0.0600 
    168 H168       -1.7652  -22.4392  -41.0540 H         1 UNK         0.0600 
    169 H169       -0.1531  -20.8640  -40.0298 H         1 UNK         0.3000 
    170 H170        0.6947  -17.7118  -39.1819 H         1 UNK         0.0600 
    171 H171        1.2946  -18.3865  -36.8658 H         1 UNK         0.0600 
    172 H172        1.9443  -19.9134  -37.4506 H         1 UNK         0.0600 
    173 H173        2.7177  -18.3910  -37.8933 H         1 UNK         0.0600 
    174 H174        2.2080  -20.1276  -39.8728 H         1 UNK         0.3000 
    175 H175        2.9955  -20.3382  -41.9645 H         1 UNK         0.0600 
    176 H176        0.3084  -20.6752  -43.3984 H         1 UNK         0.0600 
    177 H177        1.7436  -21.6590  -43.6691 H         1 UNK         0.0600 
    178 H178        0.9218  -21.7147  -42.1187 H         1 UNK         0.0600 
    179 H179        1.7400  -18.8760  -44.2258 H         1 UNK         0.3000 
    180 H180        2.9780  -17.6377  -45.5370 H         1 UNK         0.0600 
    181 H181        4.6417  -15.7802  -43.7434 H         1 UNK         0.0600 
    182 H182        2.8828  -15.7986  -43.7990 H         1 UNK         0.0600 
    183 H183        3.7951  -15.3184  -45.2195 H         1 UNK         0.0600 
    184 H184        5.6729  -18.4043  -45.0493 H         1 UNK         0.3000 
    185 H185        7.3821  -17.2767  -47.2584 H         1 UNK         0.0600 
    186 H186        7.3555  -19.2557  -45.8227 H         1 UNK         0.0600 
    187 H187        6.2497  -20.1058  -46.8961 H         1 UNK         0.0600 
    188 H188        7.8980  -19.7608  -47.4095 H         1 UNK         0.0600 
    189 H189        6.9517  -17.3571  -49.4298 H         1 UNK         0.3000 
    190 H190       -1.2368  -17.5778  -48.5741 H         1 UNK         0.3000 
    191 H191       -1.3208  -19.7446  -50.4972 H         1 UNK         0.0600 
    192 H192       -3.6997  -19.3034  -50.5153 H         1 UNK         0.0600 
    193 H193       -3.6325  -18.4004  -49.0075 H         1 UNK         0.0600 
    194 H194       -2.8997  -17.7438  -50.4574 H         1 UNK         0.0600 
    195 H195       -1.5291  -19.4870  -47.0233 H         1 UNK         0.3000 
    196 H196       -2.5948  -22.1900  -46.5947 H         1 UNK         0.0600 
    197 H197       -1.9109  -21.6559  -44.1746 H         1 UNK         0.0600 
    198 H198       -3.1585  -20.6440  -44.8624 H         1 UNK         0.0600 
    199 H199       -1.5157  -20.0297  -44.7225 H         1 UNK         0.0600 
    200 H200        0.5824  -20.5161  -46.5609 H         1 UNK         0.3000 
    201 H201        2.1653  -22.7952  -45.9114 H         1 UNK         0.0600 
    202 H202        3.0759  -20.5457  -45.6993 H         1 UNK         0.0600 
    203 H203        2.8468  -20.2196  -47.4139 H         1 UNK         0.0600 
    204 H204        4.0356  -21.4025  -46.8887 H         1 UNK         0.0600 
    205 H205        1.1308  -21.4673  -49.0839 H         1 UNK         0.3000 
    206 H206        2.3147  -23.5240  -50.6887 H         1 UNK         0.0600 
    207 H207        1.6319  -21.2755  -51.5432 H         1 UNK         0.0600 
    208 H208        0.8625  -22.5608  -52.4619 H         1 UNK         0.0600 
    209 H209       -0.0613  -21.6698  -51.2593 H         1 UNK         0.0600 
    210 H210       -0.4264  -23.5623  -48.6382 H         1 UNK         0.3000 
    211 H211       -2.0368  -24.9421  -48.0991 H         1 UNK         0.0600 
    212 H212       -0.5644  -27.1151  -49.6760 H         1 UNK         0.0600 
    213 H213       -1.7414  -27.3620  -48.3943 H         1 UNK         0.0600 
    214 H214       -0.1888  -26.6332  -48.0215 H         1 UNK         0.0600 
    215 H215       -2.2692  -23.3935  -50.6064 H         1 UNK         0.3000 
    216 H216       -4.2305  -24.9645  -52.2054 H         1 UNK         0.0600 
    217 H217       -4.0034  -23.1371  -53.8239 H         1 UNK         0.0600 
    218 H218       -2.4004  -23.6996  -53.3805 H         1 UNK         0.0600 
    219 H219       -3.0278  -22.1991  -52.7017 H         1 UNK         0.0600 
    220 H220       -4.0097  -22.4685  -49.8014 H         1 UNK         0.3000 
    221 H221       -5.4144  -21.3672  -48.5424 H         1 UNK         0.0600 
    222 H222       -7.8207  -22.6717  -49.9261 H         1 UNK         0.0600 
    223 H223       -6.9530  -23.3761  -48.5623 H         1 UNK         0.0600 
    224 H224       -7.8068  -21.8550  -48.3739 H         1 UNK         0.0600 
    225 H225       -7.0116  -19.5709  -48.5359 H         1 UNK         0.3000 
    226 H226       -6.1105  -17.6159  -50.3031 H         1 UNK         0.0600 
    227 H227       -8.5259  -17.5983  -48.4196 H         1 UNK         0.0600 
    228 H228       -7.8192  -16.1673  -49.1602 H         1 UNK         0.0600 
    229 H229       -6.8764  -17.1118  -48.0240 H         1 UNK         0.0600 
    230 H230       -8.9259  -19.6766  -50.6487 H         1 UNK         0.3000 
    231 H231      -10.3886  -18.1530  -52.5627 H         1 UNK         0.0600 
    232 H232      -11.3811  -20.0163  -51.2584 H         1 UNK         0.0600 
    233 H233      -10.3070  -21.1749  -52.0443 H         1 UNK         0.0600 
    234 H234      -11.5393  -20.3348  -52.9780 H         1 UNK         0.0600 
    235 H235       -7.4970  -20.1588  -52.9140 H         1 UNK         0.3000 
    236 H236       -7.8284  -20.5191  -55.8088 H         1 UNK         0.0600 
    237 H237       -6.8118  -22.3149  -54.4387 H         1 UNK         0.0600 
    238 H238       -5.6516  -21.6997  -55.6079 H         1 UNK         0.0600 
    239 H239       -5.5281  -21.2251  -53.9197 H         1 UNK         0.0600 
    240 H240       -5.7239  -18.6339  -53.5885 H         1 UNK         0.3000 
    241 H241       -5.0647  -16.6798  -55.6173 H         1 UNK         0.0600 
    242 H242       -5.0703  -15.5134  -51.9860 H         1 UNK         0.3800 
    243 H243       -6.1655  -16.6527  -52.7139 H         1 UNK         0.3800 
    244 H244       -2.4762  -17.2234  -55.3885 H         1 UNK         0.0800 
    245 H245       -3.4748  -18.0301  -56.5405 H         1 UNK         0.0800 
    246 H246       -2.2170  -20.1266  -52.6087 H         1 UNK         0.0800 
    247 H247       -2.9660  -18.5579  -52.6857 H         1 UNK         0.0800 
@<TRIPOS>BOND
     1    1    2 1    
     2    1  127 1    
     3    1  128 1    
     4    1  129 1    
     5    2    3 2    
     6    2    4 am   BACKBONE|DICT|INTERRES
     7    4    5 1    
     8    4  130 1    
     9    5    6 1    
    10    5   65 1    
    11    5  131 1    
    12    6    7 1    
    13    6  132 1    
    14    6  133 1    
    15    7    8 1    
    16    8    9 1    
    17    8  134 1    
    18    8  135 1    
    19    9   10 ar   
    20    9   14 ar   
    21   10   11 ar   
    22   10  136 1    
    23   11   12 ar   
    24   11  126 1    
    25   12   13 ar   
    26   12  137 1    
    27   13   14 ar   
    28   13   15 1    
    29   14  138 1    
    30   15   16 1    
    31   15  139 1    
    32   15  140 1    
    33   16   17 1    
    34   17   18 1    
    35   17  141 1    
    36   17  142 1    
    37   18   19 1    
    38   18   67 1    
    39   18  143 1    
    40   19   20 am   BACKBONE|DICT|INTERRES
    41   19  144 1    
    42   20   21 2    
    43   20   22 1    
    44   22   23 1    
    45   22   24 1    
    46   22  145 1    
    47   23  146 1    
    48   23  147 1    
    49   23  148 1    
    50   24   25 am   BACKBONE|DICT|INTERRES
    51   24  149 1    
    52   25   26 2    
    53   25   27 1    
    54   27   28 1    
    55   27   29 1    
    56   27  150 1    
    57   28  151 1    
    58   28  152 1    
    59   28  153 1    
    60   29   30 am   BACKBONE|DICT|INTERRES
    61   29  154 1    
    62   30   31 2    
    63   30   32 1    
    64   32   33 1    
    65   32   34 1    
    66   32  155 1    
    67   33  156 1    
    68   33  157 1    
    69   33  158 1    
    70   34   35 am   BACKBONE|DICT|INTERRES
    71   34  159 1    
    72   35   36 2    
    73   35   37 1    
    74   37   38 1    
    75   37   39 1    
    76   37  160 1    
    77   38  161 1    
    78   38  162 1    
    79   38  163 1    
    80   39   40 am   BACKBONE|DICT|INTERRES
    81   39  164 1    
    82   40   41 2    
    83   40   42 1    
    84   42   43 1    
    85   42   44 1    
    86   42  165 1    
    87   43  166 1    
    88   43  167 1    
    89   43  168 1    
    90   44   45 am   BACKBONE|DICT|INTERRES
    91   44  169 1    
    92   45   46 2    
    93   45   47 1    
    94   47   48 1    
    95   47   49 1    
    96   47  170 1    
    97   48  171 1    
    98   48  172 1    
    99   48  173 1    
   100   49   50 am   BACKBONE|DICT|INTERRES
   101   49  174 1    
   102   50   51 2    
   103   50   52 1    
   104   52   53 1    
   105   52   54 1    
   106   52  175 1    
   107   53  176 1    
   108   53  177 1    
   109   53  178 1    
   110   54   55 am   BACKBONE|DICT|INTERRES
   111   54  179 1    
   112   55   56 2    
   113   55   57 1    
   114   57   58 1    
   115   57   59 1    
   116   57  180 1    
   117   58  181 1    
   118   58  182 1    
   119   58  183 1    
   120   59   60 am   BACKBONE|DICT|INTERRES
   121   59  184 1    
   122   60   61 2    
   123   60   62 1    
   124   62   63 1    
   125   62   64 1    
   126   62  185 1    
   127   63  186 1    
   128   63  187 1    
   129   63  188 1    
   130   64   65 am   BACKBONE|DICT|INTERRES
   131   64  189 1    
   132   65   66 2    
   133   67   68 2    
   134   67   69 am   BACKBONE|DICT|INTERRES
   135   69   70 1    
   136   69  190 1    
   137   70   71 1    
   138   70   72 1    
   139   70  191 1    
   140   71  192 1    
   141   71  193 1    
   142   71  194 1    
   143   72   73 2    
   144   72   74 am   BACKBONE|DICT|INTERRES
   145   74   75 1    
   146   74  195 1    
   147   75   76 1    
   148   75   77 1    
   149   75  196 1    
   150   76  197 1    
   151   76  198 1    
   152   76  199 1    
   153   77   78 2    
   154   77   79 am   BACKBONE|DICT|INTERRES
   155   79   80 1    
   156   79  200 1    
   157   80   81 1    
   158   80   82 1    
   159   80  201 1    
   160   81  202 1    
   161   81  203 1    
   162   81  204 1    
   163   82   83 2    
   164   82   84 am   BACKBONE|DICT|INTERRES
   165   84   85 1    
   166   84  205 1    
   167   85   86 1    
   168   85   87 1    
   169   85  206 1    
   170   86  207 1    
   171   86  208 1    
   172   86  209 1    
   173   87   88 2    
   174   87   89 am   BACKBONE|DICT|INTERRES
   175   89   90 1    
   176   89  210 1    
   177   90   91 1    
   178   90   92 1    
   179   90  211 1    
   180   91  212 1    
   181   91  213 1    
   182   91  214 1    
   183   92   93 2    
   184   92   94 am   BACKBONE|DICT|INTERRES
   185   94   95 1    
   186   94  215 1    
   187   95   96 1    
   188   95   97 1    
   189   95  216 1    
   190   96  217 1    
   191   96  218 1    
   192   96  219 1    
   193   97   98 2    
   194   97   99 am   BACKBONE|DICT|INTERRES
   195   99  100 1    
   196   99  220 1    
   197  100  101 1    
   198  100  102 1    
   199  100  221 1    
   200  101  222 1    
   201  101  223 1    
   202  101  224 1    
   203  102  103 2    
   204  102  104 am   BACKBONE|DICT|INTERRES
   205  104  105 1    
   206  104  225 1    
   207  105  106 1    
   208  105  107 1    
   209  105  226 1    
   210  106  227 1    
   211  106  228 1    
   212  106  229 1    
   213  107  108 2    
   214  107  109 am   BACKBONE|DICT|INTERRES
   215  109  110 1    
   216  109  230 1    
   217  110  111 1    
   218  110  112 1    
   219  110  231 1    
   220  111  232 1    
   221  111  233 1    
   222  111  234 1    
   223  112  113 2    
   224  112  114 am   BACKBONE|DICT|INTERRES
   225  114  115 1    
   226  114  235 1    
   227  115  116 1    
   228  115  117 1    
   229  115  236 1    
   230  116  237 1    
   231  116  238 1    
   232  116  239 1    
   233  117  118 2    
   234  117  119 am   BACKBONE|DICT|INTERRES
   235  119  120 1    
   236  119  240 1    
   237  120  121 1    
   238  120  124 1    
   239  120  241 1    
   240  121  122 am   BACKBONE|DICT|INTERRES
   241  121  123 2    
   242  122  242 1    
   243  122  243 1    
   244  124  125 1    
   245  124  244 1    
   246  124  245 1    
   247  125  126 1    
   248  126  246 1    
   249  126  247 1    
@<TRIPOS>SUBSTRUCTURE
     1 UNK         1 GROUP             0       ****    0 ROOT    
