@<TRIPOS>MOLECULE
3R540
247   249    1
SMALL
USER_CHARGES


@<TRIPOS>ATOM
      1 CA          1.1627  -14.5676  -44.5254 C.3       0 UNK        -0.1800 
      2 C           1.5810  -13.6534  -45.6670 C.2       0 UNK         0.5000 
      3 O           2.4888  -12.8391  -45.5079 O.2       0 UNK        -0.5000 
      4 N           0.9194  -13.7986  -46.8231 N.am      1 UNK        -0.5000 
      5 CA          1.1844  -13.0503  -48.0607 C.3       1 UNK         0.1400 
      6 C6          0.0971  -13.2729  -49.1476 C.3       23 UNK        -0.0398 
      7 S7         -1.6232  -12.9119  -48.6337 S.3       23 UNK        -0.2404 
      8 C8         -2.1918  -14.3944  -47.7249 C.3       23 UNK        -0.0205 
      9 C9         -2.0747  -15.6986  -48.5050 C.ar      23 UNK        -0.0193 
     10 C10        -3.1857  -16.2495  -49.1527 C.ar      23 UNK        -0.1150 
     11 C11        -3.0882  -17.4891  -49.7945 C.ar      23 UNK        -0.0193 
     12 C12        -1.8651  -18.1660  -49.8008 C.ar      23 UNK        -0.1150 
     13 C13        -0.7445  -17.6242  -49.1694 C.ar      23 UNK        -0.0193 
     14 C14        -0.8637  -16.3943  -48.5198 C.ar      23 UNK        -0.1150 
     15 C15         0.5813  -18.3790  -49.2084 C.3       23 UNK        -0.0205 
     16 S16         1.5903  -18.2600  -47.6889 S.3       23 UNK        -0.2404 
     17 C17         0.4126  -18.6658  -46.3549 C.3       23 UNK        -0.0398 
     18 CA          0.1869  -20.1822  -46.1397 C.3       11 UNK         0.1400 
     19 N          -0.1312  -20.4738  -44.7414 N.am      11 UNK        -0.5000 
     20 C          -0.3099  -21.6934  -44.2164 C.2       10 UNK         0.5000 
     21 O          -0.1635  -22.7436  -44.8410 O.2       10 UNK        -0.5000 
     22 CA         -0.7967  -21.7349  -42.7584 C.3       10 UNK         0.1400 
     23 CB          0.3703  -21.5299  -41.7800 C.3       10 UNK        -0.1800 
     24 N          -1.8324  -20.7307  -42.5087 N.am      10 UNK        -0.5000 
     25 C          -3.0672  -20.7739  -43.0300 C.2       9 UNK         0.5000 
     26 O          -3.4778  -21.6911  -43.7410 O.2       9 UNK        -0.5000 
     27 CA         -3.9808  -19.5688  -42.7386 C.3       9 UNK         0.1400 
     28 CB         -4.6313  -19.7037  -41.3537 C.3       9 UNK        -0.1800 
     29 N          -3.2726  -18.2896  -42.8202 N.am      9 UNK        -0.5000 
     30 C          -2.7585  -17.7795  -43.9484 C.2       8 UNK         0.5000 
     31 O          -2.8467  -18.3221  -45.0468 O.2       8 UNK        -0.5000 
     32 CA         -1.9579  -16.4716  -43.8233 C.3       8 UNK         0.1400 
     33 CB         -2.8846  -15.2527  -43.9361 C.3       8 UNK        -0.1800 
     34 N          -1.1750  -16.3856  -42.5868 N.am      8 UNK        -0.5000 
     35 C          -0.1988  -17.2381  -42.2498 C.2       7 UNK         0.5000 
     36 O           0.1360  -18.2042  -42.9417 O.2       7 UNK        -0.5000 
     37 CA          0.4810  -17.0029  -40.8971 C.3       7 UNK         0.1400 
     38 CB         -0.3855  -17.5568  -39.7513 C.3       7 UNK        -0.1800 
     39 N           1.7710  -17.6786  -40.9163 N.am      7 UNK        -0.5000 
     40 C           2.8167  -17.4052  -40.1315 C.2       6 UNK         0.5000 
     41 O           2.7991  -16.5382  -39.2557 O.2       6 UNK        -0.5000 
     42 CA          4.0992  -18.2298  -40.3495 C.3       6 UNK         0.1400 
     43 CB          3.9434  -19.3908  -41.3545 C.3       6 UNK        -0.1800 
     44 N           5.1496  -17.3342  -40.8212 N.am      6 UNK        -0.5000 
     45 C           6.1580  -16.8585  -40.0774 C.2       5 UNK         0.5000 
     46 O           6.3506  -17.1784  -38.9033 O.2       5 UNK        -0.5000 
     47 CA          7.1358  -15.8713  -40.7506 C.3       5 UNK         0.1400 
     48 CB          8.4665  -16.5701  -41.0715 C.3       5 UNK        -0.1800 
     49 N           6.6111  -15.2802  -41.9823 N.am      5 UNK        -0.5000 
     50 C           5.6786  -14.3198  -42.0390 C.2       4 UNK         0.5000 
     51 O           5.2145  -13.7586  -41.0464 O.2       4 UNK        -0.5000 
     52 CA          5.1615  -13.9370  -43.4407 C.3       4 UNK         0.1400 
     53 CB          5.8764  -12.6792  -43.9561 C.3       4 UNK        -0.1800 
     54 N           5.2947  -15.0005  -44.4425 N.am      4 UNK        -0.5000 
     55 C           4.7077  -16.2026  -44.3928 C.2       3 UNK         0.5000 
     56 O           3.9950  -16.5685  -43.4574 O.2       3 UNK        -0.5000 
     57 CA          4.9707  -17.1403  -45.5890 C.3       3 UNK         0.1400 
     58 CB          4.3613  -18.5392  -45.3845 C.3       3 UNK        -0.1800 
     59 N           4.4652  -16.5712  -46.8410 N.am      3 UNK        -0.5000 
     60 C           5.0849  -15.6233  -47.5611 C.2       2 UNK         0.5000 
     61 O           6.1642  -15.1241  -47.2394 O.2       2 UNK        -0.5000 
     62 CA          4.3584  -15.1114  -48.8124 C.3       2 UNK         0.1400 
     63 CB          4.2305  -16.2066  -49.8845 C.3       2 UNK        -0.1800 
     64 N           3.0337  -14.6228  -48.4376 N.am      2 UNK        -0.5000 
     65 C           2.5754  -13.3811  -48.6492 C.2       1 UNK         0.5000 
     66 O           3.1921  -12.5143  -49.2701 O.2       1 UNK        -0.5000 
     67 C          -0.8961  -20.7380  -47.0892 C.2       11 UNK         0.5000 
     68 O          -0.5686  -21.4680  -48.0228 O.2       11 UNK        -0.5000 
     69 N          -2.1674  -20.4242  -46.8025 N.am      12 UNK        -0.5000 
     70 CA         -3.3438  -20.8763  -47.5451 C.3       12 UNK         0.1400 
     71 CB         -4.5936  -20.1982  -46.9620 C.3       12 UNK        -0.1800 
     72 C          -3.5115  -22.4049  -47.5653 C.2       12 UNK         0.5000 
     73 O          -3.8732  -22.9599  -48.6050 O.2       12 UNK        -0.5000 
     74 N          -3.2231  -23.0575  -46.4313 N.am      13 UNK        -0.5000 
     75 CA         -3.2155  -24.5130  -46.2991 C.3       13 UNK         0.1400 
     76 CB         -3.1231  -24.8960  -44.8143 C.3       13 UNK        -0.1800 
     77 C          -2.0827  -25.1696  -47.1091 C.2       13 UNK         0.5000 
     78 O          -2.3249  -26.1724  -47.7810 O.2       13 UNK        -0.5000 
     79 N          -0.8779  -24.5847  -47.0485 N.am      14 UNK        -0.5000 
     80 CA          0.3071  -25.0454  -47.7736 C.3       14 UNK         0.1400 
     81 CB          1.5516  -24.3255  -47.2313 C.3       14 UNK        -0.1800 
     82 C           0.1896  -24.8585  -49.2974 C.2       14 UNK         0.5000 
     83 O           0.5555  -25.7620  -50.0502 O.2       14 UNK        -0.5000 
     84 N          -0.3240  -23.6969  -49.7227 N.am      15 UNK        -0.5000 
     85 CA         -0.5327  -23.3427  -51.1275 C.3       15 UNK         0.1400 
     86 CB         -0.7480  -21.8251  -51.2356 C.3       15 UNK        -0.1800 
     87 C          -1.7141  -24.0817  -51.7795 C.2       15 UNK         0.5000 
     88 O          -1.7223  -24.2185  -53.0026 O.2       15 UNK        -0.5000 
     89 N          -2.6827  -24.5156  -50.9577 N.am      16 UNK        -0.5000 
     90 CA         -3.9954  -25.0493  -51.3270 C.3       16 UNK         0.1400 
     91 CB         -3.8808  -26.3431  -52.1602 C.3       16 UNK        -0.1800 
     92 C          -4.8264  -23.9536  -52.0165 C.2       16 UNK         0.5000 
     93 O          -4.9751  -23.9574  -53.2386 O.2       16 UNK        -0.5000 
     94 N          -5.3096  -23.0055  -51.2035 N.am      17 UNK        -0.5000 
     95 CA         -5.9649  -21.7477  -51.5834 C.3       17 UNK         0.1400 
     96 CB         -6.5414  -21.1000  -50.3198 C.3       17 UNK        -0.1800 
     97 C          -7.0567  -21.8215  -52.6681 C.2       17 UNK         0.5000 
     98 O          -7.2007  -20.8698  -53.4375 O.2       17 UNK        -0.5000 
     99 N          -7.7989  -22.9350  -52.7161 N.am      18 UNK        -0.5000 
    100 CA        -8.8311  -23.1977  -53.7200 C.3       18 UNK         0.1400 
    101 CB        -9.7243  -24.3480  -53.2314 C.3       18 UNK        -0.1800 
    102 C         -8.2524  -23.5193  -55.1122 C.2       18 UNK         0.5000 
    103 O         -8.8675  -23.1641  -56.1178 O.2       18 UNK        -0.5000 
    104 N         -7.0845  -24.1745  -55.1483 N.am      19 UNK        -0.5000 
    105 CA        -6.3553  -24.5161  -56.3700 C.3       19 UNK         0.1400 
    106 CB        -5.5483  -25.8035  -56.1390 C.3       19 UNK        -0.1800 
    107 C         -5.4325  -23.3658  -56.8043 C.2       19 UNK         0.5000 
    108 O         -5.3129  -23.0995  -58.0006 O.2       19 UNK        -0.5000 
    109 N         -4.8230  -22.6849  -55.8229 N.am      20 UNK        -0.5000 
    110 CA        -3.9936  -21.4921  -56.0144 C.3       20 UNK         0.1400 
    111 CB        -3.2137  -21.2187  -54.7199 C.3       20 UNK        -0.1800 
    112 C         -4.8021  -20.2464  -56.4338 C.2       20 UNK         0.5000 
    113 O         -4.2220  -19.3051  -56.9747 O.2       20 UNK        -0.5000 
    114 N         -6.1172  -20.2698  -56.1712 N.am      21 UNK        -0.5000 
    115 CA        -7.1317  -19.2540  -56.4736 C.3       21 UNK         0.1400 
    116 CB        -7.2007  -18.9592  -57.9864 C.3       21 UNK        -0.1800 
    117 C         -7.0245  -17.9719  -55.6212 C.2       21 UNK         0.5000 
    118 O         -7.7152  -16.9935  -55.9120 O.2       21 UNK        -0.5000 
    119 N         -6.1995  -18.0015  -54.5680 N.am      22 UNK        -0.5000 
    120 CA        -6.1100  -16.9542  -53.5393 C.3       22 UNK         0.1400 
    121 C         -7.2179  -17.0513  -52.4490 C.2       22 UNK         0.5000 
    122 N         -7.9560  -18.1513  -52.3441 N.am      22 UNK        -0.7600 
    123 O         -7.4203  -16.1039  -51.6948 O.2       22 UNK        -0.5000 
    124 C124       -4.6882  -16.8650  -52.9239 C.3       23 UNK        -0.0398 
    125 S125       -4.0974  -18.4386  -52.2120 S.3       23 UNK        -0.2404 
    126 C126       -4.3098  -18.1365  -50.4289 C.3       23 UNK        -0.0205 
    127 H127        0.2445  -14.2020  -44.0670 H         1 UNK         0.0600 
    128 H128        1.9327  -14.6072  -43.7557 H         1 UNK         0.0600 
    129 H129        0.9991  -15.5847  -44.8816 H         1 UNK         0.0600 
    130 H130        0.1493  -14.4460  -46.8679 H         1 UNK         0.3000 
    131 H131        1.1864  -11.9894  -47.8013 H         1 UNK         0.0600 
    132 H132        0.3008  -12.6027  -49.9848 H         1 UNK         0.0800 
    133 H133        0.1554  -14.2687  -49.5826 H         1 UNK         0.0800 
    134 H134       -1.6621  -14.4790  -46.7771 H         1 UNK         0.0800 
    135 H135       -3.2350  -14.2331  -47.4488 H         1 UNK         0.0800 
    136 H136       -4.1324  -15.7281  -49.1308 H         1 UNK         0.1150 
    137 H137       -1.7908  -19.1231  -50.2966 H         1 UNK         0.1150 
    138 H138       -0.0048  -15.9852  -48.0152 H         1 UNK         0.1150 
    139 H139        0.4103  -19.4331  -49.4225 H         1 UNK         0.0800 
    140 H140        1.1690  -17.9945  -50.0426 H         1 UNK         0.0800 
    141 H141        0.8539  -18.2344  -45.4564 H         1 UNK         0.0800 
    142 H142       -0.5283  -18.1319  -46.4832 H         1 UNK         0.0800 
    143 H143        1.1194  -20.7070  -46.3578 H         1 UNK         0.0600 
    144 H144       -0.2341  -19.6713  -44.1270 H         1 UNK         0.3000 
    145 H145       -1.2259  -22.7224  -42.5758 H         1 UNK         0.0600 
    146 H146        0.0357  -21.6072  -40.7454 H         1 UNK         0.0600 
    147 H147        1.1406  -22.2874  -41.9299 H         1 UNK         0.0600 
    148 H148        0.8415  -20.5558  -41.9072 H         1 UNK         0.0600 
    149 H149       -1.5593  -19.9187  -41.9764 H         1 UNK         0.3000 
    150 H150       -4.7748  -19.5644  -43.4883 H         1 UNK         0.0600 
    151 H151       -5.1787  -20.6435  -41.2701 H         1 UNK         0.0600 
    152 H152       -5.3426  -18.8977  -41.1724 H         1 UNK         0.0600 
    153 H153       -3.8895  -19.6833  -40.5543 H         1 UNK         0.0600 
    154 H154       -3.1516  -17.7766  -41.9598 H         1 UNK         0.3000 
    155 H155       -1.2607  -16.4425  -44.6624 H         1 UNK         0.0600 
    156 H156       -2.3158  -14.3231  -43.9563 H         1 UNK         0.0600 
    157 H157       -3.5851  -15.2004  -43.1017 H         1 UNK         0.0600 
    158 H158       -3.4716  -15.2926  -44.8548 H         1 UNK         0.0600 
    159 H159       -1.4046  -15.6276  -41.9601 H         1 UNK         0.3000 
    160 H160        0.6351  -15.9297  -40.7671 H         1 UNK         0.0600 
    161 H161       -0.5454  -18.6311  -39.8523 H         1 UNK         0.0600 
    162 H162       -1.3649  -17.0777  -39.7291 H         1 UNK         0.0600 
    163 H163        0.0800  -17.3797  -38.7817 H         1 UNK         0.0600 
    164 H164        1.8687  -18.3503  -41.6675 H         1 UNK         0.3000 
    165 H165        4.3672  -18.6629  -39.3839 H         1 UNK         0.0600 
    166 H166        3.6559  -19.0434  -42.3471 H         1 UNK         0.0600 
    167 H167        4.8788  -19.9408  -41.4590 H         1 UNK         0.0600 
    168 H168        3.1908  -20.1042  -41.0169 H         1 UNK         0.0600 
    169 H169        5.0111  -16.9641  -41.7553 H         1 UNK         0.3000 
    170 H170        7.3349  -15.0690  -40.0370 H         1 UNK         0.0600 
    171 H171        8.9123  -16.9954  -40.1713 H         1 UNK         0.0600 
    172 H172        8.3321  -17.3829  -41.7864 H         1 UNK         0.0600 
    173 H173        9.1897  -15.8696  -41.4897 H         1 UNK         0.0600 
    174 H174        6.9432  -15.6725  -42.8508 H         1 UNK         0.3000 
    175 H175        4.0999  -13.7068  -43.3395 H         1 UNK         0.0600 
    176 H176        6.9413  -12.8566  -44.1109 H         1 UNK         0.0600 
    177 H177        5.4491  -12.3455  -44.9022 H         1 UNK         0.0600 
    178 H178        5.7784  -11.8549  -43.2483 H         1 UNK         0.0600 
    179 H179        5.8362  -14.7808  -45.2721 H         1 UNK         0.3000 
    180 H180        6.0522  -17.2660  -45.6726 H         1 UNK         0.0600 
    181 H181        3.2879  -18.4929  -45.2011 H         1 UNK         0.0600 
    182 H182        4.8165  -19.0377  -44.5282 H         1 UNK         0.0600 
    183 H183        4.5268  -19.1759  -46.2538 H         1 UNK         0.0600 
    184 H184        3.5904  -16.9528  -47.1721 H         1 UNK         0.3000 
    185 H185        4.9621  -14.3021  -49.2286 H         1 UNK         0.0600 
    186 H186        3.7633  -15.8148  -50.7881 H         1 UNK         0.0600 
    187 H187        5.2112  -16.5916  -50.1666 H         1 UNK         0.0600 
    188 H188        3.6328  -17.0510  -49.5425 H         1 UNK         0.0600 
    189 H189        2.4663  -15.2430  -47.8811 H         1 UNK         0.3000 
    190 H190       -2.3527  -19.7784  -46.0380 H         1 UNK         0.3000 
    191 H191       -3.2237  -20.5549  -48.5804 H         1 UNK         0.0600 
    192 H192       -5.5116  -20.5831  -47.4034 H         1 UNK         0.0600 
    193 H193       -4.5715  -19.1222  -47.1369 H         1 UNK         0.0600 
    194 H194       -4.6686  -20.3593  -45.8868 H         1 UNK         0.0600 
    195 H195       -2.9892  -22.5211  -45.6031 H         1 UNK         0.3000 
    196 H196       -4.1641  -24.8911  -46.6864 H         1 UNK         0.0600 
    197 H197       -3.1320  -25.9794  -44.6889 H         1 UNK         0.0600 
    198 H198       -3.9670  -24.4961  -44.2520 H         1 UNK         0.0600 
    199 H199       -2.2087  -24.5191  -44.3554 H         1 UNK         0.0600 
    200 H200       -0.7524  -23.7795  -46.4422 H         1 UNK         0.3000 
    201 H201        0.4250  -26.1135  -47.5791 H         1 UNK         0.0600 
    202 H202        1.6904  -24.5265  -46.1689 H         1 UNK         0.0600 
    203 H203        1.4802  -23.2448  -47.3589 H         1 UNK         0.0600 
    204 H204        2.4530  -24.6594  -47.7466 H         1 UNK         0.0600 
    205 H205       -0.5400  -22.9755  -49.0362 H         1 UNK         0.3000 
    206 H206        0.3692  -23.6008  -51.6862 H         1 UNK         0.0600 
    207 H207        0.1190  -21.2803  -50.8640 H         1 UNK         0.0600 
    208 H208       -0.9033  -21.5206  -52.2715 H         1 UNK         0.0600 
    209 H209       -1.6207  -21.5049  -50.6648 H         1 UNK         0.0600 
    210 H210       -2.5732  -24.3061  -49.9738 H         1 UNK         0.3000 
    211 H211       -4.5001  -25.3053  -50.3940 H         1 UNK         0.0600 
    212 H212       -3.4236  -26.1725  -53.1349 H         1 UNK         0.0600 
    213 H213       -4.8666  -26.7732  -52.3396 H         1 UNK         0.0600 
    214 H214       -3.2868  -27.0937  -51.6390 H         1 UNK         0.0600 
    215 H215       -5.0547  -23.0770  -50.2229 H         1 UNK         0.3000 
    216 H216       -5.1786  -21.0995  -51.9662 H         1 UNK         0.0600 
    217 H217       -6.9517  -20.1122  -50.5314 H         1 UNK         0.0600 
    218 H218       -5.7669  -20.9756  -49.5685 H         1 UNK         0.0600 
    219 H219       -7.3368  -21.7048  -49.8828 H         1 UNK         0.0600 
    220 H220       -7.6154  -23.6648  -52.0437 H         1 UNK         0.3000 
    221 H221       -9.4513  -22.3040  -53.8175 H         1 UNK         0.0600 
    222 H222       -9.1569  -25.2697  -53.0963 H         1 UNK         0.0600 
    223 H223      -10.1986  -24.1024  -52.2810 H         1 UNK         0.0600 
    224 H224      -10.5211  -24.5547  -53.9472 H         1 UNK         0.0600 
    225 H225       -6.5930  -24.3458  -54.2775 H         1 UNK         0.3000 
    226 H226       -7.0660  -24.7042  -57.1776 H         1 UNK         0.0600 
    227 H227       -6.1996  -26.6312  -55.8585 H         1 UNK         0.0600 
    228 H228       -5.0184  -26.0985  -57.0455 H         1 UNK         0.0600 
    229 H229       -4.8048  -25.6809  -55.3505 H         1 UNK         0.0600 
    230 H230       -4.9238  -23.0245  -54.8695 H         1 UNK         0.3000 
    231 H231       -3.2749  -21.6991  -56.8098 H         1 UNK         0.0600 
    232 H232       -2.5782  -20.3377  -54.8192 H         1 UNK         0.0600 
    233 H233       -2.5677  -22.0586  -54.4654 H         1 UNK         0.0600 
    234 H234       -3.8835  -21.0472  -53.8788 H         1 UNK         0.0600 
    235 H235       -6.4645  -21.0684  -55.6573 H         1 UNK         0.3000 
    236 H236       -8.0822  -19.7092  -56.1916 H         1 UNK         0.0600 
    237 H237       -7.2820  -19.8801  -58.5641 H         1 UNK         0.0600 
    238 H238       -8.0724  -18.3495  -58.2264 H         1 UNK         0.0600 
    239 H239       -6.3213  -18.4183  -58.3363 H         1 UNK         0.0600 
    240 H240       -5.6948  -18.8547  -54.3771 H         1 UNK         0.3000 
    241 H241       -6.2838  -15.9959  -54.0324 H         1 UNK         0.0600 
    242 H242       -7.7692  -18.9590  -52.9267 H         1 UNK         0.3800 
    243 H243       -8.6814  -18.1931  -51.6468 H         1 UNK         0.3800 
    244 H244       -3.9811  -16.5758  -53.7023 H         1 UNK         0.0800 
    245 H245       -4.6340  -16.0723  -52.1757 H         1 UNK         0.0800 
    246 H246       -4.4781  -19.0923  -49.9379 H         1 UNK         0.0800 
    247 H247       -5.2093  -17.5456  -50.2514 H         1 UNK         0.0800 
@<TRIPOS>BOND
     1    1    2 1    
     2    1  127 1    
     3    1  128 1    
     4    1  129 1    
     5    2    3 2    
     6    2    4 am   BACKBONE|DICT|INTERRES
     7    4    5 1    
     8    4  130 1    
     9    5    6 1    
    10    5   65 1    
    11    5  131 1    
    12    6    7 1    
    13    6  132 1    
    14    6  133 1    
    15    7    8 1    
    16    8    9 1    
    17    8  134 1    
    18    8  135 1    
    19    9   10 ar   
    20    9   14 ar   
    21   10   11 ar   
    22   10  136 1    
    23   11   12 ar   
    24   11  126 1    
    25   12   13 ar   
    26   12  137 1    
    27   13   14 ar   
    28   13   15 1    
    29   14  138 1    
    30   15   16 1    
    31   15  139 1    
    32   15  140 1    
    33   16   17 1    
    34   17   18 1    
    35   17  141 1    
    36   17  142 1    
    37   18   19 1    
    38   18   67 1    
    39   18  143 1    
    40   19   20 am   BACKBONE|DICT|INTERRES
    41   19  144 1    
    42   20   21 2    
    43   20   22 1    
    44   22   23 1    
    45   22   24 1    
    46   22  145 1    
    47   23  146 1    
    48   23  147 1    
    49   23  148 1    
    50   24   25 am   BACKBONE|DICT|INTERRES
    51   24  149 1    
    52   25   26 2    
    53   25   27 1    
    54   27   28 1    
    55   27   29 1    
    56   27  150 1    
    57   28  151 1    
    58   28  152 1    
    59   28  153 1    
    60   29   30 am   BACKBONE|DICT|INTERRES
    61   29  154 1    
    62   30   31 2    
    63   30   32 1    
    64   32   33 1    
    65   32   34 1    
    66   32  155 1    
    67   33  156 1    
    68   33  157 1    
    69   33  158 1    
    70   34   35 am   BACKBONE|DICT|INTERRES
    71   34  159 1    
    72   35   36 2    
    73   35   37 1    
    74   37   38 1    
    75   37   39 1    
    76   37  160 1    
    77   38  161 1    
    78   38  162 1    
    79   38  163 1    
    80   39   40 am   BACKBONE|DICT|INTERRES
    81   39  164 1    
    82   40   41 2    
    83   40   42 1    
    84   42   43 1    
    85   42   44 1    
    86   42  165 1    
    87   43  166 1    
    88   43  167 1    
    89   43  168 1    
    90   44   45 am   BACKBONE|DICT|INTERRES
    91   44  169 1    
    92   45   46 2    
    93   45   47 1    
    94   47   48 1    
    95   47   49 1    
    96   47  170 1    
    97   48  171 1    
    98   48  172 1    
    99   48  173 1    
   100   49   50 am   BACKBONE|DICT|INTERRES
   101   49  174 1    
   102   50   51 2    
   103   50   52 1    
   104   52   53 1    
   105   52   54 1    
   106   52  175 1    
   107   53  176 1    
   108   53  177 1    
   109   53  178 1    
   110   54   55 am   BACKBONE|DICT|INTERRES
   111   54  179 1    
   112   55   56 2    
   113   55   57 1    
   114   57   58 1    
   115   57   59 1    
   116   57  180 1    
   117   58  181 1    
   118   58  182 1    
   119   58  183 1    
   120   59   60 am   BACKBONE|DICT|INTERRES
   121   59  184 1    
   122   60   61 2    
   123   60   62 1    
   124   62   63 1    
   125   62   64 1    
   126   62  185 1    
   127   63  186 1    
   128   63  187 1    
   129   63  188 1    
   130   64   65 am   BACKBONE|DICT|INTERRES
   131   64  189 1    
   132   65   66 2    
   133   67   68 2    
   134   67   69 am   BACKBONE|DICT|INTERRES
   135   69   70 1    
   136   69  190 1    
   137   70   71 1    
   138   70   72 1    
   139   70  191 1    
   140   71  192 1    
   141   71  193 1    
   142   71  194 1    
   143   72   73 2    
   144   72   74 am   BACKBONE|DICT|INTERRES
   145   74   75 1    
   146   74  195 1    
   147   75   76 1    
   148   75   77 1    
   149   75  196 1    
   150   76  197 1    
   151   76  198 1    
   152   76  199 1    
   153   77   78 2    
   154   77   79 am   BACKBONE|DICT|INTERRES
   155   79   80 1    
   156   79  200 1    
   157   80   81 1    
   158   80   82 1    
   159   80  201 1    
   160   81  202 1    
   161   81  203 1    
   162   81  204 1    
   163   82   83 2    
   164   82   84 am   BACKBONE|DICT|INTERRES
   165   84   85 1    
   166   84  205 1    
   167   85   86 1    
   168   85   87 1    
   169   85  206 1    
   170   86  207 1    
   171   86  208 1    
   172   86  209 1    
   173   87   88 2    
   174   87   89 am   BACKBONE|DICT|INTERRES
   175   89   90 1    
   176   89  210 1    
   177   90   91 1    
   178   90   92 1    
   179   90  211 1    
   180   91  212 1    
   181   91  213 1    
   182   91  214 1    
   183   92   93 2    
   184   92   94 am   BACKBONE|DICT|INTERRES
   185   94   95 1    
   186   94  215 1    
   187   95   96 1    
   188   95   97 1    
   189   95  216 1    
   190   96  217 1    
   191   96  218 1    
   192   96  219 1    
   193   97   98 2    
   194   97   99 am   BACKBONE|DICT|INTERRES
   195   99  100 1    
   196   99  220 1    
   197  100  101 1    
   198  100  102 1    
   199  100  221 1    
   200  101  222 1    
   201  101  223 1    
   202  101  224 1    
   203  102  103 2    
   204  102  104 am   BACKBONE|DICT|INTERRES
   205  104  105 1    
   206  104  225 1    
   207  105  106 1    
   208  105  107 1    
   209  105  226 1    
   210  106  227 1    
   211  106  228 1    
   212  106  229 1    
   213  107  108 2    
   214  107  109 am   BACKBONE|DICT|INTERRES
   215  109  110 1    
   216  109  230 1    
   217  110  111 1    
   218  110  112 1    
   219  110  231 1    
   220  111  232 1    
   221  111  233 1    
   222  111  234 1    
   223  112  113 2    
   224  112  114 am   BACKBONE|DICT|INTERRES
   225  114  115 1    
   226  114  235 1    
   227  115  116 1    
   228  115  117 1    
   229  115  236 1    
   230  116  237 1    
   231  116  238 1    
   232  116  239 1    
   233  117  118 2    
   234  117  119 am   BACKBONE|DICT|INTERRES
   235  119  120 1    
   236  119  240 1    
   237  120  121 1    
   238  120  124 1    
   239  120  241 1    
   240  121  122 am   BACKBONE|DICT|INTERRES
   241  121  123 2    
   242  122  242 1    
   243  122  243 1    
   244  124  125 1    
   245  124  244 1    
   246  124  245 1    
   247  125  126 1    
   248  126  246 1    
   249  126  247 1    
@<TRIPOS>SUBSTRUCTURE
     1 UNK         1 GROUP             0       ****    0 ROOT    
