@<TRIPOS>MOLECULE
3R540
247   249    1
SMALL
USER_CHARGES


@<TRIPOS>ATOM
      1 CA          0.8470  -13.3011  -44.7833 C.3       0 UNK        -0.1800 
      2 C           2.1209  -13.4269  -45.6021 C.2       0 UNK         0.5000 
      3 O           3.1626  -13.8128  -45.0788 O.2       0 UNK        -0.5000 
      4 N           2.0266  -13.0912  -46.8913 N.am      1 UNK        -0.5000 
      5 CA          3.0699  -13.2392  -47.9125 C.3       1 UNK         0.1400 
      6 C6          3.3629  -14.7384  -48.2354 C.3       23 UNK        -0.0398 
      7 S7          1.8797  -15.7965  -48.3868 S.3       23 UNK        -0.2404 
      8 C8          1.7439  -16.0338  -50.1815 C.3       23 UNK        -0.0205 
      9 C9          0.6641  -17.0601  -50.4776 C.ar      23 UNK        -0.0193 
     10 C10        -0.6647  -16.6608  -50.6539 C.ar      23 UNK        -0.1150 
     11 C11        -1.6645  -17.6145  -50.8635 C.ar      23 UNK        -0.0193 
     12 C12        -1.3273  -18.9683  -50.8914 C.ar      23 UNK        -0.1150 
     13 C13        -0.0053  -19.3819  -50.7233 C.ar      23 UNK        -0.0193 
     14 C14         0.9902  -18.4188  -50.5304 C.ar      23 UNK        -0.1150 
     15 C15         0.3192  -20.8705  -50.7524 C.3       23 UNK        -0.0205 
     16 S16         1.4423  -21.4100  -49.4211 S.3       23 UNK        -0.2404 
     17 C17         0.5379  -20.9169  -47.9152 C.3       23 UNK        -0.0398 
     18 CA         -0.0652  -22.1227  -47.1529 C.3       11 UNK         0.1400 
     19 N           0.0229  -21.9424  -45.6960 N.am      11 UNK        -0.5000 
     20 C          -0.2738  -22.8770  -44.7805 C.2       10 UNK         0.5000 
     21 O          -0.6961  -23.9969  -45.0629 O.2       10 UNK        -0.5000 
     22 CA         -0.1246  -22.4836  -43.3011 C.3       10 UNK         0.1400 
     23 CB          1.3526  -22.4412  -42.8826 C.3       10 UNK        -0.1800 
     24 N          -0.7670  -21.2027  -43.0146 N.am      10 UNK        -0.5000 
     25 C          -2.0931  -21.0065  -43.0442 C.2       9 UNK         0.5000 
     26 O          -2.9118  -21.9107  -43.2102 O.2       9 UNK        -0.5000 
     27 CA         -2.5898  -19.5545  -42.9065 C.3       9 UNK         0.1400 
     28 CB         -2.7352  -19.1674  -41.4280 C.3       9 UNK        -0.1800 
     29 N          -1.7250  -18.5869  -43.5852 N.am      9 UNK        -0.5000 
     30 C          -1.4943  -18.5685  -44.9067 C.2       8 UNK         0.5000 
     31 O          -2.0186  -19.3443  -45.7043 O.2       8 UNK        -0.5000 
     32 CA         -0.4595  -17.5527  -45.4173 C.3       8 UNK         0.1400 
     33 CB         -1.0967  -16.1719  -45.6219 C.3       8 UNK        -0.1800 
     34 N           0.6951  -17.4504  -44.5238 N.am      8 UNK        -0.5000 
     35 C           1.5848  -18.4363  -44.3416 C.2       7 UNK         0.5000 
     36 O           1.5375  -19.5163  -44.9302 O.2       7 UNK        -0.5000 
     37 CA          2.6736  -18.1976  -43.2835 C.3       7 UNK         0.1400 
     38 CB          3.7913  -17.3037  -43.8397 C.3       7 UNK        -0.1800 
     39 N           2.1264  -17.6097  -42.0603 N.am      7 UNK        -0.5000 
     40 C           1.3329  -18.2694  -41.2033 C.2       6 UNK         0.5000 
     41 O           1.0000  -19.4444  -41.3561 O.2       6 UNK        -0.5000 
     42 CA          0.7928  -17.4913  -39.9859 C.3       6 UNK         0.1400 
     43 CB          1.7525  -17.6299  -38.7950 C.3       6 UNK        -0.1800 
     44 N           0.5525  -16.0709  -40.2425 N.am      6 UNK        -0.5000 
     45 C          -0.2761  -15.5823  -41.1745 C.2       5 UNK         0.5000 
     46 O          -0.9665  -16.2861  -41.9134 O.2       5 UNK        -0.5000 
     47 CA         -0.3123  -14.0506  -41.3415 C.3       5 UNK         0.1400 
     48 CB         -1.3614  -13.4427  -40.3990 C.3       5 UNK        -0.1800 
     49 N           0.9588  -13.3311  -41.1612 N.am      5 UNK        -0.5000 
     50 C           2.1801  -13.6624  -41.6081 C.2       4 UNK         0.5000 
     51 O           2.4526  -14.7476  -42.1213 O.2       4 UNK        -0.5000 
     52 CA          3.2650  -12.5707  -41.4872 C.3       4 UNK         0.1400 
     53 CB          4.6759  -13.1071  -41.7873 C.3       4 UNK        -0.1800 
     54 N           2.9969  -11.4381  -42.3785 N.am      4 UNK        -0.5000 
     55 C           2.0852  -10.4795  -42.1787 C.2       3 UNK         0.5000 
     56 O           1.3566  -10.4495  -41.1853 O.2       3 UNK        -0.5000 
     57 CA          1.9270   -9.3758  -43.2487 C.3       3 UNK         0.1400 
     58 CB          2.7378   -8.1241  -42.8615 C.3       3 UNK        -0.1800 
     59 N           2.1877   -9.7609  -44.6475 N.am      3 UNK        -0.5000 
     60 C           3.3459  -10.1129  -45.2223 C.2       2 UNK         0.5000 
     61 O           4.4010  -10.2673  -44.6027 O.2       2 UNK        -0.5000 
     62 CA          3.3217  -10.2966  -46.7527 C.3       2 UNK         0.1400 
     63 CB          3.5583   -8.9421  -47.4389 C.3       2 UNK        -0.1800 
     64 N           4.4021  -11.2005  -47.1458 N.am      2 UNK        -0.5000 
     65 C           4.3884  -12.4567  -47.6223 C.2       1 UNK         0.5000 
     66 O           5.4623  -13.0144  -47.8505 O.2       1 UNK        -0.5000 
     67 C          -1.4969  -22.4444  -47.6411 C.2       11 UNK         0.5000 
     68 O          -1.6667  -23.2260  -48.5806 O.2       11 UNK        -0.5000 
     69 N          -2.5054  -21.8837  -46.9577 N.am      12 UNK        -0.5000 
     70 CA         -3.9280  -22.1640  -47.1567 C.3       12 UNK         0.1400 
     71 CB         -4.7670  -21.2491  -46.2537 C.3       12 UNK        -0.1800 
     72 C          -4.3090  -23.6422  -46.9432 C.2       12 UNK         0.5000 
     73 O          -5.2435  -24.1168  -47.5879 O.2       12 UNK        -0.5000 
     74 N          -3.5697  -24.3450  -46.0760 N.am      13 UNK        -0.5000 
     75 CA         -3.7181  -25.7769  -45.8368 C.3       13 UNK         0.1400 
     76 CB         -3.5437  -26.0606  -44.3358 C.3       13 UNK        -0.1800 
     77 C          -2.7053  -26.5799  -46.6692 C.2       13 UNK         0.5000 
     78 O          -3.1009  -27.4991  -47.3857 O.2       13 UNK        -0.5000 
     79 N          -1.4187  -26.2216  -46.5580 N.am      14 UNK        -0.5000 
     80 CA         -0.2807  -26.9751  -47.0888 C.3       14 UNK         0.1400 
     81 CB          1.0203  -26.3919  -46.5158 C.3       14 UNK        -0.1800 
     82 C          -0.2107  -27.0277  -48.6239 C.2       14 UNK         0.5000 
     83 O           0.1945  -28.0544  -49.1707 O.2       14 UNK        -0.5000 
     84 N          -0.6056  -25.9342  -49.2858 N.am      15 UNK        -0.5000 
     85 CA         -0.6277  -25.8051  -50.7441 C.3       15 UNK         0.1400 
     86 CB          0.3079  -24.6565  -51.1524 C.3       15 UNK        -0.1800 
     87 C          -2.0569  -25.5787  -51.2667 C.2       15 UNK         0.5000 
     88 O          -2.2206  -25.1941  -52.4257 O.2       15 UNK        -0.5000 
     89 N          -3.0654  -25.7918  -50.4062 N.am      16 UNK        -0.5000 
     90 CA         -4.5003  -25.6383  -50.6698 C.3       16 UNK         0.1400 
     91 CB         -4.9918  -26.7663  -51.6007 C.3       16 UNK        -0.1800 
     92 C          -4.8720  -24.2327  -51.1894 C.2       16 UNK         0.5000 
     93 O          -5.6745  -24.1125  -52.1151 O.2       16 UNK        -0.5000 
     94 N          -4.2405  -23.1973  -50.6144 N.am      17 UNK        -0.5000 
     95 CA         -4.3708  -21.7825  -50.9862 C.3       17 UNK         0.1400 
     96 CB         -5.7993  -21.2665  -50.7151 C.3       17 UNK        -0.1800 
     97 C          -3.8834  -21.5193  -52.4249 C.2       17 UNK         0.5000 
     98 O          -4.5628  -20.8482  -53.2055 O.2       17 UNK        -0.5000 
     99 N          -2.7087  -22.0937  -52.7291 N.am      18 UNK        -0.5000 
    100 CA        -2.0248  -22.1012  -54.0244 C.3       18 UNK         0.1400 
    101 CB        -1.5829  -20.6761  -54.4200 C.3       18 UNK        -0.1800 
    102 C         -2.8710  -22.8063  -55.1020 C.2       18 UNK         0.5000 
    103 O         -3.0972  -22.2499  -56.1754 O.2       18 UNK        -0.5000 
    104 N         -3.3657  -24.0076  -54.7663 N.am      19 UNK        -0.5000 
    105 CA        -4.3133  -24.8171  -55.5433 C.3       19 UNK         0.1400 
    106 CB        -3.6323  -25.3930  -56.8018 C.3       19 UNK        -0.1800 
    107 C         -5.6177  -24.0487  -55.8535 C.2       19 UNK         0.5000 
    108 O         -6.0936  -24.0508  -56.9901 O.2       19 UNK        -0.5000 
    109 N         -6.1403  -23.3744  -54.8206 N.am      20 UNK        -0.5000 
    110 CA        -7.3178  -22.5047  -54.7936 C.3       20 UNK         0.1400 
    111 CB        -8.5957  -23.3015  -55.1275 C.3       20 UNK        -0.1800 
    112 C         -7.2004  -21.2098  -55.6274 C.2       20 UNK         0.5000 
    113 O         -8.2056  -20.5124  -55.7807 O.2       20 UNK        -0.5000 
    114 N         -6.0001  -20.8662  -56.1224 N.am      21 UNK        -0.5000 
    115 CA        -5.7508  -19.6619  -56.9245 C.3       21 UNK         0.1400 
    116 CB        -4.3290  -19.6949  -57.5010 C.3       21 UNK        -0.1800 
    117 C         -5.9875  -18.3458  -56.1601 C.2       21 UNK         0.5000 
    118 O         -6.3313  -17.3420  -56.7864 O.2       21 UNK        -0.5000 
    119 N         -5.8354  -18.3764  -54.8299 N.am      22 UNK        -0.5000 
    120 CA        -6.1912  -17.2647  -53.9330 C.3       22 UNK         0.1400 
    121 C         -7.7241  -17.1000  -53.6948 C.2       22 UNK         0.5000 
    122 N         -8.5878  -17.9865  -54.1787 N.am      22 UNK        -0.7600 
    123 O         -8.1434  -16.1355  -53.0607 O.2       22 UNK        -0.5000 
    124 C124       -5.4320  -17.3410  -52.5858 C.3       23 UNK        -0.0398 
    125 S125       -3.6207  -17.3434  -52.7842 S.3       23 UNK        -0.2404 
    126 C126       -3.1155  -17.2045  -51.0436 C.3       23 UNK        -0.0205 
    127 H127        0.6784  -14.2258  -44.2341 H         1 UNK         0.0600 
    128 H128       -0.0253  -13.1166  -45.4106 H         1 UNK         0.0600 
    129 H129        0.9293  -12.4821  -44.0721 H         1 UNK         0.0600 
    130 H130        1.1317  -12.7872  -47.2472 H         1 UNK         0.3000 
    131 H131        2.6581  -12.7900  -48.8171 H         1 UNK         0.0600 
    132 H132        3.9572  -14.8213  -49.1468 H         1 UNK         0.0800 
    133 H133        3.9702  -15.1786  -47.4422 H         1 UNK         0.0800 
    134 H134        1.5125  -15.0826  -50.6631 H         1 UNK         0.0800 
    135 H135        2.7001  -16.3695  -50.5858 H         1 UNK         0.0800 
    136 H136       -0.9205  -15.6114  -50.6111 H         1 UNK         0.1150 
    137 H137       -2.1027  -19.6994  -51.0532 H         1 UNK         0.1150 
    138 H138        2.0165  -18.7277  -50.3906 H         1 UNK         0.1150 
    139 H139       -0.5977  -21.4563  -50.6822 H         1 UNK         0.0800 
    140 H140        0.7702  -21.1130  -51.7152 H         1 UNK         0.0800 
    141 H141       -0.2119  -20.1529  -48.1280 H         1 UNK         0.0800 
    142 H142        1.2818  -20.4156  -47.2975 H         1 UNK         0.0800 
    143 H143        0.5401  -23.0047  -47.3715 H         1 UNK         0.0600 
    144 H144        0.3850  -21.0492  -45.3742 H         1 UNK         0.3000 
    145 H145       -0.6184  -23.2520  -42.7023 H         1 UNK         0.0600 
    146 H146        1.4521  -22.2402  -41.8158 H         1 UNK         0.0600 
    147 H147        1.8411  -23.3960  -43.0806 H         1 UNK         0.0600 
    148 H148        1.9073  -21.6714  -43.4185 H         1 UNK         0.0600 
    149 H149       -0.1568  -20.4217  -42.8014 H         1 UNK         0.3000 
    150 H150       -3.5759  -19.4972  -43.3720 H         1 UNK         0.0600 
    151 H151       -3.1212  -18.1536  -41.3200 H         1 UNK         0.0600 
    152 H152       -3.4279  -19.8368  -40.9165 H         1 UNK         0.0600 
    153 H153       -1.7813  -19.2214  -40.9044 H         1 UNK         0.0600 
    154 H154       -1.2880  -17.8784  -43.0026 H         1 UNK         0.3000 
    155 H155       -0.1058  -17.9039  -46.3896 H         1 UNK         0.0600 
    156 H156       -1.3852  -15.7125  -44.6759 H         1 UNK         0.0600 
    157 H157       -1.9923  -16.2435  -46.2404 H         1 UNK         0.0600 
    158 H158       -0.4088  -15.5008  -46.1349 H         1 UNK         0.0600 
    159 H159        0.7780  -16.6145  -43.9642 H         1 UNK         0.3000 
    160 H160        3.1116  -19.1654  -43.0299 H         1 UNK         0.0600 
    161 H161        3.4168  -16.3204  -44.1247 H         1 UNK         0.0600 
    162 H162        4.2435  -17.7503  -44.7260 H         1 UNK         0.0600 
    163 H163        4.5836  -17.1583  -43.1054 H         1 UNK         0.0600 
    164 H164        2.3103  -16.6201  -41.9094 H         1 UNK         0.3000 
    165 H165       -0.1620  -17.9393  -39.7059 H         1 UNK         0.0600 
    166 H166        1.3404  -17.1651  -37.8991 H         1 UNK         0.0600 
    167 H167        1.9349  -18.6795  -38.5604 H         1 UNK         0.0600 
    168 H168        2.7182  -17.1666  -39.0014 H         1 UNK         0.0600 
    169 H169        1.0997  -15.4147  -39.7056 H         1 UNK         0.3000 
    170 H170       -0.6426  -13.8550  -42.3618 H         1 UNK         0.0600 
    171 H171       -2.3296  -13.9307  -40.5207 H         1 UNK         0.0600 
    172 H172       -1.0692  -13.5471  -39.3534 H         1 UNK         0.0600 
    173 H173       -1.5070  -12.3815  -40.6022 H         1 UNK         0.0600 
    174 H174        0.8683  -12.3863  -40.8023 H         1 UNK         0.3000 
    175 H175        3.2591  -12.2158  -40.4546 H         1 UNK         0.0600 
    176 H176        4.7637  -13.4533  -42.8181 H         1 UNK         0.0600 
    177 H177        5.4319  -12.3382  -41.6280 H         1 UNK         0.0600 
    178 H178        4.9228  -13.9466  -41.1362 H         1 UNK         0.0600 
    179 H179        3.5718  -11.3694  -43.2123 H         1 UNK         0.3000 
    180 H180        0.8735   -9.0923  -43.2260 H         1 UNK         0.0600 
    181 H181        3.8096   -8.3227  -42.8405 H         1 UNK         0.0600 
    182 H182        2.4550   -7.7683  -41.8699 H         1 UNK         0.0600 
    183 H183        2.5611   -7.3071  -43.5611 H         1 UNK         0.0600 
    184 H184        1.3794   -9.6821  -45.2491 H         1 UNK         0.3000 
    185 H185        2.3454  -10.6518  -47.0743 H         1 UNK         0.0600 
    186 H186        2.7721   -8.2300  -47.1843 H         1 UNK         0.0600 
    187 H187        4.5102   -8.4986  -47.1434 H         1 UNK         0.0600 
    188 H188        3.5613   -9.0459  -48.5242 H         1 UNK         0.0600 
    189 H189        5.3130  -10.8284  -46.9206 H         1 UNK         0.3000 
    190 H190       -2.2800  -21.1842  -46.2556 H         1 UNK         0.3000 
    191 H191       -4.1680  -21.9105  -48.1861 H         1 UNK         0.0600 
    192 H192       -4.5605  -20.1978  -46.4548 H         1 UNK         0.0600 
    193 H193       -5.8331  -21.4073  -46.4212 H         1 UNK         0.0600 
    194 H194       -4.5708  -21.4343  -45.1984 H         1 UNK         0.0600 
    195 H195       -2.7954  -23.8867  -45.6113 H         1 UNK         0.3000 
    196 H196       -4.7204  -26.1058  -46.1198 H         1 UNK         0.0600 
    197 H197       -3.6389  -27.1268  -44.1261 H         1 UNK         0.0600 
    198 H198       -4.3045  -25.5447  -43.7498 H         1 UNK         0.0600 
    199 H199       -2.5685  -25.7388  -43.9687 H         1 UNK         0.0600 
    200 H200       -1.1833  -25.4281  -45.9630 H         1 UNK         0.3000 
    201 H201       -0.3744  -28.0029  -46.7320 H         1 UNK         0.0600 
    202 H202        1.0201  -26.4226  -45.4260 H         1 UNK         0.0600 
    203 H203        1.1646  -25.3550  -46.8207 H         1 UNK         0.0600 
    204 H204        1.8877  -26.9586  -46.8568 H         1 UNK         0.0600 
    205 H205       -0.9321  -25.1249  -48.7672 H         1 UNK         0.3000 
    206 H206       -0.2682  -26.7179  -51.2226 H         1 UNK         0.0600 
    207 H207        1.3218  -24.8249  -50.7894 H         1 UNK         0.0600 
    208 H208        0.3643  -24.5534  -52.2367 H         1 UNK         0.0600 
    209 H209       -0.0375  -23.7082  -50.7471 H         1 UNK         0.0600 
    210 H210       -2.8240  -26.1210  -49.4815 H         1 UNK         0.3000 
    211 H211       -5.0078  -25.7572  -49.7121 H         1 UNK         0.0600 
    212 H212       -4.5472  -26.6949  -52.5936 H         1 UNK         0.0600 
    213 H213       -6.0750  -26.7306  -51.7229 H         1 UNK         0.0600 
    214 H214       -4.7453  -27.7468  -51.1936 H         1 UNK         0.0600 
    215 H215       -3.5596  -23.4070  -49.8948 H         1 UNK         0.3000 
    216 H216       -3.6948  -21.2300  -50.3338 H         1 UNK         0.0600 
    217 H217       -5.8455  -20.1831  -50.8146 H         1 UNK         0.0600 
    218 H218       -6.1237  -21.5112  -49.7038 H         1 UNK         0.0600 
    219 H219       -6.5260  -21.6889  -51.4093 H         1 UNK         0.0600 
    220 H220       -2.2948  -22.6922  -52.0295 H         1 UNK         0.3000 
    221 H221       -1.1239  -22.7036  -53.8986 H         1 UNK         0.0600 
    222 H222       -2.4334  -20.0104  -54.5686 H         1 UNK         0.0600 
    223 H223       -0.9469  -20.2340  -53.6536 H         1 UNK         0.0600 
    224 H224       -1.0114  -20.6879  -55.3485 H         1 UNK         0.0600 
    225 H225       -3.0898  -24.3970  -53.8668 H         1 UNK         0.3000 
    226 H226       -4.5959  -25.6562  -54.9064 H         1 UNK         0.0600 
    227 H227       -2.7290  -25.9450  -56.5421 H         1 UNK         0.0600 
    228 H228       -4.2960  -26.0837  -57.3229 H         1 UNK         0.0600 
    229 H229       -3.3554  -24.6098  -57.5082 H         1 UNK         0.0600 
    230 H230       -5.6938  -23.4890  -53.9139 H         1 UNK         0.3000 
    231 H231       -7.4039  -22.1742  -53.7577 H         1 UNK         0.0600 
    232 H232       -8.6192  -23.6113  -56.1725 H         1 UNK         0.0600 
    233 H233       -9.4897  -22.7043  -54.9452 H         1 UNK         0.0600 
    234 H234       -8.6748  -24.1957  -54.5091 H         1 UNK         0.0600 
    235 H235       -5.2026  -21.4631  -55.9389 H         1 UNK         0.3000 
    236 H236       -6.4509  -19.6795  -57.7623 H         1 UNK         0.0600 
    237 H237       -4.1627  -20.5951  -58.0928 H         1 UNK         0.0600 
    238 H238       -4.1529  -18.8400  -58.1549 H         1 UNK         0.0600 
    239 H239       -3.5767  -19.6627  -56.7128 H         1 UNK         0.0600 
    240 H240       -5.5174  -19.2321  -54.3883 H         1 UNK         0.3000 
    241 H241       -5.8755  -16.3398  -54.4196 H         1 UNK         0.0600 
    242 H242       -9.5725  -17.8505  -54.0138 H         1 UNK         0.3800 
    243 H243       -8.2829  -18.7828  -54.7271 H         1 UNK         0.3800 
    244 H244       -5.6966  -16.4942  -51.9497 H         1 UNK         0.0800 
    245 H245       -5.7233  -18.2396  -52.0424 H         1 UNK         0.0800 
    246 H246       -3.7460  -17.8445  -50.4243 H         1 UNK         0.0800 
    247 H247       -3.2768  -16.1817  -50.6996 H         1 UNK         0.0800 
@<TRIPOS>BOND
     1    1    2 1    
     2    1  127 1    
     3    1  128 1    
     4    1  129 1    
     5    2    3 2    
     6    2    4 am   BACKBONE|DICT|INTERRES
     7    4    5 1    
     8    4  130 1    
     9    5    6 1    
    10    5   65 1    
    11    5  131 1    
    12    6    7 1    
    13    6  132 1    
    14    6  133 1    
    15    7    8 1    
    16    8    9 1    
    17    8  134 1    
    18    8  135 1    
    19    9   10 ar   
    20    9   14 ar   
    21   10   11 ar   
    22   10  136 1    
    23   11   12 ar   
    24   11  126 1    
    25   12   13 ar   
    26   12  137 1    
    27   13   14 ar   
    28   13   15 1    
    29   14  138 1    
    30   15   16 1    
    31   15  139 1    
    32   15  140 1    
    33   16   17 1    
    34   17   18 1    
    35   17  141 1    
    36   17  142 1    
    37   18   19 1    
    38   18   67 1    
    39   18  143 1    
    40   19   20 am   BACKBONE|DICT|INTERRES
    41   19  144 1    
    42   20   21 2    
    43   20   22 1    
    44   22   23 1    
    45   22   24 1    
    46   22  145 1    
    47   23  146 1    
    48   23  147 1    
    49   23  148 1    
    50   24   25 am   BACKBONE|DICT|INTERRES
    51   24  149 1    
    52   25   26 2    
    53   25   27 1    
    54   27   28 1    
    55   27   29 1    
    56   27  150 1    
    57   28  151 1    
    58   28  152 1    
    59   28  153 1    
    60   29   30 am   BACKBONE|DICT|INTERRES
    61   29  154 1    
    62   30   31 2    
    63   30   32 1    
    64   32   33 1    
    65   32   34 1    
    66   32  155 1    
    67   33  156 1    
    68   33  157 1    
    69   33  158 1    
    70   34   35 am   BACKBONE|DICT|INTERRES
    71   34  159 1    
    72   35   36 2    
    73   35   37 1    
    74   37   38 1    
    75   37   39 1    
    76   37  160 1    
    77   38  161 1    
    78   38  162 1    
    79   38  163 1    
    80   39   40 am   BACKBONE|DICT|INTERRES
    81   39  164 1    
    82   40   41 2    
    83   40   42 1    
    84   42   43 1    
    85   42   44 1    
    86   42  165 1    
    87   43  166 1    
    88   43  167 1    
    89   43  168 1    
    90   44   45 am   BACKBONE|DICT|INTERRES
    91   44  169 1    
    92   45   46 2    
    93   45   47 1    
    94   47   48 1    
    95   47   49 1    
    96   47  170 1    
    97   48  171 1    
    98   48  172 1    
    99   48  173 1    
   100   49   50 am   BACKBONE|DICT|INTERRES
   101   49  174 1    
   102   50   51 2    
   103   50   52 1    
   104   52   53 1    
   105   52   54 1    
   106   52  175 1    
   107   53  176 1    
   108   53  177 1    
   109   53  178 1    
   110   54   55 am   BACKBONE|DICT|INTERRES
   111   54  179 1    
   112   55   56 2    
   113   55   57 1    
   114   57   58 1    
   115   57   59 1    
   116   57  180 1    
   117   58  181 1    
   118   58  182 1    
   119   58  183 1    
   120   59   60 am   BACKBONE|DICT|INTERRES
   121   59  184 1    
   122   60   61 2    
   123   60   62 1    
   124   62   63 1    
   125   62   64 1    
   126   62  185 1    
   127   63  186 1    
   128   63  187 1    
   129   63  188 1    
   130   64   65 am   BACKBONE|DICT|INTERRES
   131   64  189 1    
   132   65   66 2    
   133   67   68 2    
   134   67   69 am   BACKBONE|DICT|INTERRES
   135   69   70 1    
   136   69  190 1    
   137   70   71 1    
   138   70   72 1    
   139   70  191 1    
   140   71  192 1    
   141   71  193 1    
   142   71  194 1    
   143   72   73 2    
   144   72   74 am   BACKBONE|DICT|INTERRES
   145   74   75 1    
   146   74  195 1    
   147   75   76 1    
   148   75   77 1    
   149   75  196 1    
   150   76  197 1    
   151   76  198 1    
   152   76  199 1    
   153   77   78 2    
   154   77   79 am   BACKBONE|DICT|INTERRES
   155   79   80 1    
   156   79  200 1    
   157   80   81 1    
   158   80   82 1    
   159   80  201 1    
   160   81  202 1    
   161   81  203 1    
   162   81  204 1    
   163   82   83 2    
   164   82   84 am   BACKBONE|DICT|INTERRES
   165   84   85 1    
   166   84  205 1    
   167   85   86 1    
   168   85   87 1    
   169   85  206 1    
   170   86  207 1    
   171   86  208 1    
   172   86  209 1    
   173   87   88 2    
   174   87   89 am   BACKBONE|DICT|INTERRES
   175   89   90 1    
   176   89  210 1    
   177   90   91 1    
   178   90   92 1    
   179   90  211 1    
   180   91  212 1    
   181   91  213 1    
   182   91  214 1    
   183   92   93 2    
   184   92   94 am   BACKBONE|DICT|INTERRES
   185   94   95 1    
   186   94  215 1    
   187   95   96 1    
   188   95   97 1    
   189   95  216 1    
   190   96  217 1    
   191   96  218 1    
   192   96  219 1    
   193   97   98 2    
   194   97   99 am   BACKBONE|DICT|INTERRES
   195   99  100 1    
   196   99  220 1    
   197  100  101 1    
   198  100  102 1    
   199  100  221 1    
   200  101  222 1    
   201  101  223 1    
   202  101  224 1    
   203  102  103 2    
   204  102  104 am   BACKBONE|DICT|INTERRES
   205  104  105 1    
   206  104  225 1    
   207  105  106 1    
   208  105  107 1    
   209  105  226 1    
   210  106  227 1    
   211  106  228 1    
   212  106  229 1    
   213  107  108 2    
   214  107  109 am   BACKBONE|DICT|INTERRES
   215  109  110 1    
   216  109  230 1    
   217  110  111 1    
   218  110  112 1    
   219  110  231 1    
   220  111  232 1    
   221  111  233 1    
   222  111  234 1    
   223  112  113 2    
   224  112  114 am   BACKBONE|DICT|INTERRES
   225  114  115 1    
   226  114  235 1    
   227  115  116 1    
   228  115  117 1    
   229  115  236 1    
   230  116  237 1    
   231  116  238 1    
   232  116  239 1    
   233  117  118 2    
   234  117  119 am   BACKBONE|DICT|INTERRES
   235  119  120 1    
   236  119  240 1    
   237  120  121 1    
   238  120  124 1    
   239  120  241 1    
   240  121  122 am   BACKBONE|DICT|INTERRES
   241  121  123 2    
   242  122  242 1    
   243  122  243 1    
   244  124  125 1    
   245  124  244 1    
   246  124  245 1    
   247  125  126 1    
   248  126  246 1    
   249  126  247 1    
@<TRIPOS>SUBSTRUCTURE
     1 UNK         1 GROUP             0       ****    0 ROOT    
