@<TRIPOS>MOLECULE
3R540
247   249    1
SMALL
USER_CHARGES


@<TRIPOS>ATOM
      1 CA         -6.5189  -17.2061  -47.4961 C.3       0 UNK        -0.1800 
      2 C          -5.7786  -15.8782  -47.5905 C.2       0 UNK         0.5000 
      3 O          -6.4069  -14.8349  -47.7719 O.2       0 UNK        -0.5000 
      4 N          -4.4462  -15.9183  -47.4799 N.am      1 UNK        -0.5000 
      5 CA         -3.5616  -14.7493  -47.5029 C.3       1 UNK         0.1400 
      6 C6         -2.1137  -15.1739  -47.8424 C.3       23 UNK        -0.0398 
      7 S7         -1.1195  -13.8449  -48.6002 S.3       23 UNK        -0.2404 
      8 C8          0.4285  -14.7308  -48.9774 C.3       23 UNK        -0.0205 
      9 C9          0.2240  -15.7814  -50.0586 C.ar      23 UNK        -0.0193 
     10 C10         0.2183  -15.4174  -51.4085 C.ar      23 UNK        -0.1150 
     11 C11        -0.0225  -16.3737  -52.4005 C.ar      23 UNK        -0.0193 
     12 C12        -0.2572  -17.7002  -52.0303 C.ar      23 UNK        -0.1150 
     13 C13        -0.2463  -18.0776  -50.6854 C.ar      23 UNK        -0.0193 
     14 C14         0.0102  -17.1162  -49.7066 C.ar      23 UNK        -0.1150 
     15 C15        -0.5293  -19.5179  -50.2938 C.3       23 UNK        -0.0205 
     16 S16        -2.2534  -19.7291  -49.7427 S.3       23 UNK        -0.2404 
     17 C17        -2.0477  -19.7546  -47.9342 C.3       23 UNK        -0.0398 
     18 CA         -1.8089  -21.1988  -47.4123 C.3       11 UNK         0.1400 
     19 N          -0.4929  -21.3730  -46.7915 N.am      11 UNK        -0.5000 
     20 C           0.0293  -22.5568  -46.4391 C.2       10 UNK         0.5000 
     21 O          -0.5257  -23.6350  -46.6461 O.2       10 UNK        -0.5000 
     22 CA          1.3681  -22.5326  -45.6797 C.3       10 UNK         0.1400 
     23 CB          2.5493  -22.3860  -46.6500 C.3       10 UNK        -0.1800 
     24 N           1.4162  -21.4758  -44.6681 N.am      10 UNK        -0.5000 
     25 C           0.6153  -21.4252  -43.5930 C.2       9 UNK         0.5000 
     26 O          -0.2003  -22.3028  -43.3078 O.2       9 UNK        -0.5000 
     27 CA          0.6956  -20.1563  -42.7241 C.3       9 UNK         0.1400 
     28 CB          1.8967  -20.2160  -41.7691 C.3       9 UNK        -0.1800 
     29 N           0.7677  -18.9342  -43.5245 N.am      9 UNK        -0.5000 
     30 C          -0.1850  -18.5124  -44.3666 C.2       8 UNK         0.5000 
     31 O          -1.2648  -19.0804  -44.5228 O.2       8 UNK        -0.5000 
     32 CA          0.1512  -17.2897  -45.2343 C.3       8 UNK         0.1400 
     33 CB         -0.0906  -15.9766  -44.4745 C.3       8 UNK        -0.1800 
     34 N           1.5222  -17.3298  -45.7427 N.am      8 UNK        -0.5000 
     35 C           1.9693  -18.2247  -46.6350 C.2       7 UNK         0.5000 
     36 O           1.2634  -19.0994  -47.1329 O.2       7 UNK        -0.5000 
     37 CA          3.4589  -18.1496  -47.0083 C.3       7 UNK         0.1400 
     38 CB          3.6957  -17.0462  -48.0509 C.3       7 UNK        -0.1800 
     39 N           4.3110  -17.9168  -45.8421 N.am      7 UNK        -0.5000 
     40 C           4.4707  -18.7898  -44.8364 C.2       6 UNK         0.5000 
     41 O           3.9618  -19.9105  -44.8150 O.2       6 UNK        -0.5000 
     42 CA          5.2860  -18.2998  -43.6234 C.3       6 UNK         0.1400 
     43 CB          6.7878  -18.5233  -43.8540 C.3       6 UNK        -0.1800 
     44 N           5.0460  -16.8897  -43.2926 N.am      6 UNK        -0.5000 
     45 C           3.8494  -16.3841  -42.9650 C.2       5 UNK         0.5000 
     46 O           2.8181  -17.0583  -42.9266 O.2       5 UNK        -0.5000 
     47 CA          3.7851  -14.8673  -42.7016 C.3       5 UNK         0.1400 
     48 CB          3.8071  -14.0968  -44.0320 C.3       5 UNK        -0.1800 
     49 N           2.5729  -14.4897  -41.9743 N.am      5 UNK        -0.5000 
     50 C           2.2931  -14.8263  -40.7080 C.2       4 UNK         0.5000 
     51 O           3.0922  -15.3960  -39.9624 O.2       4 UNK        -0.5000 
     52 CA          0.8899  -14.4462  -40.1984 C.3       4 UNK         0.1400 
     53 CB          0.8278  -14.3142  -38.6654 C.3       4 UNK        -0.1800 
     54 N           0.4418  -13.1914  -40.8062 N.am      4 UNK        -0.5000 
     55 C          -0.7129  -13.0051  -41.4558 C.2       3 UNK         0.5000 
     56 O          -1.5546  -13.8914  -41.6183 O.2       3 UNK        -0.5000 
     57 CA         -0.9881  -11.5706  -41.9607 C.3       3 UNK         0.1400 
     58 CB          0.2853  -10.8307  -42.4335 C.3       3 UNK        -0.1800 
     59 N          -2.0387  -11.5113  -42.9838 N.am      3 UNK        -0.5000 
     60 C          -1.9951  -12.0117  -44.2265 C.2       2 UNK         0.5000 
     61 O          -1.0154  -12.5813  -44.7137 O.2       2 UNK        -0.5000 
     62 CA         -3.2580  -11.7728  -45.0789 C.3       2 UNK         0.1400 
     63 CB         -3.2937  -10.3239  -45.5928 C.3       2 UNK        -0.1800 
     64 N          -3.3337  -12.6707  -46.2302 N.am      2 UNK        -0.5000 
     65 C          -3.6298  -13.9734  -46.1684 C.2       1 UNK         0.5000 
     66 O          -3.9321  -14.5590  -45.1248 O.2       1 UNK        -0.5000 
     67 C          -2.9498  -21.6677  -46.4904 C.2       11 UNK         0.5000 
     68 O          -3.8458  -22.3684  -46.9569 O.2       11 UNK        -0.5000 
     69 N          -2.8822  -21.3128  -45.2001 N.am      12 UNK        -0.5000 
     70 CA         -3.8281  -21.7452  -44.1708 C.3       12 UNK         0.1400 
     71 CB         -3.5339  -21.0134  -42.8530 C.3       12 UNK        -0.1800 
     72 C          -3.8264  -23.2717  -43.9713 C.2       12 UNK         0.5000 
     73 O          -4.8990  -23.8735  -43.9130 O.2       12 UNK        -0.5000 
     74 N          -2.6303  -23.8778  -43.9352 N.am      13 UNK        -0.5000 
     75 CA         -2.4340  -25.3293  -43.8723 C.3       13 UNK         0.1400 
     76 CB         -0.9447  -25.6349  -43.6539 C.3       13 UNK        -0.1800 
     77 C          -2.9685  -26.0668  -45.1173 C.2       13 UNK         0.5000 
     78 O          -3.5077  -27.1663  -44.9891 O.2       13 UNK        -0.5000 
     79 N          -2.8479  -25.4303  -46.2895 N.am      14 UNK        -0.5000 
     80 CA         -3.3865  -25.8939  -47.5695 C.3       14 UNK         0.1400 
     81 CB         -2.5709  -25.2546  -48.7068 C.3       14 UNK        -0.1800 
     82 C          -4.8907  -25.5989  -47.7547 C.2       14 UNK         0.5000 
     83 O          -5.4286  -25.9176  -48.8149 O.2       14 UNK        -0.5000 
     84 N          -5.5408  -24.9668  -46.7645 N.am      15 UNK        -0.5000 
     85 CA         -6.9433  -24.5298  -46.7651 C.3       15 UNK         0.1400 
     86 CB         -7.8917  -25.7461  -46.7280 C.3       15 UNK        -0.1800 
     87 C          -7.2654  -23.5450  -47.9120 C.2       15 UNK         0.5000 
     88 O          -8.3413  -23.6112  -48.5083 O.2       15 UNK        -0.5000 
     89 N          -6.2980  -22.6654  -48.2068 N.am      16 UNK        -0.5000 
     90 CA         -6.2695  -21.6458  -49.2582 C.3       16 UNK         0.1400 
     91 CB         -7.4149  -20.6276  -49.0876 C.3       16 UNK        -0.1800 
     92 C          -6.1842  -22.2009  -50.6954 C.2       16 UNK         0.5000 
     93 O          -6.2407  -21.4122  -51.6382 O.2       16 UNK        -0.5000 
     94 N          -5.9954  -23.5190  -50.8699 N.am      17 UNK        -0.5000 
     95 CA         -5.8429  -24.1544  -52.1855 C.3       17 UNK         0.1400 
     96 CB         -5.9176  -25.6801  -52.0333 C.3       17 UNK        -0.1800 
     97 C          -4.5387  -23.7493  -52.9004 C.2       17 UNK         0.5000 
     98 O          -4.5001  -23.7047  -54.1304 O.2       17 UNK        -0.5000 
     99 N          -3.5052  -23.4247  -52.1118 N.am      18 UNK        -0.5000 
    100 CA        -2.2021  -22.9543  -52.5797 C.3       18 UNK         0.1400 
    101 CB        -1.1805  -23.1103  -51.4426 C.3       18 UNK        -0.1800 
    102 C         -2.2136  -21.5074  -53.1135 C.2       18 UNK         0.5000 
    103 O         -1.2229  -21.0940  -53.7178 O.2       18 UNK        -0.5000 
    104 N         -3.3110  -20.7607  -52.9080 N.am      19 UNK        -0.5000 
    105 CA        -3.4645  -19.3682  -53.3432 C.3       19 UNK         0.1400 
    106 CB        -4.7637  -18.7845  -52.7709 C.3       19 UNK        -0.1800 
    107 C         -3.4211  -19.2005  -54.8731 C.2       19 UNK         0.5000 
    108 O         -2.9403  -18.1779  -55.3613 O.2       19 UNK        -0.5000 
    109 N         -3.8976  -20.2226  -55.5967 N.am      20 UNK        -0.5000 
    110 CA        -3.8502  -20.3002  -57.0558 C.3       20 UNK         0.1400 
    111 CB        -4.8780  -21.3403  -57.5274 C.3       20 UNK        -0.1800 
    112 C         -2.4480  -20.6485  -57.5933 C.2       20 UNK         0.5000 
    113 O         -2.1458  -20.3159  -58.7400 O.2       20 UNK        -0.5000 
    114 N         -1.6272  -21.3197  -56.7734 N.am      21 UNK        -0.5000 
    115 CA        -0.2661  -21.7252  -57.1152 C.3       21 UNK         0.1400 
    116 CB         0.0952  -23.0135  -56.3566 C.3       21 UNK        -0.1800 
    117 C          0.7360  -20.6005  -56.8140 C.2       21 UNK         0.5000 
    118 O          1.4934  -20.2104  -57.7032 O.2       21 UNK        -0.5000 
    119 N          0.7095  -20.0943  -55.5722 N.am      22 UNK        -0.5000 
    120 CA         1.5853  -19.0228  -55.0648 C.3       22 UNK         0.1400 
    121 C          3.1051  -19.3855  -55.0255 C.2       22 UNK         0.5000 
    122 N          3.4665  -20.6605  -54.9395 N.am      22 UNK        -0.7600 
    123 O          3.9715  -18.5160  -55.0543 O.2       22 UNK        -0.5000 
    124 C124        1.2694  -17.6572  -55.7405 C.3       23 UNK        -0.0398 
    125 S125        1.5647  -16.2098  -54.6628 S.3       23 UNK        -0.2404 
    126 C126       -0.0560  -15.9677  -53.8661 C.3       23 UNK        -0.0205 
    127 H127       -7.1963  -17.1985  -46.6422 H         1 UNK         0.0600 
    128 H128       -5.8342  -18.0467  -47.3799 H         1 UNK         0.0600 
    129 H129       -7.1080  -17.3722  -48.3981 H         1 UNK         0.0600 
    130 H130       -3.9991  -16.8013  -47.2866 H         1 UNK         0.3000 
    131 H131       -3.9219  -14.0910  -48.2971 H         1 UNK         0.0600 
    132 H132       -2.1460  -15.9963  -48.5568 H         1 UNK         0.0800 
    133 H133       -1.5962  -15.5507  -46.9620 H         1 UNK         0.0800 
    134 H134        0.8202  -15.1855  -48.0659 H         1 UNK         0.0800 
    135 H135        1.1789  -14.0102  -49.3057 H         1 UNK         0.0800 
    136 H136        0.3833  -14.3854  -51.6846 H         1 UNK         0.1150 
    137 H137       -0.4577  -18.4397  -52.7907 H         1 UNK         0.1150 
    138 H138        0.0075  -17.3995  -48.6658 H         1 UNK         0.1150 
    139 H139       -0.3498  -20.1748  -51.1451 H         1 UNK         0.0800 
    140 H140        0.1657  -19.8414  -49.5177 H         1 UNK         0.0800 
    141 H141       -2.9420  -19.2997  -47.5038 H         1 UNK         0.0800 
    142 H142       -1.2375  -19.0857  -47.6530 H         1 UNK         0.0800 
    143 H143       -1.8212  -21.8881  -48.2585 H         1 UNK         0.0600 
    144 H144        0.0605  -20.5343  -46.6433 H         1 UNK         0.3000 
    145 H145        1.4728  -23.4897  -45.1646 H         1 UNK         0.0600 
    146 H146        3.5012  -22.4378  -46.1213 H         1 UNK         0.0600 
    147 H147        2.5450  -23.1852  -47.3921 H         1 UNK         0.0600 
    148 H148        2.5182  -21.4392  -47.1883 H         1 UNK         0.0600 
    149 H149        2.0987  -20.7385  -44.8098 H         1 UNK         0.3000 
    150 H150       -0.2147  -20.1059  -42.1235 H         1 UNK         0.0600 
    151 H151        1.8442  -21.0988  -41.1309 H         1 UNK         0.0600 
    152 H152        1.9254  -19.3425  -41.1172 H         1 UNK         0.0600 
    153 H153        2.8415  -20.2578  -42.3113 H         1 UNK         0.0600 
    154 H154        1.6072  -18.3678  -43.4225 H         1 UNK         0.3000 
    155 H155       -0.5184  -17.3144  -46.0941 H         1 UNK         0.0600 
    156 H156        0.5124  -15.9110  -43.5694 H         1 UNK         0.0600 
    157 H157       -1.1356  -15.8867  -44.1741 H         1 UNK         0.0600 
    158 H158        0.1414  -15.1111  -45.0953 H         1 UNK         0.0600 
    159 H159        2.1802  -16.6908  -45.3239 H         1 UNK         0.3000 
    160 H160        3.7409  -19.1068  -47.4520 H         1 UNK         0.0600 
    161 H161        3.4561  -16.0575  -47.6574 H         1 UNK         0.0600 
    162 H162        3.0764  -17.2057  -48.9350 H         1 UNK         0.0600 
    163 H163        4.7343  -17.0332  -48.3817 H         1 UNK         0.0600 
    164 H164        4.7687  -17.0198  -45.7787 H         1 UNK         0.3000 
    165 H165        4.9814  -18.8973  -42.7617 H         1 UNK         0.0600 
    166 H166        7.3658  -18.2673  -42.9659 H         1 UNK         0.0600 
    167 H167        6.9956  -19.5691  -44.0846 H         1 UNK         0.0600 
    168 H168        7.1627  -17.9232  -44.6840 H         1 UNK         0.0600 
    169 H169        5.8496  -16.2785  -43.3150 H         1 UNK         0.3000 
    170 H170        4.6530  -14.5796  -42.1048 H         1 UNK         0.0600 
    171 H171        4.7114  -14.3144  -44.6016 H         1 UNK         0.0600 
    172 H172        2.9528  -14.3521  -44.6607 H         1 UNK         0.0600 
    173 H173        3.7861  -13.0199  -43.8630 H         1 UNK         0.0600 
    174 H174        1.8475  -14.0414  -42.5134 H         1 UNK         0.3000 
    175 H175        0.2331  -15.2671  -40.4935 H         1 UNK         0.0600 
    176 H176        1.5051  -13.5408  -38.3015 H         1 UNK         0.0600 
    177 H177       -0.1793  -14.0609  -38.3337 H         1 UNK         0.0600 
    178 H178        1.1014  -15.2504  -38.1773 H         1 UNK         0.0600 
    179 H179        1.0807  -12.4127  -40.7227 H         1 UNK         0.3000 
    180 H180       -1.3831  -11.0241  -41.1031 H         1 UNK         0.0600 
    181 H181        0.0380   -9.8592  -42.8616 H         1 UNK         0.0600 
    182 H182        0.8298  -11.3973  -43.1897 H         1 UNK         0.0600 
    183 H183        0.9697  -10.6441  -41.6056 H         1 UNK         0.0600 
    184 H184       -2.8999  -11.0794  -42.6801 H         1 UNK         0.3000 
    185 H185       -4.1352  -11.9428  -44.4508 H         1 UNK         0.0600 
    186 H186       -4.1972  -10.1326  -46.1723 H         1 UNK         0.0600 
    187 H187       -3.2839   -9.6112  -44.7673 H         1 UNK         0.0600 
    188 H188       -2.4344  -10.1018  -46.2270 H         1 UNK         0.0600 
    189 H189       -3.0329  -12.2845  -47.1134 H         1 UNK         0.3000 
    190 H190       -2.1422  -20.6810  -44.9026 H         1 UNK         0.3000 
    191 H191       -4.8282  -21.4564  -44.5008 H         1 UNK         0.0600 
    192 H192       -4.2514  -21.2955  -42.0815 H         1 UNK         0.0600 
    193 H193       -3.5999  -19.9326  -42.9800 H         1 UNK         0.0600 
    194 H194       -2.5381  -21.2440  -42.4751 H         1 UNK         0.0600 
    195 H195       -1.7917  -23.3043  -43.9485 H         1 UNK         0.3000 
    196 H196       -2.9866  -25.7009  -43.0070 H         1 UNK         0.0600 
    197 H197       -0.3332  -25.2717  -44.4800 H         1 UNK         0.0600 
    198 H198       -0.5774  -25.1712  -42.7382 H         1 UNK         0.0600 
    199 H199       -0.7747  -26.7087  -43.5666 H         1 UNK         0.0600 
    200 H200       -2.3299  -24.5581  -46.3124 H         1 UNK         0.3000 
    201 H201       -3.2608  -26.9766  -47.6309 H         1 UNK         0.0600 
    202 H202       -2.6817  -24.1704  -48.7187 H         1 UNK         0.0600 
    203 H203       -2.8885  -25.6288  -49.6808 H         1 UNK         0.0600 
    204 H204       -1.5091  -25.4801  -48.6060 H         1 UNK         0.0600 
    205 H205       -5.0110  -24.7095  -45.9407 H         1 UNK         0.3000 
    206 H206       -7.0872  -23.9716  -45.8390 H         1 UNK         0.0600 
    207 H207       -7.6452  -26.4117  -45.9008 H         1 UNK         0.0600 
    208 H208       -8.9268  -25.4308  -46.5921 H         1 UNK         0.0600 
    209 H209       -7.8451  -26.3255  -47.6505 H         1 UNK         0.0600 
    210 H210       -5.4395  -22.7125  -47.6573 H         1 UNK         0.3000 
    211 H211       -5.3354  -21.1033  -49.1045 H         1 UNK         0.0600 
    212 H212       -7.2862  -19.7789  -49.7603 H         1 UNK         0.0600 
    213 H213       -7.4437  -20.2326  -48.0721 H         1 UNK         0.0600 
    214 H214       -8.3875  -21.0691  -49.3054 H         1 UNK         0.0600 
    215 H215       -5.9616  -24.1283  -50.0613 H         1 UNK         0.3000 
    216 H216       -6.6779  -23.8345  -52.8125 H         1 UNK         0.0600 
    217 H217       -5.0735  -26.0696  -51.4632 H         1 UNK         0.0600 
    218 H218       -5.9060  -26.1692  -53.0082 H         1 UNK         0.0600 
    219 H219       -6.8340  -25.9839  -51.5269 H         1 UNK         0.0600 
    220 H220       -3.6359  -23.4815  -51.1133 H         1 UNK         0.3000 
    221 H221       -1.8846  -23.5932  -53.4064 H         1 UNK         0.0600 
    222 H222       -1.0788  -24.1542  -51.1460 H         1 UNK         0.0600 
    223 H223       -1.4680  -22.5389  -50.5608 H         1 UNK         0.0600 
    224 H224       -0.1921  -22.7660  -51.7499 H         1 UNK         0.0600 
    225 H225       -4.0970  -21.1654  -52.4167 H         1 UNK         0.3000 
    226 H226       -2.6387  -18.7973  -52.9233 H         1 UNK         0.0600 
    227 H227       -5.6428  -19.2894  -53.1725 H         1 UNK         0.0600 
    228 H228       -4.7912  -18.8710  -51.6844 H         1 UNK         0.0600 
    229 H229       -4.8545  -17.7253  -53.0146 H         1 UNK         0.0600 
    230 H230       -4.2742  -21.0236  -55.1090 H         1 UNK         0.3000 
    231 H231       -4.1324  -19.3291  -57.4681 H         1 UNK         0.0600 
    232 H232       -4.6576  -22.3324  -57.1304 H         1 UNK         0.0600 
    233 H233       -4.8875  -21.4159  -58.6155 H         1 UNK         0.0600 
    234 H234       -5.8860  -21.0694  -57.2127 H         1 UNK         0.0600 
    235 H235       -1.9254  -21.4905  -55.8237 H         1 UNK         0.3000 
    236 H236       -0.2127  -21.9470  -58.1834 H         1 UNK         0.0600 
    237 H237       -0.5880  -23.8234  -56.6129 H         1 UNK         0.0600 
    238 H238        1.1019  -23.3456  -56.6135 H         1 UNK         0.0600 
    239 H239        0.0610  -22.8795  -55.2754 H         1 UNK         0.0600 
    240 H240        0.0447  -20.4764  -54.9026 H         1 UNK         0.3000 
    241 H241        1.3196  -18.9377  -54.0136 H         1 UNK         0.0600 
    242 H242        4.4459  -20.8969  -54.9101 H         1 UNK         0.3800 
    243 H243        2.7729  -21.3900  -54.9062 H         1 UNK         0.3800 
    244 H244        0.2291  -17.6276  -56.0673 H         1 UNK         0.0800 
    245 H245        1.8564  -17.5392  -56.6527 H         1 UNK         0.0800 
    246 H246       -0.3312  -14.9155  -53.9521 H         1 UNK         0.0800 
    247 H247       -0.8371  -16.5225  -54.3875 H         1 UNK         0.0800 
@<TRIPOS>BOND
     1    1    2 1    
     2    1  127 1    
     3    1  128 1    
     4    1  129 1    
     5    2    3 2    
     6    2    4 am   BACKBONE|DICT|INTERRES
     7    4    5 1    
     8    4  130 1    
     9    5    6 1    
    10    5   65 1    
    11    5  131 1    
    12    6    7 1    
    13    6  132 1    
    14    6  133 1    
    15    7    8 1    
    16    8    9 1    
    17    8  134 1    
    18    8  135 1    
    19    9   10 ar   
    20    9   14 ar   
    21   10   11 ar   
    22   10  136 1    
    23   11   12 ar   
    24   11  126 1    
    25   12   13 ar   
    26   12  137 1    
    27   13   14 ar   
    28   13   15 1    
    29   14  138 1    
    30   15   16 1    
    31   15  139 1    
    32   15  140 1    
    33   16   17 1    
    34   17   18 1    
    35   17  141 1    
    36   17  142 1    
    37   18   19 1    
    38   18   67 1    
    39   18  143 1    
    40   19   20 am   BACKBONE|DICT|INTERRES
    41   19  144 1    
    42   20   21 2    
    43   20   22 1    
    44   22   23 1    
    45   22   24 1    
    46   22  145 1    
    47   23  146 1    
    48   23  147 1    
    49   23  148 1    
    50   24   25 am   BACKBONE|DICT|INTERRES
    51   24  149 1    
    52   25   26 2    
    53   25   27 1    
    54   27   28 1    
    55   27   29 1    
    56   27  150 1    
    57   28  151 1    
    58   28  152 1    
    59   28  153 1    
    60   29   30 am   BACKBONE|DICT|INTERRES
    61   29  154 1    
    62   30   31 2    
    63   30   32 1    
    64   32   33 1    
    65   32   34 1    
    66   32  155 1    
    67   33  156 1    
    68   33  157 1    
    69   33  158 1    
    70   34   35 am   BACKBONE|DICT|INTERRES
    71   34  159 1    
    72   35   36 2    
    73   35   37 1    
    74   37   38 1    
    75   37   39 1    
    76   37  160 1    
    77   38  161 1    
    78   38  162 1    
    79   38  163 1    
    80   39   40 am   BACKBONE|DICT|INTERRES
    81   39  164 1    
    82   40   41 2    
    83   40   42 1    
    84   42   43 1    
    85   42   44 1    
    86   42  165 1    
    87   43  166 1    
    88   43  167 1    
    89   43  168 1    
    90   44   45 am   BACKBONE|DICT|INTERRES
    91   44  169 1    
    92   45   46 2    
    93   45   47 1    
    94   47   48 1    
    95   47   49 1    
    96   47  170 1    
    97   48  171 1    
    98   48  172 1    
    99   48  173 1    
   100   49   50 am   BACKBONE|DICT|INTERRES
   101   49  174 1    
   102   50   51 2    
   103   50   52 1    
   104   52   53 1    
   105   52   54 1    
   106   52  175 1    
   107   53  176 1    
   108   53  177 1    
   109   53  178 1    
   110   54   55 am   BACKBONE|DICT|INTERRES
   111   54  179 1    
   112   55   56 2    
   113   55   57 1    
   114   57   58 1    
   115   57   59 1    
   116   57  180 1    
   117   58  181 1    
   118   58  182 1    
   119   58  183 1    
   120   59   60 am   BACKBONE|DICT|INTERRES
   121   59  184 1    
   122   60   61 2    
   123   60   62 1    
   124   62   63 1    
   125   62   64 1    
   126   62  185 1    
   127   63  186 1    
   128   63  187 1    
   129   63  188 1    
   130   64   65 am   BACKBONE|DICT|INTERRES
   131   64  189 1    
   132   65   66 2    
   133   67   68 2    
   134   67   69 am   BACKBONE|DICT|INTERRES
   135   69   70 1    
   136   69  190 1    
   137   70   71 1    
   138   70   72 1    
   139   70  191 1    
   140   71  192 1    
   141   71  193 1    
   142   71  194 1    
   143   72   73 2    
   144   72   74 am   BACKBONE|DICT|INTERRES
   145   74   75 1    
   146   74  195 1    
   147   75   76 1    
   148   75   77 1    
   149   75  196 1    
   150   76  197 1    
   151   76  198 1    
   152   76  199 1    
   153   77   78 2    
   154   77   79 am   BACKBONE|DICT|INTERRES
   155   79   80 1    
   156   79  200 1    
   157   80   81 1    
   158   80   82 1    
   159   80  201 1    
   160   81  202 1    
   161   81  203 1    
   162   81  204 1    
   163   82   83 2    
   164   82   84 am   BACKBONE|DICT|INTERRES
   165   84   85 1    
   166   84  205 1    
   167   85   86 1    
   168   85   87 1    
   169   85  206 1    
   170   86  207 1    
   171   86  208 1    
   172   86  209 1    
   173   87   88 2    
   174   87   89 am   BACKBONE|DICT|INTERRES
   175   89   90 1    
   176   89  210 1    
   177   90   91 1    
   178   90   92 1    
   179   90  211 1    
   180   91  212 1    
   181   91  213 1    
   182   91  214 1    
   183   92   93 2    
   184   92   94 am   BACKBONE|DICT|INTERRES
   185   94   95 1    
   186   94  215 1    
   187   95   96 1    
   188   95   97 1    
   189   95  216 1    
   190   96  217 1    
   191   96  218 1    
   192   96  219 1    
   193   97   98 2    
   194   97   99 am   BACKBONE|DICT|INTERRES
   195   99  100 1    
   196   99  220 1    
   197  100  101 1    
   198  100  102 1    
   199  100  221 1    
   200  101  222 1    
   201  101  223 1    
   202  101  224 1    
   203  102  103 2    
   204  102  104 am   BACKBONE|DICT|INTERRES
   205  104  105 1    
   206  104  225 1    
   207  105  106 1    
   208  105  107 1    
   209  105  226 1    
   210  106  227 1    
   211  106  228 1    
   212  106  229 1    
   213  107  108 2    
   214  107  109 am   BACKBONE|DICT|INTERRES
   215  109  110 1    
   216  109  230 1    
   217  110  111 1    
   218  110  112 1    
   219  110  231 1    
   220  111  232 1    
   221  111  233 1    
   222  111  234 1    
   223  112  113 2    
   224  112  114 am   BACKBONE|DICT|INTERRES
   225  114  115 1    
   226  114  235 1    
   227  115  116 1    
   228  115  117 1    
   229  115  236 1    
   230  116  237 1    
   231  116  238 1    
   232  116  239 1    
   233  117  118 2    
   234  117  119 am   BACKBONE|DICT|INTERRES
   235  119  120 1    
   236  119  240 1    
   237  120  121 1    
   238  120  124 1    
   239  120  241 1    
   240  121  122 am   BACKBONE|DICT|INTERRES
   241  121  123 2    
   242  122  242 1    
   243  122  243 1    
   244  124  125 1    
   245  124  244 1    
   246  124  245 1    
   247  125  126 1    
   248  126  246 1    
   249  126  247 1    
@<TRIPOS>SUBSTRUCTURE
     1 UNK         1 GROUP             0       ****    0 ROOT    
