@<TRIPOS>MOLECULE
3R540
247   249    1
SMALL
USER_CHARGES


@<TRIPOS>ATOM
      1 CA         -3.6320  -17.9909  -48.8007 C.3       0 UNK        -0.1800 
      2 C          -3.0366  -16.9194  -47.9006 C.2       0 UNK         0.5000 
      3 O          -3.7784  -16.1807  -47.2523 O.2       0 UNK        -0.5000 
      4 N          -1.7023  -16.8341  -47.8451 N.am      1 UNK        -0.5000 
      5 CA         -0.9355  -15.8197  -47.1091 C.3       1 UNK         0.1400 
      6 C6          0.4639  -15.5997  -47.7347 C.3       23 UNK        -0.0398 
      7 S7          0.3573  -14.9491  -49.4369 S.3       23 UNK        -0.2404 
      8 C8          1.3644  -16.1417  -50.3704 C.3       23 UNK        -0.0205 
      9 C9          0.6474  -17.4654  -50.5899 C.ar      23 UNK        -0.0193 
     10 C10        -0.3736  -17.5593  -51.5416 C.ar      23 UNK        -0.1150 
     11 C11        -0.9889  -18.7867  -51.7988 C.ar      23 UNK        -0.0193 
     12 C12        -0.6000  -19.9145  -51.0734 C.ar      23 UNK        -0.1150 
     13 C13         0.4326  -19.8430  -50.1362 C.ar      23 UNK        -0.0193 
     14 C14         1.0494  -18.6103  -49.8941 C.ar      23 UNK        -0.1150 
     15 C15         0.9203  -21.1305  -49.4829 C.3       23 UNK        -0.0205 
     16 S16         1.3572  -20.9609  -47.7239 S.3       23 UNK        -0.2404 
     17 C17         1.4310  -22.7279  -47.2497 C.3       23 UNK        -0.0398 
     18 CA          0.1808  -23.3282  -46.5412 C.3       11 UNK         0.1400 
     19 N           0.2640  -23.2542  -45.0795 N.am      11 UNK        -0.5000 
     20 C          -0.2963  -24.1562  -44.2586 C.2       10 UNK         0.5000 
     21 O          -0.8937  -25.1584  -44.6521 O.2       10 UNK        -0.5000 
     22 CA         -0.1909  -23.8945  -42.7447 C.3       10 UNK         0.1400 
     23 CB          1.1365  -24.4372  -42.1942 C.3       10 UNK        -0.1800 
     24 N          -0.3159  -22.4810  -42.3930 N.am      10 UNK        -0.5000 
     25 C          -1.4267  -21.7487  -42.5540 C.2       9 UNK         0.5000 
     26 O          -2.4812  -22.1930  -43.0085 O.2       9 UNK        -0.5000 
     27 CA         -1.3253  -20.2564  -42.1816 C.3       9 UNK         0.1400 
     28 CB         -1.6930  -20.0356  -40.7078 C.3       9 UNK        -0.1800 
     29 N          -0.0109  -19.6634  -42.4427 N.am      9 UNK        -0.5000 
     30 C           0.6049  -19.6185  -43.6321 C.2       8 UNK         0.5000 
     31 O           0.1485  -20.1467  -44.6471 O.2       8 UNK        -0.5000 
     32 CA          1.9484  -18.8643  -43.6758 C.3       8 UNK         0.1400 
     33 CB          2.4898  -18.6813  -45.1036 C.3       8 UNK        -0.1800 
     34 N           1.8443  -17.5498  -43.0436 N.am      8 UNK        -0.5000 
     35 C           2.0233  -17.2997  -41.7402 C.2       7 UNK         0.5000 
     36 O           2.1992  -18.1915  -40.9079 O.2       7 UNK        -0.5000 
     37 CA          1.9773  -15.8226  -41.2930 C.3       7 UNK         0.1400 
     38 CB          2.7418  -15.5710  -39.9773 C.3       7 UNK        -0.1800 
     39 N           2.4126  -14.8787  -42.3267 N.am      7 UNK        -0.5000 
     40 C           3.6065  -14.8084  -42.9357 C.2       6 UNK         0.5000 
     41 O           4.5513  -15.5606  -42.6957 O.2       6 UNK        -0.5000 
     42 CA          3.7756  -13.6982  -43.9855 C.3       6 UNK         0.1400 
     43 CB          3.1072  -14.1037  -45.3068 C.3       6 UNK        -0.1800 
     44 N           3.1850  -12.4434  -43.5209 N.am      6 UNK        -0.5000 
     45 C           3.8490  -11.2951  -43.3344 C.2       5 UNK         0.5000 
     46 O           5.0441  -11.1430  -43.5915 O.2       5 UNK        -0.5000 
     47 CA          3.0475  -10.1086  -42.7558 C.3       5 UNK         0.1400 
     48 CB          2.5407   -9.2015  -43.8875 C.3       5 UNK        -0.1800 
     49 N           1.9074  -10.5212  -41.9342 N.am      5 UNK        -0.5000 
     50 C           1.9999  -11.1768  -40.7695 C.2       4 UNK         0.5000 
     51 O           3.0686  -11.4038  -40.2014 O.2       4 UNK        -0.5000 
     52 CA          0.6903  -11.6887  -40.1341 C.3       4 UNK         0.1400 
     53 CB          0.2967  -10.8029  -38.9416 C.3       4 UNK        -0.1800 
     54 N          -0.4704  -11.8146  -41.0273 N.am      4 UNK        -0.5000 
     55 C          -0.5371  -12.5285  -42.1589 C.2       3 UNK         0.5000 
     56 O           0.4404  -13.0193  -42.7268 O.2       3 UNK        -0.5000 
     57 CA         -1.9350  -12.7075  -42.7754 C.3       3 UNK         0.1400 
     58 CB         -2.1719  -11.6535  -43.8671 C.3       3 UNK        -0.1800 
     59 N          -2.1167  -14.0394  -43.3560 N.am      3 UNK        -0.5000 
     60 C          -2.0122  -15.2060  -42.7007 C.2       2 UNK         0.5000 
     61 O          -1.7904  -15.2978  -41.4928 O.2       2 UNK        -0.5000 
     62 CA         -2.2114  -16.4938  -43.5237 C.3       2 UNK         0.1400 
     63 CB         -3.6103  -17.0699  -43.2549 C.3       2 UNK        -0.1800 
     64 N          -2.0429  -16.2964  -44.9659 N.am      2 UNK        -0.5000 
     65 C          -0.8725  -16.1041  -45.5879 C.2       1 UNK         0.5000 
     66 O           0.2100  -16.1247  -45.0000 O.2       1 UNK        -0.5000 
     67 C          -1.1683  -22.7642  -47.0316 C.2       11 UNK         0.5000 
     68 O          -1.7555  -23.3166  -47.9621 O.2       11 UNK        -0.5000 
     69 N          -1.6472  -21.6939  -46.3804 N.am      12 UNK        -0.5000 
     70 CA         -2.8991  -21.0013  -46.6847 C.3       12 UNK         0.1400 
     71 CB         -3.0165  -19.7777  -45.7707 C.3       12 UNK        -0.1800 
     72 C          -4.1462  -21.8885  -46.5344 C.2       12 UNK         0.5000 
     73 O          -5.1130  -21.7051  -47.2731 O.2       12 UNK        -0.5000 
     74 N          -4.0862  -22.8498  -45.6023 N.am      13 UNK        -0.5000 
     75 CA         -5.0998  -23.8832  -45.3951 C.3       13 UNK         0.1400 
     76 CB         -4.7547  -24.6689  -44.1209 C.3       13 UNK        -0.1800 
     77 C          -5.2507  -24.8399  -46.5957 C.2       13 UNK         0.5000 
     78 O          -6.3450  -25.3616  -46.8134 O.2       13 UNK        -0.5000 
     79 N          -4.1631  -25.0469  -47.3512 N.am      14 UNK        -0.5000 
     80 CA         -4.1504  -25.8320  -48.5825 C.3       14 UNK         0.1400 
     81 CB         -2.7976  -26.5487  -48.7227 C.3       14 UNK        -0.1800 
     82 C          -4.4264  -24.9462  -49.8077 C.2       14 UNK         0.5000 
     83 O          -5.2242  -25.3349  -50.6612 O.2       14 UNK        -0.5000 
     84 N          -3.7430  -23.7913  -49.8873 N.am      15 UNK        -0.5000 
     85 CA         -3.7561  -22.7641  -50.9440 C.3       15 UNK         0.1400 
     86 CB         -5.1630  -22.1678  -51.1306 C.3       15 UNK        -0.1800 
     87 C          -3.1631  -23.2407  -52.2868 C.2       15 UNK         0.5000 
     88 O          -2.3450  -22.5415  -52.8937 O.2       15 UNK        -0.5000 
     89 N          -3.5378  -24.4543  -52.7084 N.am      16 UNK        -0.5000 
     90 CA         -2.9957  -25.2030  -53.8464 C.3       16 UNK         0.1400 
     91 CB         -3.8697  -26.4445  -54.0775 C.3       16 UNK        -0.1800 
     92 C          -1.5152  -25.5997  -53.6759 C.2       16 UNK         0.5000 
     93 O          -0.8838  -26.0205  -54.6450 O.2       16 UNK        -0.5000 
     94 N          -0.9800  -25.4140  -52.4605 N.am      17 UNK        -0.5000 
     95 CA          0.4380  -25.4916  -52.1170 C.3       17 UNK         0.1400 
     96 CB          0.5870  -25.2959  -50.5990 C.3       17 UNK        -0.1800 
     97 C           1.3154  -24.4765  -52.8798 C.2       17 UNK         0.5000 
     98 O           2.5130  -24.7265  -53.0235 O.2       17 UNK        -0.5000 
     99 N           0.7181  -23.3748  -53.3625 N.am      18 UNK        -0.5000 
    100 CA         1.3854  -22.4002  -54.2238 C.3       18 UNK         0.1400 
    101 CB         1.6204  -21.0857  -53.4677 C.3       18 UNK        -0.1800 
    102 C          0.6061  -22.1440  -55.5220 C.2       18 UNK         0.5000 
    103 O          1.2293  -22.1642  -56.5850 O.2       18 UNK        -0.5000 
    104 N         -0.7104  -21.8779  -55.4423 N.am      19 UNK        -0.5000 
    105 CA        -1.4612  -21.3824  -56.6066 C.3       19 UNK         0.1400 
    106 CB        -1.1811  -19.8778  -56.8011 C.3       19 UNK        -0.1800 
    107 C         -2.9792  -21.6211  -56.5853 C.2       19 UNK         0.5000 
    108 O         -3.5873  -21.5531  -57.6535 O.2       19 UNK        -0.5000 
    109 N         -3.5898  -21.8296  -55.4090 N.am      20 UNK        -0.5000 
    110 CA        -5.0381  -21.9690  -55.1524 C.3       20 UNK         0.1400 
    111 CB        -5.6477  -23.1604  -55.9168 C.3       20 UNK        -0.1800 
    112 C         -5.8756  -20.6908  -55.3792 C.2       20 UNK         0.5000 
    113 O         -6.8275  -20.4565  -54.6335 O.2       20 UNK        -0.5000 
    114 N         -5.4995  -19.8723  -56.3707 N.am      21 UNK        -0.5000 
    115 CA        -6.1473  -18.6216  -56.7845 C.3       21 UNK         0.1400 
    116 CB        -5.4097  -18.0768  -58.0174 C.3       21 UNK        -0.1800 
    117 C         -6.2322  -17.5395  -55.6876 C.2       21 UNK         0.5000 
    118 O         -7.0696  -16.6415  -55.7845 O.2       21 UNK        -0.5000 
    119 N         -5.3829  -17.6567  -54.6613 N.am      22 UNK        -0.5000 
    120 CA        -5.4401  -16.8926  -53.4073 C.3       22 UNK         0.1400 
    121 C         -6.6900  -17.1811  -52.5187 C.2       22 UNK         0.5000 
    122 N         -7.4263  -18.2678  -52.7262 N.am      22 UNK        -0.7600 
    123 O         -7.0024  -16.3929  -51.6305 O.2       22 UNK        -0.5000 
    124 C124       -4.1265  -17.0516  -52.5983 C.3       23 UNK        -0.0398 
    125 S125       -3.7104  -18.8054  -52.2715 S.3       23 UNK        -0.2404 
    126 C126       -2.0171  -18.9280  -52.9088 C.3       23 UNK        -0.0205 
    127 H127       -4.2704  -18.6642  -48.2310 H         1 UNK         0.0600 
    128 H128       -4.2500  -17.5254  -49.5661 H         1 UNK         0.0600 
    129 H129       -2.8601  -18.5827  -49.2934 H         1 UNK         0.0600 
    130 H130       -1.1471  -17.4732  -48.3968 H         1 UNK         0.3000 
    131 H131       -1.4700  -14.8715  -47.2006 H         1 UNK         0.0600 
    132 H132        1.0295  -14.8663  -47.1611 H         1 UNK         0.0800 
    133 H133        1.0461  -16.5222  -47.7107 H         1 UNK         0.0800 
    134 H134        2.3182  -16.2918  -49.8620 H         1 UNK         0.0800 
    135 H135        1.6069  -15.7066  -51.3410 H         1 UNK         0.0800 
    136 H136       -0.6656  -16.6829  -52.1028 H         1 UNK         0.1150 
    137 H137       -1.0619  -20.8666  -51.2894 H         1 UNK         0.1150 
    138 H138        1.8655  -18.5487  -49.1881 H         1 UNK         0.1150 
    139 H139        1.7916  -21.4921  -50.0299 H         1 UNK         0.0800 
    140 H140        0.1532  -21.9000  -49.5791 H         1 UNK         0.0800 
    141 H141        2.3156  -22.8709  -46.6278 H         1 UNK         0.0800 
    142 H142        1.6351  -23.3078  -48.1511 H         1 UNK         0.0800 
    143 H143        0.1745  -24.3871  -46.8108 H         1 UNK         0.0600 
    144 H144        0.6781  -22.4179  -44.6906 H         1 UNK         0.3000 
    145 H145       -1.0071  -24.4340  -42.2591 H         1 UNK         0.0600 
    146 H146        1.2494  -25.4978  -42.4232 H         1 UNK         0.0600 
    147 H147        1.1859  -24.3335  -41.1101 H         1 UNK         0.0600 
    148 H148        1.9941  -23.9160  -42.6215 H         1 UNK         0.0600 
    149 H149        0.5042  -22.0292  -42.0163 H         1 UNK         0.3000 
    150 H150       -2.0504  -19.7145  -42.7875 H         1 UNK         0.0600 
    151 H151       -0.9774  -20.5143  -40.0382 H         1 UNK         0.0600 
    152 H152       -2.6787  -20.4466  -40.4851 H         1 UNK         0.0600 
    153 H153       -1.7231  -18.9732  -40.4645 H         1 UNK         0.0600 
    154 H154        0.4607  -19.2296  -41.6581 H         1 UNK         0.3000 
    155 H155        2.6744  -19.4679  -43.1277 H         1 UNK         0.0600 
    156 H156        1.7580  -18.2103  -45.7606 H         1 UNK         0.0600 
    157 H157        2.7539  -19.6446  -45.5388 H         1 UNK         0.0600 
    158 H158        3.3911  -18.0682  -45.1111 H         1 UNK         0.0600 
    159 H159        1.5807  -16.7874  -43.6601 H         1 UNK         0.3000 
    160 H160        0.9263  -15.5984  -41.1081 H         1 UNK         0.0600 
    161 H161        3.7937  -15.8445  -40.0633 H         1 UNK         0.0600 
    162 H162        2.3175  -16.1542  -39.1593 H         1 UNK         0.0600 
    163 H163        2.6920  -14.5218  -39.6862 H         1 UNK         0.0600 
    164 H164        1.6915  -14.2175  -42.6117 H         1 UNK         0.3000 
    165 H165        4.8461  -13.5805  -44.1660 H         1 UNK         0.0600 
    166 H166        3.4576  -15.0791  -45.6473 H         1 UNK         0.0600 
    167 H167        2.0246  -14.1596  -45.1951 H         1 UNK         0.0600 
    168 H168        3.3244  -13.3827  -46.0949 H         1 UNK         0.0600 
    169 H169        2.2048  -12.4798  -43.2578 H         1 UNK         0.3000 
    170 H170        3.7254   -9.5276  -42.1270 H         1 UNK         0.0600 
    171 H171        2.0374   -8.3193  -43.4915 H         1 UNK         0.0600 
    172 H172        1.8401   -9.7253  -44.5392 H         1 UNK         0.0600 
    173 H173        3.3672   -8.8517  -44.5076 H         1 UNK         0.0600 
    174 H174        0.9888  -10.3814  -42.3278 H         1 UNK         0.3000 
    175 H175        0.9026  -12.6898  -39.7541 H         1 UNK         0.0600 
    176 H176        1.1193  -10.7108  -38.2308 H         1 UNK         0.0600 
    177 H177        0.0263   -9.7962  -39.2626 H         1 UNK         0.0600 
    178 H178       -0.5505  -11.2228  -38.3990 H         1 UNK         0.0600 
    179 H179       -1.3280  -11.4183  -40.6705 H         1 UNK         0.3000 
    180 H180       -2.6858  -12.5815  -41.9928 H         1 UNK         0.0600 
    181 H181       -1.4565  -11.7539  -44.6846 H         1 UNK         0.0600 
    182 H182       -2.0722  -10.6440  -43.4660 H         1 UNK         0.0600 
    183 H183       -3.1749  -11.7368  -44.2862 H         1 UNK         0.0600 
    184 H184       -2.2909  -14.0748  -44.3484 H         1 UNK         0.3000 
    185 H185       -1.4676  -17.2176  -43.1858 H         1 UNK         0.0600 
    186 H186       -3.7581  -17.2579  -42.1905 H         1 UNK         0.0600 
    187 H187       -4.3951  -16.3858  -43.5801 H         1 UNK         0.0600 
    188 H188       -3.7606  -18.0160  -43.7695 H         1 UNK         0.0600 
    189 H189       -2.8848  -16.2656  -45.5343 H         1 UNK         0.3000 
    190 H190       -1.0595  -21.2624  -45.6722 H         1 UNK         0.3000 
    191 H191       -2.8462  -20.6666  -47.7222 H         1 UNK         0.0600 
    192 H192       -2.1562  -19.1167  -45.8748 H         1 UNK         0.0600 
    193 H193       -3.9124  -19.1986  -45.9935 H         1 UNK         0.0600 
    194 H194       -3.0858  -20.0813  -44.7285 H         1 UNK         0.0600 
    195 H195       -3.2810  -22.8731  -44.9882 H         1 UNK         0.3000 
    196 H196       -6.0604  -23.3865  -45.2443 H         1 UNK         0.0600 
    197 H197       -5.5001  -25.4398  -43.9215 H         1 UNK         0.0600 
    198 H198       -4.7237  -24.0137  -43.2501 H         1 UNK         0.0600 
    199 H199       -3.7846  -25.1611  -44.2033 H         1 UNK         0.0600 
    200 H200       -3.3145  -24.5424  -47.1294 H         1 UNK         0.3000 
    201 H201       -4.9273  -26.5985  -48.5409 H         1 UNK         0.0600 
    202 H202       -2.7572  -27.1325  -49.6432 H         1 UNK         0.0600 
    203 H203       -2.6322  -27.2371  -47.8938 H         1 UNK         0.0600 
    204 H204       -1.9640  -25.8473  -48.7417 H         1 UNK         0.0600 
    205 H205       -3.0737  -23.6061  -49.1416 H         1 UNK         0.3000 
    206 H206       -3.1093  -21.9630  -50.5835 H         1 UNK         0.0600 
    207 H207       -5.1464  -21.3343  -51.8320 H         1 UNK         0.0600 
    208 H208       -5.8735  -22.8994  -51.5155 H         1 UNK         0.0600 
    209 H209       -5.5532  -21.7859  -50.1870 H         1 UNK         0.0600 
    210 H210       -4.2254  -24.9398  -52.1353 H         1 UNK         0.3000 
    211 H211       -3.0506  -24.5670  -54.7305 H         1 UNK         0.0600 
    212 H212       -3.5271  -27.0108  -54.9446 H         1 UNK         0.0600 
    213 H213       -4.9080  -26.1677  -54.2610 H         1 UNK         0.0600 
    214 H214       -3.8494  -27.1141  -53.2167 H         1 UNK         0.0600 
    215 H215       -1.5952  -25.0836  -51.7333 H         1 UNK         0.3000 
    216 H216        0.7924  -26.4913  -52.3759 H         1 UNK         0.0600 
    217 H217        0.0832  -26.0910  -50.0499 H         1 UNK         0.0600 
    218 H218        0.1697  -24.3431  -50.2711 H         1 UNK         0.0600 
    219 H219        1.6362  -25.3154  -50.3010 H         1 UNK         0.0600 
    220 H220       -0.2722  -23.2468  -53.2008 H         1 UNK         0.3000 
    221 H221        2.3654  -22.7777  -54.5235 H         1 UNK         0.0600 
    222 H222        0.6865  -20.5583  -53.2902 H         1 UNK         0.0600 
    223 H223        2.1080  -21.2555  -52.5081 H         1 UNK         0.0600 
    224 H224        2.2599  -20.4170  -54.0449 H         1 UNK         0.0600 
    225 H225       -1.1838  -21.9078  -54.5489 H         1 UNK         0.3000 
    226 H226       -1.1102  -21.9096  -57.4966 H         1 UNK         0.0600 
    227 H227       -0.1240  -19.6871  -56.9859 H         1 UNK         0.0600 
    228 H228       -1.7290  -19.4793  -57.6563 H         1 UNK         0.0600 
    229 H229       -1.4764  -19.2995  -55.9258 H         1 UNK         0.0600 
    230 H230       -3.0216  -21.8708  -54.5707 H         1 UNK         0.3000 
    231 H231       -5.1286  -22.1968  -54.0917 H         1 UNK         0.0600 
    232 H232       -5.6641  -22.9931  -56.9938 H         1 UNK         0.0600 
    233 H233       -6.6781  -23.3323  -55.6033 H         1 UNK         0.0600 
    234 H234       -5.0981  -24.0811  -55.7305 H         1 UNK         0.0600 
    235 H235       -4.7383  -20.2002  -56.9571 H         1 UNK         0.3000 
    236 H236       -7.1709  -18.8653  -57.0750 H         1 UNK         0.0600 
    237 H237       -4.3674  -17.8475  -57.7914 H         1 UNK         0.0600 
    238 H238       -5.4246  -18.7963  -58.8363 H         1 UNK         0.0600 
    239 H239       -5.8769  -17.1611  -58.3823 H         1 UNK         0.0600 
    240 H240       -4.7441  -18.4373  -54.6633 H         1 UNK         0.3000 
    241 H241       -5.5188  -15.8400  -53.6856 H         1 UNK         0.0600 
    242 H242       -7.1745  -18.9466  -53.4382 H         1 UNK         0.3800 
    243 H243       -8.2326  -18.4344  -52.1463 H         1 UNK         0.3800 
    244 H244       -3.3131  -16.5752  -53.1456 H         1 UNK         0.0800 
    245 H245       -4.1833  -16.5134  -51.6515 H         1 UNK         0.0800 
    246 H246       -1.9010  -19.9017  -53.3841 H         1 UNK         0.0800 
    247 H247       -1.8388  -18.1946  -53.6958 H         1 UNK         0.0800 
@<TRIPOS>BOND
     1    1    2 1    
     2    1  127 1    
     3    1  128 1    
     4    1  129 1    
     5    2    3 2    
     6    2    4 am   BACKBONE|DICT|INTERRES
     7    4    5 1    
     8    4  130 1    
     9    5    6 1    
    10    5   65 1    
    11    5  131 1    
    12    6    7 1    
    13    6  132 1    
    14    6  133 1    
    15    7    8 1    
    16    8    9 1    
    17    8  134 1    
    18    8  135 1    
    19    9   10 ar   
    20    9   14 ar   
    21   10   11 ar   
    22   10  136 1    
    23   11   12 ar   
    24   11  126 1    
    25   12   13 ar   
    26   12  137 1    
    27   13   14 ar   
    28   13   15 1    
    29   14  138 1    
    30   15   16 1    
    31   15  139 1    
    32   15  140 1    
    33   16   17 1    
    34   17   18 1    
    35   17  141 1    
    36   17  142 1    
    37   18   19 1    
    38   18   67 1    
    39   18  143 1    
    40   19   20 am   BACKBONE|DICT|INTERRES
    41   19  144 1    
    42   20   21 2    
    43   20   22 1    
    44   22   23 1    
    45   22   24 1    
    46   22  145 1    
    47   23  146 1    
    48   23  147 1    
    49   23  148 1    
    50   24   25 am   BACKBONE|DICT|INTERRES
    51   24  149 1    
    52   25   26 2    
    53   25   27 1    
    54   27   28 1    
    55   27   29 1    
    56   27  150 1    
    57   28  151 1    
    58   28  152 1    
    59   28  153 1    
    60   29   30 am   BACKBONE|DICT|INTERRES
    61   29  154 1    
    62   30   31 2    
    63   30   32 1    
    64   32   33 1    
    65   32   34 1    
    66   32  155 1    
    67   33  156 1    
    68   33  157 1    
    69   33  158 1    
    70   34   35 am   BACKBONE|DICT|INTERRES
    71   34  159 1    
    72   35   36 2    
    73   35   37 1    
    74   37   38 1    
    75   37   39 1    
    76   37  160 1    
    77   38  161 1    
    78   38  162 1    
    79   38  163 1    
    80   39   40 am   BACKBONE|DICT|INTERRES
    81   39  164 1    
    82   40   41 2    
    83   40   42 1    
    84   42   43 1    
    85   42   44 1    
    86   42  165 1    
    87   43  166 1    
    88   43  167 1    
    89   43  168 1    
    90   44   45 am   BACKBONE|DICT|INTERRES
    91   44  169 1    
    92   45   46 2    
    93   45   47 1    
    94   47   48 1    
    95   47   49 1    
    96   47  170 1    
    97   48  171 1    
    98   48  172 1    
    99   48  173 1    
   100   49   50 am   BACKBONE|DICT|INTERRES
   101   49  174 1    
   102   50   51 2    
   103   50   52 1    
   104   52   53 1    
   105   52   54 1    
   106   52  175 1    
   107   53  176 1    
   108   53  177 1    
   109   53  178 1    
   110   54   55 am   BACKBONE|DICT|INTERRES
   111   54  179 1    
   112   55   56 2    
   113   55   57 1    
   114   57   58 1    
   115   57   59 1    
   116   57  180 1    
   117   58  181 1    
   118   58  182 1    
   119   58  183 1    
   120   59   60 am   BACKBONE|DICT|INTERRES
   121   59  184 1    
   122   60   61 2    
   123   60   62 1    
   124   62   63 1    
   125   62   64 1    
   126   62  185 1    
   127   63  186 1    
   128   63  187 1    
   129   63  188 1    
   130   64   65 am   BACKBONE|DICT|INTERRES
   131   64  189 1    
   132   65   66 2    
   133   67   68 2    
   134   67   69 am   BACKBONE|DICT|INTERRES
   135   69   70 1    
   136   69  190 1    
   137   70   71 1    
   138   70   72 1    
   139   70  191 1    
   140   71  192 1    
   141   71  193 1    
   142   71  194 1    
   143   72   73 2    
   144   72   74 am   BACKBONE|DICT|INTERRES
   145   74   75 1    
   146   74  195 1    
   147   75   76 1    
   148   75   77 1    
   149   75  196 1    
   150   76  197 1    
   151   76  198 1    
   152   76  199 1    
   153   77   78 2    
   154   77   79 am   BACKBONE|DICT|INTERRES
   155   79   80 1    
   156   79  200 1    
   157   80   81 1    
   158   80   82 1    
   159   80  201 1    
   160   81  202 1    
   161   81  203 1    
   162   81  204 1    
   163   82   83 2    
   164   82   84 am   BACKBONE|DICT|INTERRES
   165   84   85 1    
   166   84  205 1    
   167   85   86 1    
   168   85   87 1    
   169   85  206 1    
   170   86  207 1    
   171   86  208 1    
   172   86  209 1    
   173   87   88 2    
   174   87   89 am   BACKBONE|DICT|INTERRES
   175   89   90 1    
   176   89  210 1    
   177   90   91 1    
   178   90   92 1    
   179   90  211 1    
   180   91  212 1    
   181   91  213 1    
   182   91  214 1    
   183   92   93 2    
   184   92   94 am   BACKBONE|DICT|INTERRES
   185   94   95 1    
   186   94  215 1    
   187   95   96 1    
   188   95   97 1    
   189   95  216 1    
   190   96  217 1    
   191   96  218 1    
   192   96  219 1    
   193   97   98 2    
   194   97   99 am   BACKBONE|DICT|INTERRES
   195   99  100 1    
   196   99  220 1    
   197  100  101 1    
   198  100  102 1    
   199  100  221 1    
   200  101  222 1    
   201  101  223 1    
   202  101  224 1    
   203  102  103 2    
   204  102  104 am   BACKBONE|DICT|INTERRES
   205  104  105 1    
   206  104  225 1    
   207  105  106 1    
   208  105  107 1    
   209  105  226 1    
   210  106  227 1    
   211  106  228 1    
   212  106  229 1    
   213  107  108 2    
   214  107  109 am   BACKBONE|DICT|INTERRES
   215  109  110 1    
   216  109  230 1    
   217  110  111 1    
   218  110  112 1    
   219  110  231 1    
   220  111  232 1    
   221  111  233 1    
   222  111  234 1    
   223  112  113 2    
   224  112  114 am   BACKBONE|DICT|INTERRES
   225  114  115 1    
   226  114  235 1    
   227  115  116 1    
   228  115  117 1    
   229  115  236 1    
   230  116  237 1    
   231  116  238 1    
   232  116  239 1    
   233  117  118 2    
   234  117  119 am   BACKBONE|DICT|INTERRES
   235  119  120 1    
   236  119  240 1    
   237  120  121 1    
   238  120  124 1    
   239  120  241 1    
   240  121  122 am   BACKBONE|DICT|INTERRES
   241  121  123 2    
   242  122  242 1    
   243  122  243 1    
   244  124  125 1    
   245  124  244 1    
   246  124  245 1    
   247  125  126 1    
   248  126  246 1    
   249  126  247 1    
@<TRIPOS>SUBSTRUCTURE
     1 UNK         1 GROUP             0       ****    0 ROOT    
