@<TRIPOS>MOLECULE
3R540
247   249    1
SMALL
USER_CHARGES


@<TRIPOS>ATOM
      1 CA         -5.2515  -17.8450  -48.3025 C.3       0 UNK        -0.1800 
      2 C          -4.2691  -16.8197  -47.7515 C.2       0 UNK         0.5000 
      3 O          -3.7788  -16.9828  -46.6347 O.2       0 UNK        -0.5000 
      4 N          -3.9742  -15.7745  -48.5362 N.am      1 UNK        -0.5000 
      5 CA         -3.0785  -14.6623  -48.1932 C.3       1 UNK         0.1400 
      6 C6         -1.6282  -15.1321  -47.8800 C.3       23 UNK        -0.0398 
      7 S7         -0.3609  -13.9506  -48.4621 S.3       23 UNK        -0.2404 
      8 C8          0.9977  -15.0467  -48.9891 C.3       23 UNK        -0.0205 
      9 C9          0.5791  -15.9907  -50.1068 C.ar      23 UNK        -0.0193 
     10 C10         0.3983  -15.5179  -51.4098 C.ar      23 UNK        -0.1150 
     11 C11        -0.0356  -16.3795  -52.4228 C.ar      23 UNK        -0.0193 
     12 C12        -0.2911  -17.7196  -52.1202 C.ar      23 UNK        -0.1150 
     13 C13        -0.1107  -18.2044  -50.8222 C.ar      23 UNK        -0.0193 
     14 C14         0.3457  -17.3390  -49.8274 C.ar      23 UNK        -0.1150 
     15 C15        -0.4180  -19.6565  -50.4947 C.3       23 UNK        -0.0205 
     16 S16        -2.0837  -19.8458  -49.7748 S.3       23 UNK        -0.2404 
     17 C17        -1.7006  -19.8353  -47.9943 C.3       23 UNK        -0.0398 
     18 CA         -1.4851  -21.2712  -47.4456 C.3       11 UNK         0.1400 
     19 N          -0.2424  -21.4006  -46.6796 N.am      11 UNK        -0.5000 
     20 C           0.2821  -22.5641  -46.2696 C.2       10 UNK         0.5000 
     21 O          -0.2047  -23.6617  -46.5378 O.2       10 UNK        -0.5000 
     22 CA          1.5289  -22.4898  -45.3681 C.3       10 UNK         0.1400 
     23 CB          2.8055  -22.3282  -46.2062 C.3       10 UNK        -0.1800 
     24 N           1.4426  -21.4134  -44.3796 N.am      10 UNK        -0.5000 
     25 C           0.5338  -21.3672  -43.3942 C.2       9 UNK         0.5000 
     26 O          -0.2805  -22.2643  -43.1762 O.2       9 UNK        -0.5000 
     27 CA          0.4840  -20.0802  -42.5498 C.3       9 UNK         0.1400 
     28 CB          1.5698  -20.0888  -41.4640 C.3       9 UNK        -0.1800 
     29 N           0.6114  -18.8704  -43.3623 N.am      9 UNK        -0.5000 
     30 C          -0.2498  -18.4971  -44.3190 C.2       8 UNK         0.5000 
     31 O          -1.2803  -19.1109  -44.5899 O.2       8 UNK        -0.5000 
     32 CA          0.1416  -17.2715  -45.1603 C.3       8 UNK         0.1400 
     33 CB         -0.2035  -15.9639  -44.4310 C.3       8 UNK        -0.1800 
     34 N           1.5609  -17.2816  -45.5172 N.am      8 UNK        -0.5000 
     35 C           2.1284  -18.1773  -46.3378 C.2       7 UNK         0.5000 
     36 O           1.5058  -19.0736  -46.9033 O.2       7 UNK        -0.5000 
     37 CA          3.6514  -18.0786  -46.5287 C.3       7 UNK         0.1400 
     38 CB          3.9987  -17.0043  -47.5701 C.3       7 UNK        -0.1800 
     39 N           4.3489  -17.7911  -45.2758 N.am      7 UNK        -0.5000 
     40 C           4.4065  -18.6321  -44.2330 C.2       6 UNK         0.5000 
     41 O           3.9258  -19.7654  -44.2403 O.2       6 UNK        -0.5000 
     42 CA          5.0599  -18.0879  -42.9481 C.3       6 UNK         0.1400 
     43 CB          6.5827  -18.2836  -42.9896 C.3       6 UNK        -0.1800 
     44 N           4.7544  -16.6738  -42.7012 N.am      6 UNK        -0.5000 
     45 C           3.5198  -16.1931  -42.5036 C.2       5 UNK         0.5000 
     46 O           2.5073  -16.8958  -42.5267 O.2       5 UNK        -0.5000 
     47 CA          3.3919  -14.6695  -42.3153 C.3       5 UNK         0.1400 
     48 CB          3.3538  -13.9687  -43.6831 C.3       5 UNK        -0.1800 
     49 N           2.1851  -14.3017  -41.5744 N.am      5 UNK        -0.5000 
     50 C           1.9434  -14.6019  -40.2912 C.2       4 UNK         0.5000 
     51 O           2.7632  -15.1637  -39.5619 O.2       4 UNK        -0.5000 
     52 CA          0.5695  -14.1848  -39.7262 C.3       4 UNK         0.1400 
     53 CB          0.6304  -13.8860  -38.2168 C.3       4 UNK        -0.1800 
     54 N           0.0352  -13.0052  -40.4131 N.am      4 UNK        -0.5000 
     55 C          -0.9465  -13.0081  -41.3226 C.2       3 UNK         0.5000 
     56 O          -1.5211  -14.0321  -41.6987 O.2       3 UNK        -0.5000 
     57 CA         -1.3742  -11.6246  -41.8632 C.3       3 UNK         0.1400 
     58 CB         -0.1729  -10.7030  -42.1765 C.3       3 UNK        -0.1800 
     59 N          -2.2857  -11.7091  -43.0113 N.am      3 UNK        -0.5000 
     60 C          -2.0076  -12.1684  -44.2390 C.2       2 UNK         0.5000 
     61 O          -0.8922  -12.5472  -44.6082 O.2       2 UNK        -0.5000 
     62 CA         -3.1817  -12.1814  -45.2298 C.3       2 UNK         0.1400 
     63 CB         -3.4957  -10.7656  -45.7457 C.3       2 UNK        -0.1800 
     64 N          -2.8350  -13.0438  -46.3519 N.am      2 UNK        -0.5000 
     65 C          -3.6893  -13.7478  -47.1008 C.2       1 UNK         0.5000 
     66 O          -4.9148  -13.6781  -46.9715 O.2       1 UNK        -0.5000 
     67 C          -2.7084  -21.7655  -46.6478 C.2       11 UNK         0.5000 
     68 O          -3.5337  -22.4966  -47.1941 O.2       11 UNK        -0.5000 
     69 N          -2.7812  -21.3969  -45.3614 N.am      12 UNK        -0.5000 
     70 CA         -3.8080  -21.8445  -44.4208 C.3       12 UNK         0.1400 
     71 CB         -3.6849  -21.0592  -43.1070 C.3       12 UNK        -0.1800 
     72 C          -3.7564  -23.3618  -44.1660 C.2       12 UNK         0.5000 
     73 O          -4.8053  -24.0061  -44.1535 O.2       12 UNK        -0.5000 
     74 N          -2.5437  -23.9188  -44.0296 N.am      13 UNK        -0.5000 
     75 CA         -2.2977  -25.3607  -43.9188 C.3       13 UNK         0.1400 
     76 CB         -0.8212  -25.6063  -43.5749 C.3       13 UNK        -0.1800 
     77 C          -2.7041  -26.1404  -45.1865 C.2       13 UNK         0.5000 
     78 O          -3.1758  -27.2725  -45.0799 O.2       13 UNK        -0.5000 
     79 N          -2.5655  -25.5000  -46.3548 N.am      14 UNK        -0.5000 
     80 CA         -3.0357  -25.9804  -47.6557 C.3       14 UNK         0.1400 
     81 CB         -2.1732  -25.3423  -48.7593 C.3       14 UNK        -0.1800 
     82 C          -4.5375  -25.7111  -47.9034 C.2       14 UNK         0.5000 
     83 O          -5.0068  -25.9386  -49.0188 O.2       14 UNK        -0.5000 
     84 N          -5.2643  -25.2048  -46.8937 N.am      15 UNK        -0.5000 
     85 CA         -6.6939  -24.8681  -46.9041 C.3       15 UNK         0.1400 
     86 CB         -7.5485  -26.1479  -47.0137 C.3       15 UNK        -0.1800 
     87 C          -7.0661  -23.8062  -47.9616 C.2       15 UNK         0.5000 
     88 O          -8.1711  -23.8365  -48.5054 O.2       15 UNK        -0.5000 
     89 N          -6.1177  -22.9019  -48.2466 N.am      16 UNK        -0.5000 
     90 CA         -6.1490  -21.8408  -49.2555 C.3       16 UNK         0.1400 
     91 CB         -7.2699  -20.8223  -48.9655 C.3       16 UNK        -0.1800 
     92 C          -6.1726  -22.3449  -50.7141 C.2       16 UNK         0.5000 
     93 O          -6.3425  -21.5311  -51.6209 O.2       16 UNK        -0.5000 
     94 N          -5.9502  -23.6483  -50.9496 N.am      17 UNK        -0.5000 
     95 CA         -5.8675  -24.2303  -52.2949 C.3       17 UNK         0.1400 
     96 CB         -5.9017  -25.7621  -52.1976 C.3       17 UNK        -0.1800 
     97 C          -4.6127  -23.7644  -53.0580 C.2       17 UNK         0.5000 
     98 O          -4.6460  -23.6372  -54.2823 O.2       17 UNK        -0.5000 
     99 N          -3.5415  -23.4753  -52.3072 N.am      18 UNK        -0.5000 
    100 CA        -2.2779  -22.9390  -52.8074 C.3       18 UNK         0.1400 
    101 CB        -1.1979  -23.1431  -51.7337 C.3       18 UNK        -0.1800 
    102 C         -2.3547  -21.4586  -53.2329 C.2       18 UNK         0.5000 
    103 O         -1.4241  -20.9843  -53.8858 O.2       18 UNK        -0.5000 
    104 N         -3.4398  -20.7493  -52.8808 N.am      19 UNK        -0.5000 
    105 CA        -3.6383  -19.3282  -53.1866 C.3       19 UNK         0.1400 
    106 CB        -4.8774  -18.8011  -52.4494 C.3       19 UNK        -0.1800 
    107 C         -3.7389  -19.0428  -54.6959 C.2       19 UNK         0.5000 
    108 O         -3.3000  -17.9850  -55.1475 O.2       19 UNK        -0.5000 
    109 N         -4.2877  -20.0072  -55.4467 N.am      20 UNK        -0.5000 
    110 CA        -4.3778  -19.9735  -56.9055 C.3       20 UNK         0.1400 
    111 CB        -5.4537  -20.9733  -57.3565 C.3       20 UNK        -0.1800 
    112 C         -3.0344  -20.2820  -57.5952 C.2       20 UNK         0.5000 
    113 O         -2.8296  -19.8509  -58.7305 O.2       20 UNK        -0.5000 
    114 N         -2.1544  -21.0285  -56.9133 N.am      21 UNK        -0.5000 
    115 CA        -0.8334  -21.4085  -57.4078 C.3       21 UNK         0.1400 
    116 CB        -0.4041  -22.7391  -56.7670 C.3       21 UNK        -0.1800 
    117 C          0.1974  -20.3012  -57.1398 C.2       21 UNK         0.5000 
    118 O          0.8687  -19.8604  -58.0735 O.2       21 UNK        -0.5000 
    119 N          0.2901  -19.8658  -55.8746 N.am      22 UNK        -0.5000 
    120 CA         1.2109  -18.8204  -55.3933 C.3       22 UNK         0.1400 
    121 C          2.7270  -19.1778  -55.5228 C.2       22 UNK         0.5000 
    122 N          3.0940  -20.4540  -55.5349 N.am      22 UNK        -0.7600 
    123 O          3.5871  -18.3046  -55.5964 O.2       22 UNK        -0.5000 
    124 C124        0.8298  -17.4210  -55.9564 C.3       23 UNK        -0.0398 
    125 S125        1.2525  -16.0302  -54.8475 S.3       23 UNK        -0.2404 
    126 C126       -0.2513  -15.8546  -53.8342 C.3       23 UNK        -0.0205 
    127 H127       -4.7844  -18.8284  -48.3491 H         1 UNK         0.0600 
    128 H128       -5.5914  -17.5844  -49.3051 H         1 UNK         0.0600 
    129 H129       -6.1250  -17.9134  -47.6544 H         1 UNK         0.0600 
    130 H130       -4.4385  -15.6878  -49.4289 H         1 UNK         0.3000 
    131 H131       -3.0494  -14.0535  -49.0981 H         1 UNK         0.0600 
    132 H132       -1.4559  -16.0925  -48.3599 H         1 UNK         0.0800 
    133 H133       -1.4916  -15.3243  -46.8172 H         1 UNK         0.0800 
    134 H134        1.3528  -15.6057  -48.1227 H         1 UNK         0.0800 
    135 H135        1.8371  -14.4370  -49.3261 H         1 UNK         0.0800 
    136 H136        0.5808  -14.4754  -51.6302 H         1 UNK         0.1150 
    137 H137       -0.6338  -18.3861  -52.8971 H         1 UNK         0.1150 
    138 H138        0.4879  -17.7055  -48.8235 H         1 UNK         0.1150 
    139 H139       -0.3539  -20.2571  -51.4016 H         1 UNK         0.0800 
    140 H140        0.3371  -20.0590  -49.8173 H         1 UNK         0.0800 
    141 H141       -2.4991  -19.3090  -47.4693 H         1 UNK         0.0800 
    142 H142       -0.8228  -19.2159  -47.8352 H         1 UNK         0.0800 
    143 H143       -1.3741  -21.9570  -48.2882 H         1 UNK         0.0600 
    144 H144        0.2563  -20.5424  -46.4671 H         1 UNK         0.3000 
    145 H145        1.6007  -23.4343  -44.8250 H         1 UNK         0.0600 
    146 H146        3.6944  -22.3400  -45.5753 H         1 UNK         0.0600 
    147 H147        2.9051  -23.1425  -46.9249 H         1 UNK         0.0600 
    148 H148        2.8073  -21.3941  -46.7673 H         1 UNK         0.0600 
    149 H149        2.1169  -20.6596  -44.4629 H         1 UNK         0.3000 
    150 H150       -0.4892  -20.0446  -42.0561 H         1 UNK         0.0600 
    151 H151        1.4648  -20.9588  -40.8148 H         1 UNK         0.0600 
    152 H152        1.5044  -19.2012  -40.8343 H         1 UNK         0.0600 
    153 H153        2.5708  -20.1191  -41.8942 H         1 UNK         0.0600 
    154 H154        1.4098  -18.2702  -43.1691 H         1 UNK         0.3000 
    155 H155       -0.4349  -17.3100  -46.0863 H         1 UNK         0.0600 
    156 H156        0.2754  -15.8974  -43.4545 H         1 UNK         0.0600 
    157 H157       -1.2790  -15.8830  -44.2675 H         1 UNK         0.0600 
    158 H158        0.1031  -15.0934  -45.0107 H         1 UNK         0.0600 
    159 H159        2.1521  -16.6200  -45.0384 H         1 UNK         0.3000 
    160 H160        4.0032  -19.0428  -46.9019 H         1 UNK         0.0600 
    161 H161        3.7108  -16.0070  -47.2354 H         1 UNK         0.0600 
    162 H162        3.4868  -17.1959  -48.5144 H         1 UNK         0.0600 
    163 H163        5.0684  -16.9912  -47.7794 H         1 UNK         0.0600 
    164 H164        4.7761  -16.8813  -45.1855 H         1 UNK         0.3000 
    165 H165        4.6653  -18.6647  -42.1091 H         1 UNK         0.0600 
    166 H166        7.0447  -17.9833  -42.0490 H         1 UNK         0.0600 
    167 H167        6.8367  -19.3316  -43.1546 H         1 UNK         0.0600 
    168 H168        7.0430  -17.7040  -43.7907 H         1 UNK         0.0600 
    169 H169        5.5402  -16.0397  -42.6783 H         1 UNK         0.3000 
    170 H170        4.2593  -14.3128  -41.7562 H         1 UNK         0.0600 
    171 H171        4.2475  -14.1918  -44.2672 H         1 UNK         0.0600 
    172 H172        2.4896  -14.2784  -44.2721 H         1 UNK         0.0600 
    173 H173        3.3068  -12.8854  -43.5686 H         1 UNK         0.0600 
    174 H174        1.4464  -13.8636  -42.1036 H         1 UNK         0.3000 
    175 H175       -0.0965  -15.0382  -39.8679 H         1 UNK         0.0600 
    176 H176        1.3281  -13.0778  -37.9945 H         1 UNK         0.0600 
    177 H177       -0.3488  -13.5988  -37.8330 H         1 UNK         0.0600 
    178 H178        0.9506  -14.7632  -37.6531 H         1 UNK         0.0600 
    179 H179        0.4675  -12.1245  -40.1722 H         1 UNK         0.3000 
    180 H180       -1.9501  -11.1540  -41.0651 H         1 UNK         0.0600 
    181 H181       -0.5014   -9.7739  -42.6423 H         1 UNK         0.0600 
    182 H182        0.5418  -11.1780  -42.8495 H         1 UNK         0.0600 
    183 H183        0.3658  -10.4276  -41.2696 H         1 UNK         0.0600 
    184 H184       -3.2405  -11.4451  -42.8128 H         1 UNK         0.3000 
    185 H185       -4.0548  -12.5877  -44.7147 H         1 UNK         0.0600 
    186 H186       -4.3361  -10.7753  -46.4399 H         1 UNK         0.0600 
    187 H187       -3.7614  -10.0968  -44.9264 H         1 UNK         0.0600 
    188 H188       -2.6399  -10.3295  -46.2624 H         1 UNK         0.0600 
    189 H189       -1.8361  -13.1570  -46.4842 H         1 UNK         0.3000 
    190 H190       -2.0942  -20.7363  -45.0043 H         1 UNK         0.3000 
    191 H191       -4.7808  -21.6160  -44.8614 H         1 UNK         0.0600 
    192 H192       -4.4670  -21.3490  -42.4043 H         1 UNK         0.0600 
    193 H193       -3.7820  -19.9870  -43.2792 H         1 UNK         0.0600 
    194 H194       -2.7253  -21.2328  -42.6204 H         1 UNK         0.0600 
    195 H195       -1.7291  -23.3127  -43.9908 H         1 UNK         0.3000 
    196 H196       -2.9044  -25.7373  -43.0927 H         1 UNK         0.0600 
    197 H197       -0.1583  -25.2449  -44.3606 H         1 UNK         0.0600 
    198 H198       -0.5438  -25.1056  -42.6470 H         1 UNK         0.0600 
    199 H199       -0.6232  -26.6706  -43.4426 H         1 UNK         0.0600 
    200 H200       -2.1127  -24.5929  -46.3525 H         1 UNK         0.3000 
    201 H201       -2.8937  -27.0617  -47.7023 H         1 UNK         0.0600 
    202 H202       -2.3042  -24.2613  -48.7994 H         1 UNK         0.0600 
    203 H203       -2.4303  -25.7404  -49.7416 H         1 UNK         0.0600 
    204 H204       -1.1140  -25.5431  -48.5976 H         1 UNK         0.0600 
    205 H205       -4.7886  -25.0008  -46.0229 H         1 UNK         0.3000 
    206 H206       -6.9061  -24.4132  -45.9358 H         1 UNK         0.0600 
    207 H207       -7.2702  -26.8736  -46.2494 H         1 UNK         0.0600 
    208 H208       -8.6073  -25.9254  -46.8769 H         1 UNK         0.0600 
    209 H209       -7.4381  -26.6265  -47.9872 H         1 UNK         0.0600 
    210 H210       -5.2313  -22.9713  -47.7492 H         1 UNK         0.3000 
    211 H211       -5.2004  -21.3125  -49.1491 H         1 UNK         0.0600 
    212 H212       -7.1853  -19.9519  -49.6173 H         1 UNK         0.0600 
    213 H213       -7.2182  -20.4616  -47.9382 H         1 UNK         0.0600 
    214 H214       -8.2600  -21.2500  -49.1236 H         1 UNK         0.0600 
    215 H215       -5.8074  -24.2796  -50.1692 H         1 UNK         0.3000 
    216 H216       -6.7430  -23.9053  -52.8609 H         1 UNK         0.0600 
    217 H217       -5.0195  -26.1539  -51.6902 H         1 UNK         0.0600 
    218 H218       -5.9350  -26.2139  -53.1897 H         1 UNK         0.0600 
    219 H219       -6.7819  -26.1048  -51.6532 H         1 UNK         0.0600 
    220 H220       -3.6143  -23.6084  -51.3097 H         1 UNK         0.3000 
    221 H221       -1.9886  -23.5106  -53.6918 H         1 UNK         0.0600 
    222 H222       -1.0602  -24.2013  -51.5111 H         1 UNK         0.0600 
    223 H223       -1.4530  -22.6370  -50.8027 H         1 UNK         0.0600 
    224 H224       -0.2335  -22.7566  -52.0661 H         1 UNK         0.0600 
    225 H225       -4.1816  -21.2056  -52.3675 H         1 UNK         0.3000 
    226 H226       -2.7786  -18.7844  -52.8007 H         1 UNK         0.0600 
    227 H227       -5.7947  -19.2501  -52.8309 H         1 UNK         0.0600 
    228 H228       -4.8193  -19.0058  -51.3801 H         1 UNK         0.0600 
    229 H229       -4.9691  -17.7210  -52.5691 H         1 UNK         0.0600 
    230 H230       -4.6214  -20.8435  -54.9880 H         1 UNK         0.3000 
    231 H231       -4.6889  -18.9734  -57.2150 H         1 UNK         0.0600 
    232 H232       -5.2057  -21.9930  -57.0584 H         1 UNK         0.0600 
    233 H233       -5.5649  -20.9654  -58.4416 H         1 UNK         0.0600 
    234 H234       -6.4257  -20.7259  -56.9294 H         1 UNK         0.0600 
    235 H235       -2.3738  -21.2855  -55.9619 H         1 UNK         0.3000 
    236 H236       -0.8865  -21.5655  -58.4875 H         1 UNK         0.0600 
    237 H237       -1.1132  -23.5334  -57.0006 H         1 UNK         0.0600 
    238 H238        0.5703  -23.0539  -57.1427 H         1 UNK         0.0600 
    239 H239       -0.3287  -22.6692  -55.6818 H         1 UNK         0.0600 
    240 H240       -0.3076  -20.2882  -55.1668 H         1 UNK         0.3000 
    241 H241        1.0474  -18.7959  -54.3184 H         1 UNK         0.0600 
    242 H242        4.0713  -20.6877  -55.6146 H         1 UNK         0.3800 
    243 H243        2.4064  -21.1870  -55.4677 H         1 UNK         0.3800 
    244 H244       -0.2408  -17.3741  -56.1608 H         1 UNK         0.0800 
    245 H245        1.3110  -17.2563  -56.9218 H         1 UNK         0.0800 
    246 H246       -0.5229  -14.7987  -53.7956 H         1 UNK         0.0800 
    247 H247       -1.0981  -16.3625  -54.2979 H         1 UNK         0.0800 
@<TRIPOS>BOND
     1    1    2 1    
     2    1  127 1    
     3    1  128 1    
     4    1  129 1    
     5    2    3 2    
     6    2    4 am   BACKBONE|DICT|INTERRES
     7    4    5 1    
     8    4  130 1    
     9    5    6 1    
    10    5   65 1    
    11    5  131 1    
    12    6    7 1    
    13    6  132 1    
    14    6  133 1    
    15    7    8 1    
    16    8    9 1    
    17    8  134 1    
    18    8  135 1    
    19    9   10 ar   
    20    9   14 ar   
    21   10   11 ar   
    22   10  136 1    
    23   11   12 ar   
    24   11  126 1    
    25   12   13 ar   
    26   12  137 1    
    27   13   14 ar   
    28   13   15 1    
    29   14  138 1    
    30   15   16 1    
    31   15  139 1    
    32   15  140 1    
    33   16   17 1    
    34   17   18 1    
    35   17  141 1    
    36   17  142 1    
    37   18   19 1    
    38   18   67 1    
    39   18  143 1    
    40   19   20 am   BACKBONE|DICT|INTERRES
    41   19  144 1    
    42   20   21 2    
    43   20   22 1    
    44   22   23 1    
    45   22   24 1    
    46   22  145 1    
    47   23  146 1    
    48   23  147 1    
    49   23  148 1    
    50   24   25 am   BACKBONE|DICT|INTERRES
    51   24  149 1    
    52   25   26 2    
    53   25   27 1    
    54   27   28 1    
    55   27   29 1    
    56   27  150 1    
    57   28  151 1    
    58   28  152 1    
    59   28  153 1    
    60   29   30 am   BACKBONE|DICT|INTERRES
    61   29  154 1    
    62   30   31 2    
    63   30   32 1    
    64   32   33 1    
    65   32   34 1    
    66   32  155 1    
    67   33  156 1    
    68   33  157 1    
    69   33  158 1    
    70   34   35 am   BACKBONE|DICT|INTERRES
    71   34  159 1    
    72   35   36 2    
    73   35   37 1    
    74   37   38 1    
    75   37   39 1    
    76   37  160 1    
    77   38  161 1    
    78   38  162 1    
    79   38  163 1    
    80   39   40 am   BACKBONE|DICT|INTERRES
    81   39  164 1    
    82   40   41 2    
    83   40   42 1    
    84   42   43 1    
    85   42   44 1    
    86   42  165 1    
    87   43  166 1    
    88   43  167 1    
    89   43  168 1    
    90   44   45 am   BACKBONE|DICT|INTERRES
    91   44  169 1    
    92   45   46 2    
    93   45   47 1    
    94   47   48 1    
    95   47   49 1    
    96   47  170 1    
    97   48  171 1    
    98   48  172 1    
    99   48  173 1    
   100   49   50 am   BACKBONE|DICT|INTERRES
   101   49  174 1    
   102   50   51 2    
   103   50   52 1    
   104   52   53 1    
   105   52   54 1    
   106   52  175 1    
   107   53  176 1    
   108   53  177 1    
   109   53  178 1    
   110   54   55 am   BACKBONE|DICT|INTERRES
   111   54  179 1    
   112   55   56 2    
   113   55   57 1    
   114   57   58 1    
   115   57   59 1    
   116   57  180 1    
   117   58  181 1    
   118   58  182 1    
   119   58  183 1    
   120   59   60 am   BACKBONE|DICT|INTERRES
   121   59  184 1    
   122   60   61 2    
   123   60   62 1    
   124   62   63 1    
   125   62   64 1    
   126   62  185 1    
   127   63  186 1    
   128   63  187 1    
   129   63  188 1    
   130   64   65 am   BACKBONE|DICT|INTERRES
   131   64  189 1    
   132   65   66 2    
   133   67   68 2    
   134   67   69 am   BACKBONE|DICT|INTERRES
   135   69   70 1    
   136   69  190 1    
   137   70   71 1    
   138   70   72 1    
   139   70  191 1    
   140   71  192 1    
   141   71  193 1    
   142   71  194 1    
   143   72   73 2    
   144   72   74 am   BACKBONE|DICT|INTERRES
   145   74   75 1    
   146   74  195 1    
   147   75   76 1    
   148   75   77 1    
   149   75  196 1    
   150   76  197 1    
   151   76  198 1    
   152   76  199 1    
   153   77   78 2    
   154   77   79 am   BACKBONE|DICT|INTERRES
   155   79   80 1    
   156   79  200 1    
   157   80   81 1    
   158   80   82 1    
   159   80  201 1    
   160   81  202 1    
   161   81  203 1    
   162   81  204 1    
   163   82   83 2    
   164   82   84 am   BACKBONE|DICT|INTERRES
   165   84   85 1    
   166   84  205 1    
   167   85   86 1    
   168   85   87 1    
   169   85  206 1    
   170   86  207 1    
   171   86  208 1    
   172   86  209 1    
   173   87   88 2    
   174   87   89 am   BACKBONE|DICT|INTERRES
   175   89   90 1    
   176   89  210 1    
   177   90   91 1    
   178   90   92 1    
   179   90  211 1    
   180   91  212 1    
   181   91  213 1    
   182   91  214 1    
   183   92   93 2    
   184   92   94 am   BACKBONE|DICT|INTERRES
   185   94   95 1    
   186   94  215 1    
   187   95   96 1    
   188   95   97 1    
   189   95  216 1    
   190   96  217 1    
   191   96  218 1    
   192   96  219 1    
   193   97   98 2    
   194   97   99 am   BACKBONE|DICT|INTERRES
   195   99  100 1    
   196   99  220 1    
   197  100  101 1    
   198  100  102 1    
   199  100  221 1    
   200  101  222 1    
   201  101  223 1    
   202  101  224 1    
   203  102  103 2    
   204  102  104 am   BACKBONE|DICT|INTERRES
   205  104  105 1    
   206  104  225 1    
   207  105  106 1    
   208  105  107 1    
   209  105  226 1    
   210  106  227 1    
   211  106  228 1    
   212  106  229 1    
   213  107  108 2    
   214  107  109 am   BACKBONE|DICT|INTERRES
   215  109  110 1    
   216  109  230 1    
   217  110  111 1    
   218  110  112 1    
   219  110  231 1    
   220  111  232 1    
   221  111  233 1    
   222  111  234 1    
   223  112  113 2    
   224  112  114 am   BACKBONE|DICT|INTERRES
   225  114  115 1    
   226  114  235 1    
   227  115  116 1    
   228  115  117 1    
   229  115  236 1    
   230  116  237 1    
   231  116  238 1    
   232  116  239 1    
   233  117  118 2    
   234  117  119 am   BACKBONE|DICT|INTERRES
   235  119  120 1    
   236  119  240 1    
   237  120  121 1    
   238  120  124 1    
   239  120  241 1    
   240  121  122 am   BACKBONE|DICT|INTERRES
   241  121  123 2    
   242  122  242 1    
   243  122  243 1    
   244  124  125 1    
   245  124  244 1    
   246  124  245 1    
   247  125  126 1    
   248  126  246 1    
   249  126  247 1    
@<TRIPOS>SUBSTRUCTURE
     1 UNK         1 GROUP             0       ****    0 ROOT    
