@<TRIPOS>MOLECULE
3R540
247   249    1
SMALL
USER_CHARGES


@<TRIPOS>ATOM
      1 CA         -2.5483  -11.8354  -51.7158 C.3       0 UNK        -0.1800 
      2 C          -2.1943  -12.0428  -50.2498 C.2       0 UNK         0.5000 
      3 O          -3.0899  -12.0668  -49.4060 O.2       0 UNK        -0.5000 
      4 N          -0.8950  -12.1907  -49.9557 N.am      1 UNK        -0.5000 
      5 CA         -0.3124  -12.4020  -48.6231 C.3       1 UNK         0.1400 
      6 C6         -0.6916  -13.7565  -47.9685 C.3       23 UNK        -0.0398 
      7 S7         -0.2430  -15.2075  -48.9800 S.3       23 UNK        -0.2404 
      8 C8          1.4832  -15.4693  -48.4639 C.3       23 UNK        -0.0205 
      9 C9          2.0896  -16.6894  -49.1415 C.ar      23 UNK        -0.0193 
     10 C10         2.3418  -16.6773  -50.5168 C.ar      23 UNK        -0.1150 
     11 C11         2.9119  -17.7880  -51.1454 C.ar      23 UNK        -0.0193 
     12 C12         3.2442  -18.9121  -50.3836 C.ar      23 UNK        -0.1150 
     13 C13         2.9992  -18.9379  -49.0075 C.ar      23 UNK        -0.0193 
     14 C14         2.4222  -17.8227  -48.3936 C.ar      23 UNK        -0.1150 
     15 C15         3.4006  -20.1507  -48.1784 C.3       23 UNK        -0.0205 
     16 S16         2.5158  -21.6674  -48.6608 S.3       23 UNK        -0.2404 
     17 C17         0.7815  -21.3086  -48.2160 C.3       23 UNK        -0.0398 
     18 CA          0.1660  -22.4625  -47.3801 C.3       11 UNK         0.1400 
     19 N           0.3517  -22.2793  -45.9378 N.am      11 UNK        -0.5000 
     20 C           0.0955  -23.2149  -45.0130 C.2       10 UNK         0.5000 
     21 O          -0.2935  -24.3517  -45.2816 O.2       10 UNK        -0.5000 
     22 CA          0.2463  -22.7967  -43.5391 C.3       10 UNK         0.1400 
     23 CB          1.7244  -22.7391  -43.1249 C.3       10 UNK        -0.1800 
     24 N          -0.4036  -21.5169  -43.2516 N.am      10 UNK        -0.5000 
     25 C          -1.7263  -21.3098  -43.3308 C.2       9 UNK         0.5000 
     26 O          -2.5384  -22.1867  -43.6244 O.2       9 UNK        -0.5000 
     27 CA         -2.2268  -19.8766  -43.0752 C.3       9 UNK         0.1400 
     28 CB         -2.3214  -19.5923  -41.5689 C.3       9 UNK        -0.1800 
     29 N          -1.3926  -18.8584  -43.7115 N.am      9 UNK        -0.5000 
     30 C          -1.1963  -18.7468  -45.0331 C.2       8 UNK         0.5000 
     31 O          -1.7210  -19.4749  -45.8726 O.2       8 UNK        -0.5000 
     32 CA         -0.1878  -17.6820  -45.4900 C.3       8 UNK         0.1400 
     33 CB         -0.8013  -16.2785  -45.3922 C.3       8 UNK        -0.1800 
     34 N           1.0588  -17.7341  -44.7240 N.am      8 UNK        -0.5000 
     35 C           1.8479  -18.8124  -44.6091 C.2       7 UNK         0.5000 
     36 O           1.6340  -19.8815  -45.1760 O.2       7 UNK        -0.5000 
     37 CA          3.0526  -18.6923  -43.6650 C.3       7 UNK         0.1400 
     38 CB          4.2323  -18.0044  -44.3685 C.3       7 UNK        -0.1800 
     39 N           2.6980  -17.9686  -42.4451 N.am      7 UNK        -0.5000 
     40 C           1.9043  -18.4642  -41.4843 C.2       6 UNK         0.5000 
     41 O           1.4460  -19.6074  -41.4975 O.2       6 UNK        -0.5000 
     42 CA          1.5249  -17.5031  -40.3421 C.3       6 UNK         0.1400 
     43 CB          2.6382  -17.4475  -39.2854 C.3       6 UNK        -0.1800 
     44 N           1.2398  -16.1486  -40.8215 N.am      6 UNK        -0.5000 
     45 C           0.1906  -15.8286  -41.5923 C.2       5 UNK         0.5000 
     46 O          -0.6719  -16.6374  -41.9339 O.2       5 UNK        -0.5000 
     47 CA          0.1089  -14.3742  -42.0998 C.3       5 UNK         0.1400 
     48 CB         -0.6892  -13.5067  -41.1157 C.3       5 UNK        -0.1800 
     49 N           1.4098  -13.7444  -42.3526 N.am      5 UNK        -0.5000 
     50 C           2.3380  -14.1996  -43.2061 C.2       4 UNK         0.5000 
     51 O           2.2149  -15.2423  -43.8501 O.2       4 UNK        -0.5000 
     52 CA          3.6084  -13.3367  -43.3432 C.3       4 UNK         0.1400 
     53 CB          4.6389  -13.9270  -44.3294 C.3       4 UNK        -0.1800 
     54 N           3.2991  -11.9397  -43.6734 N.am      4 UNK        -0.5000 
     55 C           2.7051  -11.4857  -44.7867 C.2       3 UNK         0.5000 
     56 O           2.3365  -12.2025  -45.7230 O.2       3 UNK        -0.5000 
     57 CA          2.5067   -9.9624  -44.8698 C.3       3 UNK         0.1400 
     58 CB          3.8465   -9.2257  -45.0424 C.3       3 UNK        -0.1800 
     59 N           1.6527   -9.6748  -46.0139 N.am      3 UNK        -0.5000 
     60 C           0.6861   -8.7543  -46.0808 C.2       2 UNK         0.5000 
     61 O           0.4685   -7.9261  -45.1955 O.2       2 UNK        -0.5000 
     62 CA         -0.1968   -8.7649  -47.3493 C.3       2 UNK         0.1400 
     63 CB          0.1775   -7.5979  -48.2763 C.3       2 UNK        -0.1800 
     64 N          -0.1220  -10.0169  -48.1129 N.am      2 UNK        -0.5000 
     65 C          -0.5839  -11.2023  -47.6888 C.2       1 UNK         0.5000 
     66 O          -1.1883  -11.3550  -46.6255 O.2       1 UNK        -0.5000 
     67 C          -1.3128  -22.7122  -47.7410 C.2       11 UNK         0.5000 
     68 O          -1.5896  -23.6246  -48.5189 O.2       11 UNK        -0.5000 
     69 N          -2.2375  -21.9530  -47.1351 N.am      12 UNK        -0.5000 
     70 CA         -3.6802  -22.1099  -47.3251 C.3       12 UNK         0.1400 
     71 CB         -4.4274  -20.9405  -46.6679 C.3       12 UNK        -0.1800 
     72 C          -4.2301  -23.4548  -46.8172 C.2       12 UNK         0.5000 
     73 O          -5.1722  -23.9795  -47.4089 O.2       12 UNK        -0.5000 
     74 N          -3.6394  -23.9927  -45.7424 N.am      13 UNK        -0.5000 
     75 CA         -3.9549  -25.3204  -45.2189 C.3       13 UNK         0.1400 
     76 CB         -3.4265  -25.4430  -43.7814 C.3       13 UNK        -0.1800 
     77 C          -3.3919  -26.4465  -46.1062 C.2       13 UNK         0.5000 
     78 O          -4.0587  -27.4666  -46.2846 O.2       13 UNK        -0.5000 
     79 N          -2.1742  -26.2509  -46.6296 N.am      14 UNK        -0.5000 
     80 CA         -1.4612  -27.2230  -47.4557 C.3       14 UNK         0.1400 
     81 CB          0.0298  -26.8530  -47.5022 C.3       14 UNK        -0.1800 
     82 C          -2.0316  -27.3530  -48.8796 C.2       14 UNK         0.5000 
     83 O          -2.2054  -28.4743  -49.3600 O.2       14 UNK        -0.5000 
     84 N          -2.2773  -26.2164  -49.5430 N.am      15 UNK        -0.5000 
     85 CA         -2.7181  -26.1570  -50.9352 C.3       15 UNK         0.1400 
     86 CB         -2.4611  -24.7464  -51.4836 C.3       15 UNK        -0.1800 
     87 C          -4.2012  -26.5302  -51.0991 C.2       15 UNK         0.5000 
     88 O          -5.0459  -26.0594  -50.3352 O.2       15 UNK        -0.5000 
     89 N          -4.5016  -27.3150  -52.1430 N.am      16 UNK        -0.5000 
     90 CA         -5.8610  -27.7156  -52.5255 C.3       16 UNK         0.1400 
     91 CB         -5.7763  -28.8455  -53.5630 C.3       16 UNK        -0.1800 
     92 C          -6.7131  -26.5485  -53.0662 C.2       16 UNK         0.5000 
     93 O          -7.9406  -26.6037  -52.9906 O.2       16 UNK        -0.5000 
     94 N          -6.0456  -25.5042  -53.5758 N.am      17 UNK        -0.5000 
     95 CA         -6.6448  -24.2476  -54.0317 C.3       17 UNK         0.1400 
     96 CB         -5.6626  -23.5691  -55.0017 C.3       17 UNK        -0.1800 
     97 C          -7.0143  -23.2881  -52.8790 C.2       17 UNK         0.5000 
     98 O          -7.5592  -22.2164  -53.1461 O.2       17 UNK        -0.5000 
     99 N          -6.6990  -23.6693  -51.6316 N.am      18 UNK        -0.5000 
    100 CA        -6.7596  -22.8554  -50.4181 C.3       18 UNK         0.1400 
    101 CB        -8.2050  -22.4171  -50.0889 C.3       18 UNK        -0.1800 
    102 C         -5.7353  -21.7054  -50.4910 C.2       18 UNK         0.5000 
    103 O         -4.6136  -21.9344  -50.9428 O.2       18 UNK        -0.5000 
    104 N         -6.1063  -20.5032  -50.0324 N.am      19 UNK        -0.5000 
    105 CA        -5.2342  -19.3250  -50.0167 C.3       19 UNK         0.1400 
    106 CB        -5.8595  -18.2584  -49.1044 C.3       19 UNK        -0.1800 
    107 C         -4.9486  -18.7373  -51.4144 C.2       19 UNK         0.5000 
    108 O         -3.9617  -18.0169  -51.5736 O.2       19 UNK        -0.5000 
    109 N         -5.8139  -19.0321  -52.3953 N.am      20 UNK        -0.5000 
    110 CA        -5.6758  -18.5915  -53.7822 C.3       20 UNK         0.1400 
    111 CB        -6.9735  -18.8987  -54.5440 C.3       20 UNK        -0.1800 
    112 C         -4.4733  -19.2616  -54.4691 C.2       20 UNK         0.5000 
    113 O         -4.2452  -20.4566  -54.2701 O.2       20 UNK        -0.5000 
    114 N         -3.7288  -18.4757  -55.2607 N.am      21 UNK        -0.5000 
    115 CA        -2.5540  -18.8796  -56.0477 C.3       21 UNK         0.1400 
    116 CB        -2.9935  -19.7564  -57.2395 C.3       21 UNK        -0.1800 
    117 C         -1.4328  -19.5354  -55.2077 C.2       21 UNK         0.5000 
    118 O         -0.7446  -20.4331  -55.6969 O.2       21 UNK        -0.5000 
    119 N         -1.2899  -19.0830  -53.9533 N.am      22 UNK        -0.5000 
    120 CA        -0.3966  -19.6412  -52.9202 C.3       22 UNK         0.1400 
    121 C         -0.8272  -21.0466  -52.3952 C.2       22 UNK         0.5000 
    122 N         -2.0448  -21.5102  -52.6466 N.am      22 UNK        -0.7600 
    123 O         -0.0590  -21.7198  -51.7159 O.2       22 UNK        -0.5000 
    124 C124        1.1122  -19.5796  -53.2996 C.3       23 UNK        -0.0398 
    125 S125        1.6791  -17.8767  -53.6452 S.3       23 UNK        -0.2404 
    126 C126        3.1952  -17.7608  -52.6408 C.3       23 UNK        -0.0205 
    127 H127       -3.2119  -12.6300  -52.0570 H         1 UNK         0.0600 
    128 H128       -1.6629  -11.8361  -52.3521 H         1 UNK         0.0600 
    129 H129       -3.0603  -10.8821  -51.8470 H         1 UNK         0.0600 
    130 H130       -0.2259  -12.1636  -50.7122 H         1 UNK         0.3000 
    131 H131        0.7686  -12.4155  -48.7707 H         1 UNK         0.0600 
    132 H132       -0.2011  -13.8435  -46.9989 H         1 UNK         0.0800 
    133 H133       -1.7633  -13.8019  -47.7696 H         1 UNK         0.0800 
    134 H134        2.0759  -14.5887  -48.7150 H         1 UNK         0.0800 
    135 H135        1.5289  -15.5723  -47.3786 H         1 UNK         0.0800 
    136 H136        2.0888  -15.8029  -51.1001 H         1 UNK         0.1150 
    137 H137        3.6979  -19.7708  -50.8584 H         1 UNK         0.1150 
    138 H138        2.2501  -17.8303  -47.3284 H         1 UNK         0.1150 
    139 H139        4.4702  -20.3198  -48.3083 H         1 UNK         0.0800 
    140 H140        3.2554  -19.9692  -47.1153 H         1 UNK         0.0800 
    141 H141        0.2480  -21.1645  -49.1566 H         1 UNK         0.0800 
    142 H142        0.7061  -20.3568  -47.6883 H         1 UNK         0.0800 
    143 H143        0.6827  -23.3880  -47.6440 H         1 UNK         0.0600 
    144 H144        0.7009  -21.3719  -45.6343 H         1 UNK         0.3000 
    145 H145       -0.2421  -23.5594  -42.9288 H         1 UNK         0.0600 
    146 H146        1.8279  -22.4935  -42.0678 H         1 UNK         0.0600 
    147 H147        2.2788  -21.9950  -43.6959 H         1 UNK         0.0600 
    148 H148        2.2102  -23.7023  -43.2851 H         1 UNK         0.0600 
    149 H149        0.1987  -20.7459  -42.9908 H         1 UNK         0.3000 
    150 H150       -3.2292  -19.7954  -43.5002 H         1 UNK         0.0600 
    151 H151       -2.9498  -20.3311  -41.0699 H         1 UNK         0.0600 
    152 H152       -2.7590  -18.6118  -41.3805 H         1 UNK         0.0600 
    153 H153       -1.3410  -19.6167  -41.0920 H         1 UNK         0.0600 
    154 H154       -0.9473  -18.1851  -43.0944 H         1 UNK         0.3000 
    155 H155        0.0588  -17.8752  -46.5352 H         1 UNK         0.0600 
    156 H156       -1.5455  -16.1296  -46.1750 H         1 UNK         0.0600 
    157 H157       -0.0415  -15.5070  -45.5017 H         1 UNK         0.0600 
    158 H158       -1.3018  -16.1140  -44.4391 H         1 UNK         0.0600 
    159 H159        1.3491  -16.8761  -44.2624 H         1 UNK         0.3000 
    160 H160        3.3668  -19.7004  -43.3866 H         1 UNK         0.0600 
    161 H161        3.9671  -17.0126  -44.7340 H         1 UNK         0.0600 
    162 H162        4.5616  -18.5879  -45.2291 H         1 UNK         0.0600 
    163 H163        5.0868  -17.9004  -43.6998 H         1 UNK         0.0600 
    164 H164        2.9744  -16.9988  -42.3976 H         1 UNK         0.3000 
    165 H165        0.6223  -17.8928  -39.8663 H         1 UNK         0.0600 
    166 H166        2.3450  -16.8296  -38.4364 H         1 UNK         0.0600 
    167 H167        2.8594  -18.4437  -38.8999 H         1 UNK         0.0600 
    168 H168        3.5640  -17.0403  -39.6938 H         1 UNK         0.0600 
    169 H169        1.9003  -15.4251  -40.5794 H         1 UNK         0.3000 
    170 H170       -0.4307  -14.3891  -43.0480 H         1 UNK         0.0600 
    171 H171       -0.1804  -13.4152  -40.1552 H         1 UNK         0.0600 
    172 H172       -0.8455  -12.5028  -41.5111 H         1 UNK         0.0600 
    173 H173       -1.6740  -13.9361  -40.9262 H         1 UNK         0.0600 
    174 H174        1.5884  -12.8770  -41.8681 H         1 UNK         0.3000 
    175 H175        4.0766  -13.3233  -42.3579 H         1 UNK         0.0600 
    176 H176        4.2225  -14.0565  -45.3289 H         1 UNK         0.0600 
    177 H177        5.5172  -13.2871  -44.4124 H         1 UNK         0.0600 
    178 H178        4.9825  -14.9047  -43.9908 H         1 UNK         0.0600 
    179 H179        3.5620  -11.2642  -42.9692 H         1 UNK         0.3000 
    180 H180        2.0206   -9.6339  -43.9488 H         1 UNK         0.0600 
    181 H181        3.6953   -8.1490  -45.1220 H         1 UNK         0.0600 
    182 H182        4.3731   -9.5561  -45.9387 H         1 UNK         0.0600 
    183 H183        4.5059   -9.3967  -44.1910 H         1 UNK         0.0600 
    184 H184        1.7140  -10.3644  -46.7510 H         1 UNK         0.3000 
    185 H185       -1.2308   -8.6270  -47.0262 H         1 UNK         0.0600 
    186 H186       -0.4875   -7.5494  -49.1388 H         1 UNK         0.0600 
    187 H187        0.0997   -6.6432  -47.7544 H         1 UNK         0.0600 
    188 H188        1.2005   -7.6884  -48.6437 H         1 UNK         0.0600 
    189 H189        0.3398   -9.9682  -49.0098 H         1 UNK         0.3000 
    190 H190       -1.9424  -21.1877  -46.5323 H         1 UNK         0.3000 
    191 H191       -3.8627  -22.0697  -48.3979 H         1 UNK         0.0600 
    192 H192       -4.1034  -19.9847  -47.0786 H         1 UNK         0.0600 
    193 H193       -4.2626  -20.9153  -45.5903 H         1 UNK         0.0600 
    194 H194       -5.5021  -21.0189  -46.8366 H         1 UNK         0.0600 
    195 H195       -2.9216  -23.4653  -45.2581 H         1 UNK         0.3000 
    196 H196       -5.0409  -25.4313  -45.1873 H         1 UNK         0.0600 
    197 H197       -3.8778  -24.6931  -43.1315 H         1 UNK         0.0600 
    198 H198       -2.3446  -25.3154  -43.7359 H         1 UNK         0.0600 
    199 H199       -3.6606  -26.4218  -43.3611 H         1 UNK         0.0600 
    200 H200       -1.6727  -25.4015  -46.3926 H         1 UNK         0.3000 
    201 H201       -1.5453  -28.2005  -46.9759 H         1 UNK         0.0600 
    202 H202        0.4660  -26.8504  -46.5031 H         1 UNK         0.0600 
    203 H203        0.1864  -25.8650  -47.9366 H         1 UNK         0.0600 
    204 H204        0.5929  -27.5695  -48.1014 H         1 UNK         0.0600 
    205 H205       -2.1173  -25.3239  -49.0802 H         1 UNK         0.3000 
    206 H206       -2.1121  -26.8576  -51.5139 H         1 UNK         0.0600 
    207 H207       -3.0063  -23.9969  -50.9100 H         1 UNK         0.0600 
    208 H208       -1.4016  -24.4922  -51.4382 H         1 UNK         0.0600 
    209 H209       -2.7747  -24.6615  -52.5247 H         1 UNK         0.0600 
    210 H210       -3.7536  -27.6617  -52.7268 H         1 UNK         0.3000 
    211 H211       -6.3633  -28.1038  -51.6369 H         1 UNK         0.0600 
    212 H212       -5.2672  -28.5213  -54.4715 H         1 UNK         0.0600 
    213 H213       -6.7715  -29.1885  -53.8492 H         1 UNK         0.0600 
    214 H214       -5.2397  -29.7072  -53.1653 H         1 UNK         0.0600 
    215 H215       -5.0383  -25.5541  -53.6021 H         1 UNK         0.3000 
    216 H216       -7.5643  -24.4722  -54.5760 H         1 UNK         0.0600 
    217 H217       -6.0816  -22.6463  -55.4056 H         1 UNK         0.0600 
    218 H218       -5.4296  -24.2156  -55.8477 H         1 UNK         0.0600 
    219 H219       -4.7257  -23.3090  -54.5067 H         1 UNK         0.0600 
    220 H220       -6.2263  -24.5564  -51.5148 H         1 UNK         0.3000 
    221 H221       -6.4261  -23.5094  -49.6136 H         1 UNK         0.0600 
    222 H222       -8.5866  -21.6781  -50.7939 H         1 UNK         0.0600 
    223 H223       -8.8829  -23.2706  -50.1062 H         1 UNK         0.0600 
    224 H224       -8.2655  -21.9851  -49.0895 H         1 UNK         0.0600 
    225 H225       -7.0446  -20.3811  -49.6804 H         1 UNK         0.3000 
    226 H226       -4.2732  -19.6183  -49.5886 H         1 UNK         0.0600 
    227 H227       -6.0099  -18.6380  -48.0938 H         1 UNK         0.0600 
    228 H228       -5.2130  -17.3831  -49.0277 H         1 UNK         0.0600 
    229 H229       -6.8249  -17.9212  -49.4837 H         1 UNK         0.0600 
    230 H230       -6.5576  -19.6865  -52.2010 H         1 UNK         0.3000 
    231 H231       -5.5272  -17.5096  -53.7781 H         1 UNK         0.0600 
    232 H232       -6.9188  -18.5328  -55.5700 H         1 UNK         0.0600 
    233 H233       -7.8326  -18.4205  -54.0732 H         1 UNK         0.0600 
    234 H234       -7.1683  -19.9706  -54.5899 H         1 UNK         0.0600 
    235 H235       -3.9869  -17.5021  -55.3448 H         1 UNK         0.3000 
    236 H236       -2.1258  -17.9622  -56.4541 H         1 UNK         0.0600 
    237 H237       -3.3848  -20.7192  -56.9086 H         1 UNK         0.0600 
    238 H238       -3.7683  -19.2640  -57.8270 H         1 UNK         0.0600 
    239 H239       -2.1576  -19.9556  -57.9111 H         1 UNK         0.0600 
    240 H240       -1.9194  -18.3601  -53.6352 H         1 UNK         0.3000 
    241 H241       -0.5273  -18.9901  -52.0549 H         1 UNK         0.0600 
    242 H242       -2.7148  -20.9921  -53.2067 H         1 UNK         0.3800 
    243 H243       -2.3312  -22.3808  -52.2311 H         1 UNK         0.3800 
    244 H244        1.3238  -20.2018  -54.1692 H         1 UNK         0.0800 
    245 H245        1.7177  -19.9932  -52.4932 H         1 UNK         0.0800 
    246 H246        3.8756  -18.5660  -52.9227 H         1 UNK         0.0800 
    247 H247        3.7084  -16.8305  -52.8881 H         1 UNK         0.0800 
@<TRIPOS>BOND
     1    1    2 1    
     2    1  127 1    
     3    1  128 1    
     4    1  129 1    
     5    2    3 2    
     6    2    4 am   BACKBONE|DICT|INTERRES
     7    4    5 1    
     8    4  130 1    
     9    5    6 1    
    10    5   65 1    
    11    5  131 1    
    12    6    7 1    
    13    6  132 1    
    14    6  133 1    
    15    7    8 1    
    16    8    9 1    
    17    8  134 1    
    18    8  135 1    
    19    9   10 ar   
    20    9   14 ar   
    21   10   11 ar   
    22   10  136 1    
    23   11   12 ar   
    24   11  126 1    
    25   12   13 ar   
    26   12  137 1    
    27   13   14 ar   
    28   13   15 1    
    29   14  138 1    
    30   15   16 1    
    31   15  139 1    
    32   15  140 1    
    33   16   17 1    
    34   17   18 1    
    35   17  141 1    
    36   17  142 1    
    37   18   19 1    
    38   18   67 1    
    39   18  143 1    
    40   19   20 am   BACKBONE|DICT|INTERRES
    41   19  144 1    
    42   20   21 2    
    43   20   22 1    
    44   22   23 1    
    45   22   24 1    
    46   22  145 1    
    47   23  146 1    
    48   23  147 1    
    49   23  148 1    
    50   24   25 am   BACKBONE|DICT|INTERRES
    51   24  149 1    
    52   25   26 2    
    53   25   27 1    
    54   27   28 1    
    55   27   29 1    
    56   27  150 1    
    57   28  151 1    
    58   28  152 1    
    59   28  153 1    
    60   29   30 am   BACKBONE|DICT|INTERRES
    61   29  154 1    
    62   30   31 2    
    63   30   32 1    
    64   32   33 1    
    65   32   34 1    
    66   32  155 1    
    67   33  156 1    
    68   33  157 1    
    69   33  158 1    
    70   34   35 am   BACKBONE|DICT|INTERRES
    71   34  159 1    
    72   35   36 2    
    73   35   37 1    
    74   37   38 1    
    75   37   39 1    
    76   37  160 1    
    77   38  161 1    
    78   38  162 1    
    79   38  163 1    
    80   39   40 am   BACKBONE|DICT|INTERRES
    81   39  164 1    
    82   40   41 2    
    83   40   42 1    
    84   42   43 1    
    85   42   44 1    
    86   42  165 1    
    87   43  166 1    
    88   43  167 1    
    89   43  168 1    
    90   44   45 am   BACKBONE|DICT|INTERRES
    91   44  169 1    
    92   45   46 2    
    93   45   47 1    
    94   47   48 1    
    95   47   49 1    
    96   47  170 1    
    97   48  171 1    
    98   48  172 1    
    99   48  173 1    
   100   49   50 am   BACKBONE|DICT|INTERRES
   101   49  174 1    
   102   50   51 2    
   103   50   52 1    
   104   52   53 1    
   105   52   54 1    
   106   52  175 1    
   107   53  176 1    
   108   53  177 1    
   109   53  178 1    
   110   54   55 am   BACKBONE|DICT|INTERRES
   111   54  179 1    
   112   55   56 2    
   113   55   57 1    
   114   57   58 1    
   115   57   59 1    
   116   57  180 1    
   117   58  181 1    
   118   58  182 1    
   119   58  183 1    
   120   59   60 am   BACKBONE|DICT|INTERRES
   121   59  184 1    
   122   60   61 2    
   123   60   62 1    
   124   62   63 1    
   125   62   64 1    
   126   62  185 1    
   127   63  186 1    
   128   63  187 1    
   129   63  188 1    
   130   64   65 am   BACKBONE|DICT|INTERRES
   131   64  189 1    
   132   65   66 2    
   133   67   68 2    
   134   67   69 am   BACKBONE|DICT|INTERRES
   135   69   70 1    
   136   69  190 1    
   137   70   71 1    
   138   70   72 1    
   139   70  191 1    
   140   71  192 1    
   141   71  193 1    
   142   71  194 1    
   143   72   73 2    
   144   72   74 am   BACKBONE|DICT|INTERRES
   145   74   75 1    
   146   74  195 1    
   147   75   76 1    
   148   75   77 1    
   149   75  196 1    
   150   76  197 1    
   151   76  198 1    
   152   76  199 1    
   153   77   78 2    
   154   77   79 am   BACKBONE|DICT|INTERRES
   155   79   80 1    
   156   79  200 1    
   157   80   81 1    
   158   80   82 1    
   159   80  201 1    
   160   81  202 1    
   161   81  203 1    
   162   81  204 1    
   163   82   83 2    
   164   82   84 am   BACKBONE|DICT|INTERRES
   165   84   85 1    
   166   84  205 1    
   167   85   86 1    
   168   85   87 1    
   169   85  206 1    
   170   86  207 1    
   171   86  208 1    
   172   86  209 1    
   173   87   88 2    
   174   87   89 am   BACKBONE|DICT|INTERRES
   175   89   90 1    
   176   89  210 1    
   177   90   91 1    
   178   90   92 1    
   179   90  211 1    
   180   91  212 1    
   181   91  213 1    
   182   91  214 1    
   183   92   93 2    
   184   92   94 am   BACKBONE|DICT|INTERRES
   185   94   95 1    
   186   94  215 1    
   187   95   96 1    
   188   95   97 1    
   189   95  216 1    
   190   96  217 1    
   191   96  218 1    
   192   96  219 1    
   193   97   98 2    
   194   97   99 am   BACKBONE|DICT|INTERRES
   195   99  100 1    
   196   99  220 1    
   197  100  101 1    
   198  100  102 1    
   199  100  221 1    
   200  101  222 1    
   201  101  223 1    
   202  101  224 1    
   203  102  103 2    
   204  102  104 am   BACKBONE|DICT|INTERRES
   205  104  105 1    
   206  104  225 1    
   207  105  106 1    
   208  105  107 1    
   209  105  226 1    
   210  106  227 1    
   211  106  228 1    
   212  106  229 1    
   213  107  108 2    
   214  107  109 am   BACKBONE|DICT|INTERRES
   215  109  110 1    
   216  109  230 1    
   217  110  111 1    
   218  110  112 1    
   219  110  231 1    
   220  111  232 1    
   221  111  233 1    
   222  111  234 1    
   223  112  113 2    
   224  112  114 am   BACKBONE|DICT|INTERRES
   225  114  115 1    
   226  114  235 1    
   227  115  116 1    
   228  115  117 1    
   229  115  236 1    
   230  116  237 1    
   231  116  238 1    
   232  116  239 1    
   233  117  118 2    
   234  117  119 am   BACKBONE|DICT|INTERRES
   235  119  120 1    
   236  119  240 1    
   237  120  121 1    
   238  120  124 1    
   239  120  241 1    
   240  121  122 am   BACKBONE|DICT|INTERRES
   241  121  123 2    
   242  122  242 1    
   243  122  243 1    
   244  124  125 1    
   245  124  244 1    
   246  124  245 1    
   247  125  126 1    
   248  126  246 1    
   249  126  247 1    
@<TRIPOS>SUBSTRUCTURE
     1 UNK         1 GROUP             0       ****    0 ROOT    
