@<TRIPOS>MOLECULE
3R540
247   249    1
SMALL
USER_CHARGES


@<TRIPOS>ATOM
      1 CA          4.2798  -15.8881  -45.5085 C.3       0 UNK        -0.1800 
      2 C           3.1042  -15.0510  -45.9893 C.2       0 UNK         0.5000 
      3 O           2.1112  -14.9258  -45.2773 O.2       0 UNK        -0.5000 
      4 N           3.2092  -14.4832  -47.1974 N.am      1 UNK        -0.5000 
      5 CA          2.1716  -13.6515  -47.8251 C.3       1 UNK         0.1400 
      6 C6          2.2468  -13.7046  -49.3756 C.3       23 UNK        -0.0398 
      7 S7          2.2035  -15.3737  -50.1285 S.3       23 UNK        -0.2404 
      8 C8          0.9325  -16.2300  -49.1474 C.3       23 UNK        -0.0205 
      9 C9          0.6606  -17.6368  -49.6546 C.ar      23 UNK        -0.0193 
     10 C10        -0.5835  -17.9651  -50.2023 C.ar      23 UNK        -0.1150 
     11 C11        -0.8545  -19.2753  -50.6065 C.ar      23 UNK        -0.0193 
     12 C12         0.1253  -20.2593  -50.4546 C.ar      23 UNK        -0.1150 
     13 C13         1.3699  -19.9476  -49.9024 C.ar      23 UNK        -0.0193 
     14 C14         1.6371  -18.6283  -49.5212 C.ar      23 UNK        -0.1150 
     15 C15         2.4014  -21.0535  -49.7044 C.3       23 UNK        -0.0205 
     16 S16         3.1799  -21.0793  -48.0499 S.3       23 UNK        -0.2404 
     17 C17         1.7825  -20.8374  -46.8983 C.3       23 UNK        -0.0398 
     18 CA          1.1204  -22.1486  -46.4172 C.3       11 UNK         0.1400 
     19 N           0.4836  -21.9668  -45.1125 N.am      11 UNK        -0.5000 
     20 C          -0.0752  -22.9340  -44.3739 C.2       10 UNK         0.5000 
     21 O          -0.0758  -24.1242  -44.6847 O.2       10 UNK        -0.5000 
     22 CA         -0.8035  -22.4792  -43.0980 C.3       10 UNK         0.1400 
     23 CB          0.1880  -22.2532  -41.9466 C.3       10 UNK        -0.1800 
     24 N          -1.5816  -21.2607  -43.3241 N.am      10 UNK        -0.5000 
     25 C          -2.6774  -21.1984  -44.0935 C.2       9 UNK         0.5000 
     26 O          -3.1744  -22.1741  -44.6567 O.2       9 UNK        -0.5000 
     27 CA         -3.2931  -19.8028  -44.2993 C.3       9 UNK         0.1400 
     28 CB         -4.1563  -19.4032  -43.0935 C.3       9 UNK        -0.1800 
     29 N          -2.2803  -18.7726  -44.5343 N.am      9 UNK        -0.5000 
     30 C          -1.5041  -18.7132  -45.6265 C.2       8 UNK         0.5000 
     31 O          -1.5674  -19.5171  -46.5528 O.2       8 UNK        -0.5000 
     32 CA         -0.4478  -17.5961  -45.6775 C.3       8 UNK         0.1400 
     33 CB         -1.0754  -16.3124  -46.2389 C.3       8 UNK        -0.1800 
     34 N           0.1642  -17.3147  -44.3783 N.am      8 UNK        -0.5000 
     35 C           0.7990  -18.2126  -43.6089 C.2       7 UNK         0.5000 
     36 O           0.9602  -19.3894  -43.9318 O.2       7 UNK        -0.5000 
     37 CA          1.3054  -17.7452  -42.2316 C.3       7 UNK         0.1400 
     38 CB          2.8225  -17.5159  -42.2681 C.3       7 UNK        -0.1800 
     39 N           0.6401  -16.5372  -41.7394 N.am      7 UNK        -0.5000 
     40 C          -0.6570  -16.4632  -41.3991 C.2       6 UNK         0.5000 
     41 O          -1.4243  -17.4262  -41.4435 O.2       6 UNK        -0.5000 
     42 CA         -1.2027  -15.0857  -40.9670 C.3       6 UNK         0.1400 
     43 CB         -1.2631  -14.9896  -39.4352 C.3       6 UNK        -0.1800 
     44 N          -0.4221  -13.9595  -41.4824 N.am      6 UNK        -0.5000 
     45 C          -0.2901  -13.6425  -42.7780 C.2       5 UNK         0.5000 
     46 O          -0.9069  -14.2118  -43.6778 O.2       5 UNK        -0.5000 
     47 CA          0.7155  -12.5279  -43.1332 C.3       5 UNK         0.1400 
     48 CB         -0.0181  -11.2236  -43.4783 C.3       5 UNK        -0.1800 
     49 N           1.7247  -12.2431  -42.1067 N.am      5 UNK        -0.5000 
     50 C           2.6278  -13.1030  -41.6138 C.2       4 UNK         0.5000 
     51 O           2.6287  -14.3073  -41.8676 O.2       4 UNK        -0.5000 
     52 CA          3.7152  -12.4985  -40.6990 C.3       4 UNK         0.1400 
     53 CB          4.6975  -13.5572  -40.1662 C.3       4 UNK        -0.1800 
     54 N           4.4734  -11.4719  -41.4146 N.am      4 UNK        -0.5000 
     55 C           4.0630  -10.2171  -41.6330 C.2       3 UNK         0.5000 
     56 O           3.0328   -9.7459  -41.1480 O.2       3 UNK        -0.5000 
     57 CA          4.8801   -9.3723  -42.6266 C.3       3 UNK         0.1400 
     58 CB          6.3976   -9.6611  -42.5962 C.3       3 UNK        -0.1800 
     59 N           4.3260   -9.4986  -43.9800 N.am      3 UNK        -0.5000 
     60 C           4.2607  -10.6046  -44.7362 C.2       2 UNK         0.5000 
     61 O           4.7701  -11.6877  -44.4336 O.2       2 UNK        -0.5000 
     62 CA          3.4928  -10.4712  -46.0592 C.3       2 UNK         0.1400 
     63 CB          4.2720   -9.6245  -47.0812 C.3       2 UNK        -0.1800 
     64 N           3.2639  -11.8025  -46.6089 N.am      2 UNK        -0.5000 
     65 C           2.2088  -12.1853  -47.3358 C.2       1 UNK         0.5000 
     66 O           1.2863  -11.4271  -47.6379 O.2       1 UNK        -0.5000 
     67 C           0.1288  -22.7088  -47.4587 C.2       11 UNK         0.5000 
     68 O           0.4480  -23.6894  -48.1294 O.2       11 UNK        -0.5000 
     69 N          -1.0727  -22.1165  -47.5356 N.am      12 UNK        -0.5000 
     70 CA         -2.1710  -22.5524  -48.3980 C.3       12 UNK         0.1400 
     71 CB         -3.3417  -21.5631  -48.2905 C.3       12 UNK        -0.1800 
     72 C          -2.6501  -23.9774  -48.0830 C.2       12 UNK         0.5000 
     73 O          -2.8742  -24.7537  -49.0116 O.2       12 UNK        -0.5000 
     74 N          -2.7681  -24.3025  -46.7879 N.am      13 UNK        -0.5000 
     75 CA         -3.1256  -25.6338  -46.3001 C.3       13 UNK         0.1400 
     76 CB         -3.3988  -25.5757  -44.7896 C.3       13 UNK        -0.1800 
     77 C          -2.0553  -26.6908  -46.6276 C.2       13 UNK         0.5000 
     78 O          -2.4050  -27.7834  -47.0742 O.2       13 UNK        -0.5000 
     79 N          -0.7763  -26.3389  -46.4329 N.am      14 UNK        -0.5000 
     80 CA          0.3785  -27.1836  -46.7450 C.3       14 UNK         0.1400 
     81 CB          1.6498  -26.5526  -46.1567 C.3       14 UNK        -0.1800 
     82 C           0.5441  -27.4368  -48.2548 C.2       14 UNK         0.5000 
     83 O           0.8336  -28.5653  -48.6543 O.2       14 UNK        -0.5000 
     84 N           0.3372  -26.3902  -49.0649 N.am      15 UNK        -0.5000 
     85 CA          0.3740  -26.4457  -50.5272 C.3       15 UNK         0.1400 
     86 CB          0.4945  -25.0134  -51.0734 C.3       15 UNK        -0.1800 
     87 C          -0.8531  -27.1432  -51.1465 C.2       15 UNK         0.5000 
     88 O          -0.7763  -27.5738  -52.2978 O.2       15 UNK        -0.5000 
     89 N          -1.9588  -27.2104  -50.3886 N.am      16 UNK        -0.5000 
     90 CA         -3.3030  -27.6292  -50.8006 C.3       16 UNK         0.1400 
     91 CB         -3.3357  -29.1293  -51.1594 C.3       16 UNK        -0.1800 
     92 C          -3.8594  -26.7141  -51.9127 C.2       16 UNK         0.5000 
     93 O          -4.3888  -27.1934  -52.9178 O.2       16 UNK        -0.5000 
     94 N          -3.6779  -25.4018  -51.7196 N.am      17 UNK        -0.5000 
     95 CA         -4.0382  -24.3509  -52.6665 C.3       17 UNK         0.1400 
     96 CB         -3.3530  -23.0469  -52.2370 C.3       17 UNK        -0.1800 
     97 C          -5.5589  -24.1419  -52.7653 C.2       17 UNK         0.5000 
     98 O          -6.2747  -24.3052  -51.7737 O.2       17 UNK        -0.5000 
     99 N          -6.0125  -23.7434  -53.9582 N.am      18 UNK        -0.5000 
    100 CA        -7.3917  -23.3477  -54.2288 C.3       18 UNK         0.1400 
    101 CB        -7.6703  -23.5308  -55.7292 C.3       18 UNK        -0.1800 
    102 C         -7.6282  -21.8826  -53.8270 C.2       18 UNK         0.5000 
    103 O         -6.6954  -21.0722  -53.8616 O.2       18 UNK        -0.5000 
    104 N         -8.8892  -21.5461  -53.5282 N.am      19 UNK        -0.5000 
    105 CA        -9.3434  -20.1830  -53.2283 C.3       19 UNK         0.1400 
    106 CB       -10.8087  -20.2290  -52.7696 C.3       19 UNK        -0.1800 
    107 C         -9.1797  -19.2139  -54.4166 C.2       19 UNK         0.5000 
    108 O         -8.9325  -18.0263  -54.2081 O.2       19 UNK        -0.5000 
    109 N         -9.2952  -19.7494  -55.6398 N.am      20 UNK        -0.5000 
    110 CA        -9.0723  -19.0272  -56.8919 C.3       20 UNK         0.1400 
    111 CB        -9.7263  -19.8125  -58.0393 C.3       20 UNK        -0.1800 
    112 C         -7.5796  -18.7849  -57.1908 C.2       20 UNK         0.5000 
    113 O         -7.2597  -17.8373  -57.9095 O.2       20 UNK        -0.5000 
    114 N         -6.6980  -19.6408  -56.6530 N.am      21 UNK        -0.5000 
    115 CA        -5.2481  -19.5303  -56.8038 C.3       21 UNK         0.1400 
    116 CB        -4.5946  -20.9123  -56.6313 C.3       21 UNK        -0.1800 
    117 C         -4.6715  -18.5106  -55.8101 C.2       21 UNK         0.5000 
    118 O         -3.9892  -17.5739  -56.2274 O.2       21 UNK        -0.5000 
    119 N         -4.9802  -18.7002  -54.5226 N.am      22 UNK        -0.5000 
    120 CA        -4.5427  -17.8355  -53.4146 C.3       22 UNK         0.1400 
    121 C         -5.3185  -18.0585  -52.0858 C.2       22 UNK         0.5000 
    122 N         -6.0936  -19.1226  -51.9152 N.am      22 UNK        -0.7600 
    123 O         -5.2218  -17.2338  -51.1815 O.2       22 UNK        -0.5000 
    124 C124       -3.0004  -17.8376  -53.1878 C.3       23 UNK        -0.0398 
    125 S125       -2.2845  -19.5053  -52.9752 S.3       23 UNK        -0.2404 
    126 C126       -2.2170  -19.6502  -51.1642 C.3       23 UNK        -0.0205 
    127 H127        5.0976  -15.8921  -46.2295 H         1 UNK         0.0600 
    128 H128        3.9629  -16.9184  -45.3465 H         1 UNK         0.0600 
    129 H129        4.6581  -15.4921  -44.5658 H         1 UNK         0.0600 
    130 H130        4.0427  -14.6325  -47.7484 H         1 UNK         0.3000 
    131 H131        1.1930  -14.0282  -47.5244 H         1 UNK         0.0600 
    132 H132        1.4208  -13.1371  -49.8084 H         1 UNK         0.0800 
    133 H133        3.1582  -13.2156  -49.7241 H         1 UNK         0.0800 
    134 H134        0.0178  -15.6352  -49.1488 H         1 UNK         0.0800 
    135 H135        1.2604  -16.3056  -48.1112 H         1 UNK         0.0800 
    136 H136       -1.3478  -17.2070  -50.2969 H         1 UNK         0.1150 
    137 H137       -0.0900  -21.2755  -50.7540 H         1 UNK         0.1150 
    138 H138        2.5957  -18.3775  -49.0891 H         1 UNK         0.1150 
    139 H139        1.9502  -22.0312  -49.8807 H         1 UNK         0.0800 
    140 H140        3.1828  -20.9401  -50.4566 H         1 UNK         0.0800 
    141 H141        1.0443  -20.1424  -47.2965 H         1 UNK         0.0800 
    142 H142        2.2175  -20.3202  -46.0427 H         1 UNK         0.0800 
    143 H143        1.9032  -22.8966  -46.2743 H         1 UNK         0.0600 
    144 H144        0.4745  -21.0187  -44.7448 H         1 UNK         0.3000 
    145 H145       -1.4916  -23.2745  -42.8035 H         1 UNK         0.0600 
    146 H146       -0.3313  -21.9831  -41.0270 H         1 UNK         0.0600 
    147 H147        0.7594  -23.1596  -41.7429 H         1 UNK         0.0600 
    148 H148        0.9017  -21.4607  -42.1736 H         1 UNK         0.0600 
    149 H149       -1.2139  -20.4048  -42.9349 H         1 UNK         0.3000 
    150 H150       -3.9380  -19.8508  -45.1794 H         1 UNK         0.0600 
    151 H151       -4.9284  -20.1494  -42.9017 H         1 UNK         0.0600 
    152 H152       -4.6600  -18.4522  -43.2678 H         1 UNK         0.0600 
    153 H153       -3.5606  -19.3045  -42.1851 H         1 UNK         0.0600 
    154 H154       -2.1382  -18.0931  -43.7995 H         1 UNK         0.3000 
    155 H155        0.3479  -17.9166  -46.3524 H         1 UNK         0.0600 
    156 H156       -1.8872  -15.9525  -45.6058 H         1 UNK         0.0600 
    157 H157       -0.3407  -15.5124  -46.3197 H         1 UNK         0.0600 
    158 H158       -1.4874  -16.4825  -47.2344 H         1 UNK         0.0600 
    159 H159        0.1013  -16.3585  -44.0518 H         1 UNK         0.3000 
    160 H160        1.1019  -18.5505  -41.5228 H         1 UNK         0.0600 
    161 H161        3.0865  -16.7172  -42.9610 H         1 UNK         0.0600 
    162 H162        3.3486  -18.4162  -42.5881 H         1 UNK         0.0600 
    163 H163        3.2060  -17.2451  -41.2843 H         1 UNK         0.0600 
    164 H164        1.2097  -15.6960  -41.7112 H         1 UNK         0.3000 
    165 H165       -2.2186  -14.9987  -41.3579 H         1 UNK         0.0600 
    166 H166       -1.7188  -14.0521  -39.1158 H         1 UNK         0.0600 
    167 H167       -1.8618  -15.7996  -39.0163 H         1 UNK         0.0600 
    168 H168       -0.2696  -15.0509  -38.9891 H         1 UNK         0.0600 
    169 H169        0.1240  -13.4399  -40.8116 H         1 UNK         0.3000 
    170 H170        1.2513  -12.8523  -44.0257 H         1 UNK         0.0600 
    171 H171       -0.7504  -11.3843  -44.2708 H         1 UNK         0.0600 
    172 H172       -0.5492  -10.8215  -42.6147 H         1 UNK         0.0600 
    173 H173        0.6770  -10.4616  -43.8316 H         1 UNK         0.0600 
    174 H174        1.8164  -11.2733  -41.8250 H         1 UNK         0.3000 
    175 H175        3.2121  -12.0464  -39.8418 H         1 UNK         0.0600 
    176 H176        5.2357  -14.0515  -40.9762 H         1 UNK         0.0600 
    177 H177        5.4339  -13.1105  -39.4979 H         1 UNK         0.0600 
    178 H178        4.1726  -14.3285  -39.6011 H         1 UNK         0.0600 
    179 H179        5.2706  -11.7985  -41.9430 H         1 UNK         0.3000 
    180 H180        4.7436   -8.3307  -42.3314 H         1 UNK         0.0600 
    181 H181        6.6462  -10.6701  -42.9243 H         1 UNK         0.0600 
    182 H182        6.7945   -9.5388  -41.5877 H         1 UNK         0.0600 
    183 H183        6.9361   -8.9660  -43.2403 H         1 UNK         0.0600 
    184 H184        3.8660   -8.6670  -44.3237 H         1 UNK         0.3000 
    185 H185        2.5349   -9.9940  -45.8417 H         1 UNK         0.0600 
    186 H186        4.4493   -8.6155  -46.7076 H         1 UNK         0.0600 
    187 H187        5.2426  -10.0664  -47.3098 H         1 UNK         0.0600 
    188 H188        3.7200   -9.5291  -48.0164 H         1 UNK         0.0600 
    189 H189        3.9426  -12.4959  -46.3204 H         1 UNK         0.3000 
    190 H190       -1.2452  -21.2747  -46.9901 H         1 UNK         0.3000 
    191 H191       -1.8043  -22.5461  -49.4256 H         1 UNK         0.0600 
    192 H192       -3.7501  -21.5313  -47.2803 H         1 UNK         0.0600 
    193 H193       -4.1536  -21.8399  -48.9639 H         1 UNK         0.0600 
    194 H194       -3.0329  -20.5514  -48.5504 H         1 UNK         0.0600 
    195 H195       -2.6083  -23.5869  -46.0870 H         1 UNK         0.3000 
    196 H196       -4.0501  -25.9331  -46.7984 H         1 UNK         0.0600 
    197 H197       -3.6906  -26.5547  -44.4076 H         1 UNK         0.0600 
    198 H198       -4.2094  -24.8829  -44.5629 H         1 UNK         0.0600 
    199 H199       -2.5197  -25.2538  -44.2313 H         1 UNK         0.0600 
    200 H200       -0.5752  -25.4337  -46.0163 H         1 UNK         0.3000 
    201 H201        0.2257  -28.1506  -46.2613 H         1 UNK         0.0600 
    202 H202        1.5730  -26.4495  -45.0742 H         1 UNK         0.0600 
    203 H203        1.8381  -25.5625  -46.5733 H         1 UNK         0.0600 
    204 H204        2.5251  -27.1693  -46.3639 H         1 UNK         0.0600 
    205 H205        0.1755  -25.4743  -48.6515 H         1 UNK         0.3000 
    206 H206        1.2615  -27.0047  -50.8305 H         1 UNK         0.0600 
    207 H207        1.3951  -24.5241  -50.7020 H         1 UNK         0.0600 
    208 H208        0.5487  -25.0105  -52.1628 H         1 UNK         0.0600 
    209 H209       -0.3616  -24.4017  -50.7853 H         1 UNK         0.0600 
    210 H210       -1.9107  -26.7817  -49.4734 H         1 UNK         0.3000 
    211 H211       -3.9469  -27.4836  -49.9319 H         1 UNK         0.0600 
    212 H212       -2.7567  -29.3480  -52.0568 H         1 UNK         0.0600 
    213 H213       -4.3579  -29.4623  -51.3423 H         1 UNK         0.0600 
    214 H214       -2.9370  -29.7359  -50.3463 H         1 UNK         0.0600 
    215 H215       -3.2968  -25.1019  -50.8261 H         1 UNK         0.3000 
    216 H216       -3.6568  -24.6362  -53.6493 H         1 UNK         0.0600 
    217 H217       -3.5762  -22.2417  -52.9380 H         1 UNK         0.0600 
    218 H218       -2.2691  -23.1577  -52.2009 H         1 UNK         0.0600 
    219 H219       -3.6937  -22.7274  -51.2521 H         1 UNK         0.0600 
    220 H220       -5.3523  -23.5906  -54.7058 H         1 UNK         0.3000 
    221 H221       -8.0722  -23.9878  -53.6632 H         1 UNK         0.0600 
    222 H222       -7.0254  -22.9002  -56.3424 H         1 UNK         0.0600 
    223 H223       -7.5123  -24.5654  -56.0343 H         1 UNK         0.0600 
    224 H224       -8.7032  -23.2784  -55.9722 H         1 UNK         0.0600 
    225 H225       -9.6000  -22.2639  -53.5258 H         1 UNK         0.3000 
    226 H226       -8.7430  -19.7992  -52.4021 H         1 UNK         0.0600 
    227 H227      -10.9246  -20.8496  -51.8809 H         1 UNK         0.0600 
    228 H228      -11.1700  -19.2312  -52.5165 H         1 UNK         0.0600 
    229 H229      -11.4625  -20.6276  -53.5463 H         1 UNK         0.0600 
    230 H230       -9.5229  -20.7294  -55.7148 H         1 UNK         0.3000 
    231 H231       -9.5598  -18.0522  -56.8239 H         1 UNK         0.0600 
    232 H232       -9.6046  -19.2902  -58.9892 H         1 UNK         0.0600 
    233 H233      -10.7966  -19.9361  -57.8733 H         1 UNK         0.0600 
    234 H234       -9.2861  -20.8042  -58.1514 H         1 UNK         0.0600 
    235 H235       -7.0352  -20.3522  -56.0216 H         1 UNK         0.3000 
    236 H236       -5.0210  -19.1829  -57.8142 H         1 UNK         0.0600 
    237 H237       -4.9763  -21.6221  -57.3651 H         1 UNK         0.0600 
    238 H238       -3.5150  -20.8488  -56.7726 H         1 UNK         0.0600 
    239 H239       -4.7663  -21.3296  -55.6396 H         1 UNK         0.0600 
    240 H240       -5.5567  -19.4942  -54.2716 H         1 UNK         0.3000 
    241 H241       -4.8160  -16.8206  -53.7092 H         1 UNK         0.0600 
    242 H242       -6.2030  -19.8433  -52.6215 H         1 UNK         0.3800 
    243 H243       -6.5719  -19.2226  -51.0351 H         1 UNK         0.3800 
    244 H244       -2.5049  -17.3821  -54.0451 H         1 UNK         0.0800 
    245 H245       -2.7271  -17.2058  -52.3415 H         1 UNK         0.0800 
    246 H246       -2.9958  -19.0492  -50.6946 H         1 UNK         0.0800 
    247 H247       -2.4427  -20.6824  -50.9035 H         1 UNK         0.0800 
@<TRIPOS>BOND
     1    1    2 1    
     2    1  127 1    
     3    1  128 1    
     4    1  129 1    
     5    2    3 2    
     6    2    4 am   BACKBONE|DICT|INTERRES
     7    4    5 1    
     8    4  130 1    
     9    5    6 1    
    10    5   65 1    
    11    5  131 1    
    12    6    7 1    
    13    6  132 1    
    14    6  133 1    
    15    7    8 1    
    16    8    9 1    
    17    8  134 1    
    18    8  135 1    
    19    9   10 ar   
    20    9   14 ar   
    21   10   11 ar   
    22   10  136 1    
    23   11   12 ar   
    24   11  126 1    
    25   12   13 ar   
    26   12  137 1    
    27   13   14 ar   
    28   13   15 1    
    29   14  138 1    
    30   15   16 1    
    31   15  139 1    
    32   15  140 1    
    33   16   17 1    
    34   17   18 1    
    35   17  141 1    
    36   17  142 1    
    37   18   19 1    
    38   18   67 1    
    39   18  143 1    
    40   19   20 am   BACKBONE|DICT|INTERRES
    41   19  144 1    
    42   20   21 2    
    43   20   22 1    
    44   22   23 1    
    45   22   24 1    
    46   22  145 1    
    47   23  146 1    
    48   23  147 1    
    49   23  148 1    
    50   24   25 am   BACKBONE|DICT|INTERRES
    51   24  149 1    
    52   25   26 2    
    53   25   27 1    
    54   27   28 1    
    55   27   29 1    
    56   27  150 1    
    57   28  151 1    
    58   28  152 1    
    59   28  153 1    
    60   29   30 am   BACKBONE|DICT|INTERRES
    61   29  154 1    
    62   30   31 2    
    63   30   32 1    
    64   32   33 1    
    65   32   34 1    
    66   32  155 1    
    67   33  156 1    
    68   33  157 1    
    69   33  158 1    
    70   34   35 am   BACKBONE|DICT|INTERRES
    71   34  159 1    
    72   35   36 2    
    73   35   37 1    
    74   37   38 1    
    75   37   39 1    
    76   37  160 1    
    77   38  161 1    
    78   38  162 1    
    79   38  163 1    
    80   39   40 am   BACKBONE|DICT|INTERRES
    81   39  164 1    
    82   40   41 2    
    83   40   42 1    
    84   42   43 1    
    85   42   44 1    
    86   42  165 1    
    87   43  166 1    
    88   43  167 1    
    89   43  168 1    
    90   44   45 am   BACKBONE|DICT|INTERRES
    91   44  169 1    
    92   45   46 2    
    93   45   47 1    
    94   47   48 1    
    95   47   49 1    
    96   47  170 1    
    97   48  171 1    
    98   48  172 1    
    99   48  173 1    
   100   49   50 am   BACKBONE|DICT|INTERRES
   101   49  174 1    
   102   50   51 2    
   103   50   52 1    
   104   52   53 1    
   105   52   54 1    
   106   52  175 1    
   107   53  176 1    
   108   53  177 1    
   109   53  178 1    
   110   54   55 am   BACKBONE|DICT|INTERRES
   111   54  179 1    
   112   55   56 2    
   113   55   57 1    
   114   57   58 1    
   115   57   59 1    
   116   57  180 1    
   117   58  181 1    
   118   58  182 1    
   119   58  183 1    
   120   59   60 am   BACKBONE|DICT|INTERRES
   121   59  184 1    
   122   60   61 2    
   123   60   62 1    
   124   62   63 1    
   125   62   64 1    
   126   62  185 1    
   127   63  186 1    
   128   63  187 1    
   129   63  188 1    
   130   64   65 am   BACKBONE|DICT|INTERRES
   131   64  189 1    
   132   65   66 2    
   133   67   68 2    
   134   67   69 am   BACKBONE|DICT|INTERRES
   135   69   70 1    
   136   69  190 1    
   137   70   71 1    
   138   70   72 1    
   139   70  191 1    
   140   71  192 1    
   141   71  193 1    
   142   71  194 1    
   143   72   73 2    
   144   72   74 am   BACKBONE|DICT|INTERRES
   145   74   75 1    
   146   74  195 1    
   147   75   76 1    
   148   75   77 1    
   149   75  196 1    
   150   76  197 1    
   151   76  198 1    
   152   76  199 1    
   153   77   78 2    
   154   77   79 am   BACKBONE|DICT|INTERRES
   155   79   80 1    
   156   79  200 1    
   157   80   81 1    
   158   80   82 1    
   159   80  201 1    
   160   81  202 1    
   161   81  203 1    
   162   81  204 1    
   163   82   83 2    
   164   82   84 am   BACKBONE|DICT|INTERRES
   165   84   85 1    
   166   84  205 1    
   167   85   86 1    
   168   85   87 1    
   169   85  206 1    
   170   86  207 1    
   171   86  208 1    
   172   86  209 1    
   173   87   88 2    
   174   87   89 am   BACKBONE|DICT|INTERRES
   175   89   90 1    
   176   89  210 1    
   177   90   91 1    
   178   90   92 1    
   179   90  211 1    
   180   91  212 1    
   181   91  213 1    
   182   91  214 1    
   183   92   93 2    
   184   92   94 am   BACKBONE|DICT|INTERRES
   185   94   95 1    
   186   94  215 1    
   187   95   96 1    
   188   95   97 1    
   189   95  216 1    
   190   96  217 1    
   191   96  218 1    
   192   96  219 1    
   193   97   98 2    
   194   97   99 am   BACKBONE|DICT|INTERRES
   195   99  100 1    
   196   99  220 1    
   197  100  101 1    
   198  100  102 1    
   199  100  221 1    
   200  101  222 1    
   201  101  223 1    
   202  101  224 1    
   203  102  103 2    
   204  102  104 am   BACKBONE|DICT|INTERRES
   205  104  105 1    
   206  104  225 1    
   207  105  106 1    
   208  105  107 1    
   209  105  226 1    
   210  106  227 1    
   211  106  228 1    
   212  106  229 1    
   213  107  108 2    
   214  107  109 am   BACKBONE|DICT|INTERRES
   215  109  110 1    
   216  109  230 1    
   217  110  111 1    
   218  110  112 1    
   219  110  231 1    
   220  111  232 1    
   221  111  233 1    
   222  111  234 1    
   223  112  113 2    
   224  112  114 am   BACKBONE|DICT|INTERRES
   225  114  115 1    
   226  114  235 1    
   227  115  116 1    
   228  115  117 1    
   229  115  236 1    
   230  116  237 1    
   231  116  238 1    
   232  116  239 1    
   233  117  118 2    
   234  117  119 am   BACKBONE|DICT|INTERRES
   235  119  120 1    
   236  119  240 1    
   237  120  121 1    
   238  120  124 1    
   239  120  241 1    
   240  121  122 am   BACKBONE|DICT|INTERRES
   241  121  123 2    
   242  122  242 1    
   243  122  243 1    
   244  124  125 1    
   245  124  244 1    
   246  124  245 1    
   247  125  126 1    
   248  126  246 1    
   249  126  247 1    
@<TRIPOS>SUBSTRUCTURE
     1 UNK         1 GROUP             0       ****    0 ROOT    
