@<TRIPOS>MOLECULE
3R540
247   249    1
SMALL
USER_CHARGES


@<TRIPOS>ATOM
      1 CA         -0.3535  -11.3051  -48.6243 C.3       0 UNK        -0.1800 
      2 C           0.9766  -11.7272  -48.0188 C.2       0 UNK         0.5000 
      3 O           1.0208  -12.1058  -46.8488 O.2       0 UNK        -0.5000 
      4 N           2.0566  -11.6731  -48.8100 N.am      1 UNK        -0.5000 
      5 CA          3.4326  -12.0315  -48.4397 C.3       1 UNK         0.1400 
      6 C6          3.6200  -13.5433  -48.1211 C.3       23 UNK        -0.0398 
      7 S7          3.0610  -14.6599  -49.4537 S.3       23 UNK        -0.2404 
      8 C8          1.6010  -15.3896  -48.6505 C.3       23 UNK        -0.0205 
      9 C9          1.0526  -16.5827  -49.4124 C.ar      23 UNK        -0.0193 
     10 C10        -0.0787  -16.4533  -50.2231 C.ar      23 UNK        -0.1150 
     11 C11        -0.6151  -17.5707  -50.8700 C.ar      23 UNK        -0.0193 
     12 C12        -0.0267  -18.8240  -50.6812 C.ar      23 UNK        -0.1150 
     13 C13         1.1010  -18.9683  -49.8685 C.ar      23 UNK        -0.0193 
     14 C14         1.6519  -17.8351  -49.2602 C.ar      23 UNK        -0.1150 
     15 C15         1.6993  -20.3571  -49.6619 C.3       23 UNK        -0.0205 
     16 S16         2.2725  -20.7132  -47.9613 S.3       23 UNK        -0.2404 
     17 C17         0.9176  -20.1087  -46.8952 C.3       23 UNK        -0.0398 
     18 CA         -0.2057  -21.1422  -46.6522 C.3       11 UNK         0.1400 
     19 N          -0.8325  -20.9369  -45.3459 N.am      11 UNK        -0.5000 
     20 C          -1.7439  -21.7418  -44.7863 C.2       10 UNK         0.5000 
     21 O          -2.1405  -22.7884  -45.2960 O.2       10 UNK        -0.5000 
     22 CA         -2.3476  -21.2645  -43.4555 C.3       10 UNK         0.1400 
     23 CB         -1.4301  -21.6224  -42.2768 C.3       10 UNK        -0.1800 
     24 N          -2.5991  -19.8230  -43.4639 N.am      10 UNK        -0.5000 
     25 C          -3.5631  -19.2312  -44.1828 C.2       9 UNK         0.5000 
     26 O          -4.3646  -19.8447  -44.8874 O.2       9 UNK        -0.5000 
     27 CA         -3.6115  -17.6928  -44.1361 C.3       9 UNK         0.1400 
     28 CB         -4.3119  -17.2078  -42.8580 C.3       9 UNK        -0.1800 
     29 N          -2.2848  -17.0795  -44.2277 N.am      9 UNK        -0.5000 
     30 C          -1.4958  -17.1533  -45.3083 C.2       8 UNK         0.5000 
     31 O          -1.8026  -17.7469  -46.3394 O.2       8 UNK        -0.5000 
     32 CA         -0.1127  -16.4901  -45.2138 C.3       8 UNK         0.1400 
     33 CB         -0.2109  -14.9980  -45.5588 C.3       8 UNK        -0.1800 
     34 N           0.5544  -16.6420  -43.9196 N.am      8 UNK        -0.5000 
     35 C           0.8155  -17.8037  -43.2999 C.2       7 UNK         0.5000 
     36 O           0.3756  -18.8934  -43.6715 O.2       7 UNK        -0.5000 
     37 CA          1.7581  -17.7158  -42.0813 C.3       7 UNK         0.1400 
     38 CB          2.2473  -19.0931  -41.5890 C.3       7 UNK        -0.1800 
     39 N           2.8848  -16.8133  -42.3427 N.am      7 UNK        -0.5000 
     40 C           3.8051  -16.9158  -43.3157 C.2       6 UNK         0.5000 
     41 O           3.9318  -17.8999  -44.0445 O.2       6 UNK        -0.5000 
     42 CA          4.7101  -15.6912  -43.5526 C.3       6 UNK         0.1400 
     43 CB          4.3338  -15.0116  -44.8792 C.3       6 UNK        -0.1800 
     44 N           4.6048  -14.7030  -42.4773 N.am      6 UNK        -0.5000 
     45 C           5.3901  -14.6712  -41.3920 C.2       5 UNK         0.5000 
     46 O           6.3511  -15.4215  -41.2202 O.2       5 UNK        -0.5000 
     47 CA          5.0265  -13.6461  -40.2999 C.3       5 UNK         0.1400 
     48 CB          5.8629  -12.3672  -40.4519 C.3       5 UNK        -0.1800 
     49 N           3.6007  -13.3044  -40.2949 N.am      5 UNK        -0.5000 
     50 C           2.6373  -14.1289  -39.8559 C.2       4 UNK         0.5000 
     51 O           2.8603  -15.2487  -39.3966 O.2       4 UNK        -0.5000 
     52 CA          1.1769  -13.6551  -39.9838 C.3       4 UNK         0.1400 
     53 CB          0.7093  -12.9980  -38.6768 C.3       4 UNK        -0.1800 
     54 N           0.9445  -12.7297  -41.0931 N.am      4 UNK        -0.5000 
     55 C           1.1152  -13.0131  -42.3906 C.2       3 UNK         0.5000 
     56 O           1.5131  -14.1064  -42.8009 O.2       3 UNK        -0.5000 
     57 CA          0.8172  -11.8893  -43.4044 C.3       3 UNK         0.1400 
     58 CB          0.2235  -10.6061  -42.7808 C.3       3 UNK        -0.1800 
     59 N           1.9917  -11.5618  -44.2146 N.am      3 UNK        -0.5000 
     60 C           3.1982  -11.1661  -43.7761 C.2       2 UNK         0.5000 
     61 O           3.4785  -11.0465  -42.5822 O.2       2 UNK        -0.5000 
     62 CA          4.2706  -10.8709  -44.8457 C.3       2 UNK         0.1400 
     63 CB          5.6925  -11.2074  -44.3604 C.3       2 UNK        -0.1800 
     64 N           3.9881  -11.6122  -46.0746 N.am      2 UNK        -0.5000 
     65 C           3.9352  -11.0991  -47.3106 C.2       1 UNK         0.5000 
     66 O           4.2262   -9.9326  -47.5811 O.2       1 UNK        -0.5000 
     67 C          -1.2487  -21.1357  -47.7911 C.2       11 UNK         0.5000 
     68 O          -1.2455  -22.0405  -48.6251 O.2       11 UNK        -0.5000 
     69 N          -2.1572  -20.1491  -47.7756 N.am      12 UNK        -0.5000 
     70 CA         -3.2653  -20.0261  -48.7212 C.3       12 UNK         0.1400 
     71 CB         -3.9338  -18.6534  -48.5660 C.3       12 UNK        -0.1800 
     72 C          -4.3023  -21.1537  -48.5852 C.2       12 UNK         0.5000 
     73 O          -4.8565  -21.5757  -49.5980 O.2       12 UNK        -0.5000 
     74 N          -4.5343  -21.6465  -47.3609 N.am      13 UNK        -0.5000 
     75 CA         -5.3939  -22.8032  -47.0972 C.3       13 UNK         0.1400 
     76 CB         -5.7145  -22.8801  -45.5975 C.3       13 UNK        -0.1800 
     77 C          -4.7782  -24.1257  -47.5949 C.2       13 UNK         0.5000 
     78 O          -5.5074  -24.9961  -48.0682 O.2       13 UNK        -0.5000 
     79 N          -3.4491  -24.2492  -47.4959 N.am      14 UNK        -0.5000 
     80 CA         -2.6845  -25.4084  -47.9564 C.3       14 UNK         0.1400 
     81 CB         -1.3314  -25.4271  -47.2286 C.3       14 UNK        -0.1800 
     82 C          -2.4697  -25.4434  -49.4826 C.2       14 UNK         0.5000 
     83 O          -2.1394  -26.5082  -50.0075 O.2       14 UNK        -0.5000 
     84 N          -2.6296  -24.2926  -50.1555 N.am      15 UNK        -0.5000 
     85 CA         -2.3445  -24.0496  -51.5727 C.3       15 UNK         0.1400 
     86 CB         -2.8291  -22.6441  -51.9581 C.3       15 UNK        -0.1800 
     87 C          -2.9455  -25.1093  -52.5141 C.2       15 UNK         0.5000 
     88 O          -4.1714  -25.2301  -52.6021 O.2       15 UNK        -0.5000 
     89 N          -2.0560  -25.8857  -53.1517 N.am      16 UNK        -0.5000 
     90 CA         -2.3179  -26.9933  -54.0829 C.3       16 UNK         0.1400 
     91 CB         -2.9488  -26.4489  -55.3815 C.3       16 UNK        -0.1800 
     92 C          -3.1497  -28.1551  -53.4912 C.2       16 UNK         0.5000 
     93 O          -3.6590  -28.9782  -54.2528 O.2       16 UNK        -0.5000 
     94 N          -3.3164  -28.1763  -52.1581 N.am      17 UNK        -0.5000 
     95 CA         -4.2724  -28.9823  -51.3873 C.3       17 UNK         0.1400 
     96 CB         -3.9208  -30.4823  -51.4644 C.3       17 UNK        -0.1800 
     97 C          -5.7525  -28.6983  -51.7456 C.2       17 UNK         0.5000 
     98 O          -6.6263  -29.4947  -51.3984 O.2       17 UNK        -0.5000 
     99 N          -6.0083  -27.5747  -52.4292 N.am      18 UNK        -0.5000 
    100 CA        -7.3168  -27.1528  -52.9266 C.3       18 UNK         0.1400 
    101 CB        -7.1796  -26.8124  -54.4195 C.3       18 UNK        -0.1800 
    102 C         -7.8551  -25.9351  -52.1579 C.2       18 UNK         0.5000 
    103 O         -9.0733  -25.7655  -52.0947 O.2       18 UNK        -0.5000 
    104 N         -6.9388  -25.1346  -51.5921 N.am      19 UNK        -0.5000 
    105 CA        -7.1239  -23.8538  -50.9072 C.3       19 UNK         0.1400 
    106 CB        -8.1959  -23.9149  -49.8008 C.3       19 UNK        -0.1800 
    107 C         -7.3957  -22.7006  -51.8894 C.2       19 UNK         0.5000 
    108 O         -8.1483  -22.8547  -52.8527 O.2       19 UNK        -0.5000 
    109 N         -6.7602  -21.5545  -51.6131 N.am      20 UNK        -0.5000 
    110 CA        -6.8274  -20.2800  -52.3394 C.3       20 UNK         0.1400 
    111 CB        -8.2562  -19.7004  -52.3083 C.3       20 UNK        -0.1800 
    112 C         -6.2423  -20.3192  -53.7682 C.2       20 UNK         0.5000 
    113 O         -6.3960  -19.3502  -54.5143 O.2       20 UNK        -0.5000 
    114 N         -5.5403  -21.4043  -54.1216 N.am      21 UNK        -0.5000 
    115 CA        -4.8772  -21.6264  -55.4078 C.3       21 UNK         0.1400 
    116 CB        -4.7097  -23.1424  -55.6136 C.3       21 UNK        -0.1800 
    117 C         -3.5402  -20.8592  -55.5006 C.2       21 UNK         0.5000 
    118 O         -2.4879  -21.4621  -55.7180 O.2       21 UNK        -0.5000 
    119 N         -3.6066  -19.5390  -55.2968 N.am      22 UNK        -0.5000 
    120 CA        -2.4595  -18.6181  -55.2805 C.3       22 UNK         0.1400 
    121 C         -1.8981  -18.2481  -56.6874 C.2       22 UNK         0.5000 
    122 N         -2.5705  -18.5839  -57.7820 N.am      22 UNK        -0.7600 
    123 O         -0.8283  -17.6551  -56.7920 O.2       22 UNK        -0.5000 
    124 C124       -2.7733  -17.3567  -54.4262 C.3       23 UNK        -0.0398 
    125 S125       -1.3447  -16.8321  -53.4202 S.3       23 UNK        -0.2404 
    126 C126       -1.8299  -17.4320  -51.7722 C.3       23 UNK        -0.0205 
    127 H127       -0.2473  -11.0014  -49.6659 H         1 UNK         0.0600 
    128 H128       -0.7703  -10.4677  -48.0648 H         1 UNK         0.0600 
    129 H129       -1.0617  -12.1324  -48.5809 H         1 UNK         0.0600 
    130 H130        1.9486  -11.3340  -49.7553 H         1 UNK         0.3000 
    131 H131        4.0473  -11.8073  -49.3129 H         1 UNK         0.0600 
    132 H132        4.6748  -13.7574  -47.9398 H         1 UNK         0.0800 
    133 H133        3.0950  -13.8133  -47.2057 H         1 UNK         0.0800 
    134 H134        1.8660  -15.7129  -47.6432 H         1 UNK         0.0800 
    135 H135        0.8311  -14.6259  -48.5379 H         1 UNK         0.0800 
    136 H136       -0.5425  -15.4854  -50.3520 H         1 UNK         0.1150 
    137 H137       -0.4500  -19.6913  -51.1687 H         1 UNK         0.1150 
    138 H138        2.5278  -17.9316  -48.6342 H         1 UNK         0.1150 
    139 H139        0.9763  -21.1247  -49.9415 H         1 UNK         0.0800 
    140 H140        2.5428  -20.4741  -50.3431 H         1 UNK         0.0800 
    141 H141        0.5157  -19.1591  -47.2464 H         1 UNK         0.0800 
    142 H142        1.4003  -19.8690  -45.9468 H         1 UNK         0.0800 
    143 H143        0.2412  -22.1383  -46.6232 H         1 UNK         0.0600 
    144 H144       -0.5367  -20.1159  -44.8242 H         1 UNK         0.3000 
    145 H145       -3.2999  -21.7800  -43.3138 H         1 UNK         0.0600 
    146 H146       -1.8742  -21.3249  -41.3268 H         1 UNK         0.0600 
    147 H147       -1.2574  -22.6984  -42.2321 H         1 UNK         0.0600 
    148 H148       -0.4566  -21.1382  -42.3585 H         1 UNK         0.0600 
    149 H149       -1.9359  -19.2436  -42.9696 H         1 UNK         0.3000 
    150 H150       -4.1977  -17.3553  -44.9936 H         1 UNK         0.0600 
    151 H151       -5.3100  -17.6397  -42.7727 H         1 UNK         0.0600 
    152 H152       -4.4274  -16.1238  -42.8592 H         1 UNK         0.0600 
    153 H153       -3.7561  -17.4856  -41.9616 H         1 UNK         0.0600 
    154 H154       -1.9476  -16.5829  -43.4165 H         1 UNK         0.3000 
    155 H155        0.5260  -16.9693  -45.9579 H         1 UNK         0.0600 
    156 H156        0.7749  -14.5339  -45.5877 H         1 UNK         0.0600 
    157 H157       -0.8139  -14.4577  -44.8288 H         1 UNK         0.0600 
    158 H158       -0.6699  -14.8486  -46.5369 H         1 UNK         0.0600 
    159 H159        0.9524  -15.7934  -43.5258 H         1 UNK         0.3000 
    160 H160        1.1796  -17.2616  -41.2758 H         1 UNK         0.0600 
    161 H161        2.7757  -19.6413  -42.3695 H         1 UNK         0.0600 
    162 H162        1.4083  -19.7116  -41.2685 H         1 UNK         0.0600 
    163 H163        2.9189  -18.9903  -40.7368 H         1 UNK         0.0600 
    164 H164        2.8779  -15.9550  -41.8108 H         1 UNK         0.3000 
    165 H165        5.7378  -16.0514  -43.6333 H         1 UNK         0.0600 
    166 H166        3.3294  -14.5886  -44.8412 H         1 UNK         0.0600 
    167 H167        5.0346  -14.2143  -45.1220 H         1 UNK         0.0600 
    168 H168        4.3594  -15.7218  -45.7070 H         1 UNK         0.0600 
    169 H169        3.8177  -14.0694  -42.5232 H         1 UNK         0.3000 
    170 H170        5.2740  -14.0935  -39.3348 H         1 UNK         0.0600 
    171 H171        6.9288  -12.5897  -40.3878 H         1 UNK         0.0600 
    172 H172        5.6893  -11.8823  -41.4115 H         1 UNK         0.0600 
    173 H173        5.6330  -11.6483  -39.6655 H         1 UNK         0.0600 
    174 H174        3.3433  -12.4134  -40.7022 H         1 UNK         0.3000 
    175 H175        0.5624  -14.5406  -40.1594 H         1 UNK         0.0600 
    176 H176        1.2689  -12.0867  -38.4622 H         1 UNK         0.0600 
    177 H177       -0.3492  -12.7406  -38.7206 H         1 UNK         0.0600 
    178 H178        0.8430  -13.6726  -37.8300 H         1 UNK         0.0600 
    179 H179        0.6408  -11.7994  -40.8451 H         1 UNK         0.3000 
    180 H180        0.0740  -12.2923  -44.0928 H         1 UNK         0.0600 
    181 H181        0.9132  -10.1257  -42.0857 H         1 UNK         0.0600 
    182 H182       -0.7027  -10.8177  -42.2449 H         1 UNK         0.0600 
    183 H183       -0.0185   -9.8783  -43.5553 H         1 UNK         0.0600 
    184 H184        1.8396  -11.6547  -45.2163 H         1 UNK         0.3000 
    185 H185        4.2196   -9.7973  -45.0370 H         1 UNK         0.0600 
    186 H186        6.4282  -11.0386  -45.1467 H         1 UNK         0.0600 
    187 H187        5.9749  -10.5779  -43.5159 H         1 UNK         0.0600 
    188 H188        5.7766  -12.2452  -44.0382 H         1 UNK         0.0600 
    189 H189        3.6885  -12.5658  -45.9402 H         1 UNK         0.3000 
    190 H190       -2.0695  -19.4009  -47.0909 H         1 UNK         0.3000 
    191 H191       -2.8490  -20.0826  -49.7286 H         1 UNK         0.0600 
    192 H192       -3.2242  -17.8481  -48.7576 H         1 UNK         0.0600 
    193 H193       -4.7573  -18.5357  -49.2716 H         1 UNK         0.0600 
    194 H194       -4.3355  -18.5142  -47.5615 H         1 UNK         0.0600 
    195 H195       -4.0938  -21.2086  -46.5606 H         1 UNK         0.3000 
    196 H196       -6.3338  -22.6545  -47.6316 H         1 UNK         0.0600 
    197 H197       -6.3818  -23.7159  -45.3840 H         1 UNK         0.0600 
    198 H198       -6.2104  -21.9722  -45.2538 H         1 UNK         0.0600 
    199 H199       -4.8150  -23.0175  -44.9977 H         1 UNK         0.0600 
    200 H200       -2.9250  -23.5179  -47.0264 H         1 UNK         0.3000 
    201 H201       -3.2279  -26.3152  -47.6829 H         1 UNK         0.0600 
    202 H202       -1.4660  -25.4746  -46.1478 H         1 UNK         0.0600 
    203 H203       -0.7426  -24.5369  -47.4529 H         1 UNK         0.0600 
    204 H204       -0.7397  -26.2956  -47.5207 H         1 UNK         0.0600 
    205 H205       -2.8563  -23.4738  -49.6080 H         1 UNK         0.3000 
    206 H206       -1.2582  -24.0631  -51.6783 H         1 UNK         0.0600 
    207 H207       -2.3679  -21.8809  -51.3318 H         1 UNK         0.0600 
    208 H208       -2.5704  -22.4133  -52.9917 H         1 UNK         0.0600 
    209 H209       -3.9105  -22.5533  -51.8616 H         1 UNK         0.0600 
    210 H210       -1.0768  -25.7249  -52.9604 H         1 UNK         0.3000 
    211 H211       -1.3448  -27.4161  -54.3362 H         1 UNK         0.0600 
    212 H212       -3.9682  -26.0987  -55.2178 H         1 UNK         0.0600 
    213 H213       -2.9897  -27.2192  -56.1523 H         1 UNK         0.0600 
    214 H214       -2.3698  -25.6187  -55.7862 H         1 UNK         0.0600 
    215 H215       -2.8293  -27.4714  -51.6115 H         1 UNK         0.3000 
    216 H216       -4.1529  -28.6701  -50.3489 H         1 UNK         0.0600 
    217 H217       -2.8748  -30.6553  -51.2118 H         1 UNK         0.0600 
    218 H218       -4.0990  -30.8915  -52.4590 H         1 UNK         0.0600 
    219 H219       -4.5222  -31.0613  -50.7627 H         1 UNK         0.0600 
    220 H220       -5.2313  -26.9581  -52.6403 H         1 UNK         0.3000 
    221 H221       -8.0442  -27.9608  -52.8244 H         1 UNK         0.0600 
    222 H222       -6.4780  -25.9928  -54.5816 H         1 UNK         0.0600 
    223 H223       -6.8262  -27.6724  -54.9887 H         1 UNK         0.0600 
    224 H224       -8.1392  -26.5122  -54.8423 H         1 UNK         0.0600 
    225 H225       -5.9664  -25.3586  -51.7755 H         1 UNK         0.3000 
    226 H226       -6.1647  -23.6655  -50.4250 H         1 UNK         0.0600 
    227 H227       -8.0297  -24.7592  -49.1321 H         1 UNK         0.0600 
    228 H228       -8.1747  -23.0086  -49.1955 H         1 UNK         0.0600 
    229 H229       -9.2031  -24.0006  -50.2088 H         1 UNK         0.0600 
    230 H230       -6.1218  -21.5508  -50.8161 H         1 UNK         0.3000 
    231 H231       -6.1876  -19.5947  -51.7815 H         1 UNK         0.0600 
    232 H232       -8.2758  -18.6836  -52.7021 H         1 UNK         0.0600 
    233 H233       -8.6427  -19.6591  -51.2900 H         1 UNK         0.0600 
    234 H234       -8.9482  -20.2934  -52.9068 H         1 UNK         0.0600 
    235 H235       -5.4528  -22.1447  -53.4424 H         1 UNK         0.3000 
    236 H236       -5.5226  -21.2523  -56.2051 H         1 UNK         0.0600 
    237 H237       -4.0569  -23.5788  -54.8583 H         1 UNK         0.0600 
    238 H238       -5.6692  -23.6575  -55.5636 H         1 UNK         0.0600 
    239 H239       -4.2745  -23.3611  -56.5894 H         1 UNK         0.0600 
    240 H240       -4.5227  -19.1369  -55.1251 H         1 UNK         0.3000 
    241 H241       -1.6521  -19.1628  -54.7866 H         1 UNK         0.0600 
    242 H242       -3.4492  -19.0718  -57.7156 H         1 UNK         0.3800 
    243 H243       -2.1964  -18.3455  -58.6873 H         1 UNK         0.3800 
    244 H244       -3.0934  -16.5201  -55.0501 H         1 UNK         0.0800 
    245 H245       -3.6110  -17.5420  -53.7522 H         1 UNK         0.0800 
    246 H246       -2.3358  -18.3947  -51.8640 H         1 UNK         0.0800 
    247 H247       -2.5509  -16.7433  -51.3293 H         1 UNK         0.0800 
@<TRIPOS>BOND
     1    1    2 1    
     2    1  127 1    
     3    1  128 1    
     4    1  129 1    
     5    2    3 2    
     6    2    4 am   BACKBONE|DICT|INTERRES
     7    4    5 1    
     8    4  130 1    
     9    5    6 1    
    10    5   65 1    
    11    5  131 1    
    12    6    7 1    
    13    6  132 1    
    14    6  133 1    
    15    7    8 1    
    16    8    9 1    
    17    8  134 1    
    18    8  135 1    
    19    9   10 ar   
    20    9   14 ar   
    21   10   11 ar   
    22   10  136 1    
    23   11   12 ar   
    24   11  126 1    
    25   12   13 ar   
    26   12  137 1    
    27   13   14 ar   
    28   13   15 1    
    29   14  138 1    
    30   15   16 1    
    31   15  139 1    
    32   15  140 1    
    33   16   17 1    
    34   17   18 1    
    35   17  141 1    
    36   17  142 1    
    37   18   19 1    
    38   18   67 1    
    39   18  143 1    
    40   19   20 am   BACKBONE|DICT|INTERRES
    41   19  144 1    
    42   20   21 2    
    43   20   22 1    
    44   22   23 1    
    45   22   24 1    
    46   22  145 1    
    47   23  146 1    
    48   23  147 1    
    49   23  148 1    
    50   24   25 am   BACKBONE|DICT|INTERRES
    51   24  149 1    
    52   25   26 2    
    53   25   27 1    
    54   27   28 1    
    55   27   29 1    
    56   27  150 1    
    57   28  151 1    
    58   28  152 1    
    59   28  153 1    
    60   29   30 am   BACKBONE|DICT|INTERRES
    61   29  154 1    
    62   30   31 2    
    63   30   32 1    
    64   32   33 1    
    65   32   34 1    
    66   32  155 1    
    67   33  156 1    
    68   33  157 1    
    69   33  158 1    
    70   34   35 am   BACKBONE|DICT|INTERRES
    71   34  159 1    
    72   35   36 2    
    73   35   37 1    
    74   37   38 1    
    75   37   39 1    
    76   37  160 1    
    77   38  161 1    
    78   38  162 1    
    79   38  163 1    
    80   39   40 am   BACKBONE|DICT|INTERRES
    81   39  164 1    
    82   40   41 2    
    83   40   42 1    
    84   42   43 1    
    85   42   44 1    
    86   42  165 1    
    87   43  166 1    
    88   43  167 1    
    89   43  168 1    
    90   44   45 am   BACKBONE|DICT|INTERRES
    91   44  169 1    
    92   45   46 2    
    93   45   47 1    
    94   47   48 1    
    95   47   49 1    
    96   47  170 1    
    97   48  171 1    
    98   48  172 1    
    99   48  173 1    
   100   49   50 am   BACKBONE|DICT|INTERRES
   101   49  174 1    
   102   50   51 2    
   103   50   52 1    
   104   52   53 1    
   105   52   54 1    
   106   52  175 1    
   107   53  176 1    
   108   53  177 1    
   109   53  178 1    
   110   54   55 am   BACKBONE|DICT|INTERRES
   111   54  179 1    
   112   55   56 2    
   113   55   57 1    
   114   57   58 1    
   115   57   59 1    
   116   57  180 1    
   117   58  181 1    
   118   58  182 1    
   119   58  183 1    
   120   59   60 am   BACKBONE|DICT|INTERRES
   121   59  184 1    
   122   60   61 2    
   123   60   62 1    
   124   62   63 1    
   125   62   64 1    
   126   62  185 1    
   127   63  186 1    
   128   63  187 1    
   129   63  188 1    
   130   64   65 am   BACKBONE|DICT|INTERRES
   131   64  189 1    
   132   65   66 2    
   133   67   68 2    
   134   67   69 am   BACKBONE|DICT|INTERRES
   135   69   70 1    
   136   69  190 1    
   137   70   71 1    
   138   70   72 1    
   139   70  191 1    
   140   71  192 1    
   141   71  193 1    
   142   71  194 1    
   143   72   73 2    
   144   72   74 am   BACKBONE|DICT|INTERRES
   145   74   75 1    
   146   74  195 1    
   147   75   76 1    
   148   75   77 1    
   149   75  196 1    
   150   76  197 1    
   151   76  198 1    
   152   76  199 1    
   153   77   78 2    
   154   77   79 am   BACKBONE|DICT|INTERRES
   155   79   80 1    
   156   79  200 1    
   157   80   81 1    
   158   80   82 1    
   159   80  201 1    
   160   81  202 1    
   161   81  203 1    
   162   81  204 1    
   163   82   83 2    
   164   82   84 am   BACKBONE|DICT|INTERRES
   165   84   85 1    
   166   84  205 1    
   167   85   86 1    
   168   85   87 1    
   169   85  206 1    
   170   86  207 1    
   171   86  208 1    
   172   86  209 1    
   173   87   88 2    
   174   87   89 am   BACKBONE|DICT|INTERRES
   175   89   90 1    
   176   89  210 1    
   177   90   91 1    
   178   90   92 1    
   179   90  211 1    
   180   91  212 1    
   181   91  213 1    
   182   91  214 1    
   183   92   93 2    
   184   92   94 am   BACKBONE|DICT|INTERRES
   185   94   95 1    
   186   94  215 1    
   187   95   96 1    
   188   95   97 1    
   189   95  216 1    
   190   96  217 1    
   191   96  218 1    
   192   96  219 1    
   193   97   98 2    
   194   97   99 am   BACKBONE|DICT|INTERRES
   195   99  100 1    
   196   99  220 1    
   197  100  101 1    
   198  100  102 1    
   199  100  221 1    
   200  101  222 1    
   201  101  223 1    
   202  101  224 1    
   203  102  103 2    
   204  102  104 am   BACKBONE|DICT|INTERRES
   205  104  105 1    
   206  104  225 1    
   207  105  106 1    
   208  105  107 1    
   209  105  226 1    
   210  106  227 1    
   211  106  228 1    
   212  106  229 1    
   213  107  108 2    
   214  107  109 am   BACKBONE|DICT|INTERRES
   215  109  110 1    
   216  109  230 1    
   217  110  111 1    
   218  110  112 1    
   219  110  231 1    
   220  111  232 1    
   221  111  233 1    
   222  111  234 1    
   223  112  113 2    
   224  112  114 am   BACKBONE|DICT|INTERRES
   225  114  115 1    
   226  114  235 1    
   227  115  116 1    
   228  115  117 1    
   229  115  236 1    
   230  116  237 1    
   231  116  238 1    
   232  116  239 1    
   233  117  118 2    
   234  117  119 am   BACKBONE|DICT|INTERRES
   235  119  120 1    
   236  119  240 1    
   237  120  121 1    
   238  120  124 1    
   239  120  241 1    
   240  121  122 am   BACKBONE|DICT|INTERRES
   241  121  123 2    
   242  122  242 1    
   243  122  243 1    
   244  124  125 1    
   245  124  244 1    
   246  124  245 1    
   247  125  126 1    
   248  126  246 1    
   249  126  247 1    
@<TRIPOS>SUBSTRUCTURE
     1 UNK         1 GROUP             0       ****    0 ROOT    
