@<TRIPOS>MOLECULE
3R540
247   249    1
SMALL
USER_CHARGES


@<TRIPOS>ATOM
      1 CA          0.8534  -13.8228  -53.5666 C.3       0 UNK        -0.1800 
      2 C          -0.2832  -14.7230  -53.0886 C.2       0 UNK         0.5000 
      3 O          -1.2979  -14.8339  -53.7751 O.2       0 UNK        -0.5000 
      4 N          -0.1647  -15.3821  -51.9313 N.am      1 UNK        -0.5000 
      5 CA          0.9555  -15.3410  -50.9952 C.3       1 UNK         0.1400 
      6 C6          2.0354  -16.3972  -51.3434 C.3       23 UNK        -0.0398 
      7 S7          3.6358  -16.0512  -50.5414 S.3       23 UNK        -0.2404 
      8 C8          4.7241  -17.2504  -51.3819 C.3       23 UNK        -0.0205 
      9 C9          4.2887  -18.6876  -51.1332 C.ar      23 UNK        -0.0193 
     10 C10         3.7796  -19.4663  -52.1763 C.ar      23 UNK        -0.1150 
     11 C11         3.3301  -20.7688  -51.9358 C.ar      23 UNK        -0.0193 
     12 C12         3.3852  -21.2859  -50.6389 C.ar      23 UNK        -0.1150 
     13 C13         3.8887  -20.5172  -49.5857 C.ar      23 UNK        -0.0193 
     14 C14         4.3696  -19.2300  -49.8486 C.ar      23 UNK        -0.1150 
     15 C15         3.8874  -21.0868  -48.1708 C.3       23 UNK        -0.0205 
     16 S16         3.3585  -19.9023  -46.8841 S.3       23 UNK        -0.2404 
     17 C17         1.7876  -19.2419  -47.5457 C.3       23 UNK        -0.0398 
     18 CA          0.6078  -20.2413  -47.4942 C.3       11 UNK         0.1400 
     19 N           0.4132  -20.8532  -46.1761 N.am      11 UNK        -0.5000 
     20 C          -0.4137  -21.8799  -45.9320 C.2       10 UNK         0.5000 
     21 O          -1.0432  -22.4714  -46.8087 O.2       10 UNK        -0.5000 
     22 CA         -0.6156  -22.2724  -44.4570 C.3       10 UNK         0.1400 
     23 CB          0.4626  -23.2656  -44.0003 C.3       10 UNK        -0.1800 
     24 N          -0.6209  -21.1001  -43.5790 N.am      10 UNK        -0.5000 
     25 C          -1.6150  -20.1988  -43.5452 C.2       9 UNK         0.5000 
     26 O          -2.6578  -20.3183  -44.1881 O.2       9 UNK        -0.5000 
     27 CA         -1.3859  -18.9261  -42.7044 C.3       9 UNK         0.1400 
     28 CB         -1.8767  -19.1245  -41.2637 C.3       9 UNK        -0.1800 
     29 N           0.0158  -18.5066  -42.6921 N.am      9 UNK        -0.5000 
     30 C           0.6913  -18.0955  -43.7732 C.2       8 UNK         0.5000 
     31 O           0.1668  -17.9337  -44.8735 O.2       8 UNK        -0.5000 
     32 CA          2.2080  -17.8791  -43.6303 C.3       8 UNK         0.1400 
     33 CB          2.5452  -16.3889  -43.5545 C.3       8 UNK        -0.1800 
     34 N           2.7877  -18.5688  -42.4790 N.am      8 UNK        -0.5000 
     35 C           2.9772  -19.8928  -42.4045 C.2       7 UNK         0.5000 
     36 O           2.6578  -20.6769  -43.2970 O.2       7 UNK        -0.5000 
     37 CA          3.5916  -20.4256  -41.0972 C.3       7 UNK         0.1400 
     38 CB          5.1244  -20.3393  -41.1462 C.3       7 UNK        -0.1800 
     39 N           3.1020  -19.6985  -39.9243 N.am      7 UNK        -0.5000 
     40 C           1.8601  -19.8176  -39.4344 C.2       6 UNK         0.5000 
     41 O           1.0282  -20.6106  -39.8741 O.2       6 UNK        -0.5000 
     42 CA          1.4702  -18.8647  -38.2878 C.3       6 UNK         0.1400 
     43 CB          1.8291  -19.4819  -36.9277 C.3       6 UNK        -0.1800 
     44 N           2.0805  -17.5342  -38.3932 N.am      6 UNK        -0.5000 
     45 C           1.8507  -16.6684  -39.3895 C.2       5 UNK         0.5000 
     46 O           1.1396  -16.9250  -40.3623 O.2       5 UNK        -0.5000 
     47 CA          2.5871  -15.3169  -39.3087 C.3       5 UNK         0.1400 
     48 CB          3.9848  -15.4330  -39.9372 C.3       5 UNK        -0.1800 
     49 N           1.8596  -14.2338  -39.9743 N.am      5 UNK        -0.5000 
     50 C           0.6798  -13.7400  -39.5728 C.2       4 UNK         0.5000 
     51 O           0.0896  -14.1288  -38.5633 O.2       4 UNK        -0.5000 
     52 CA          0.0613  -12.5968  -40.4062 C.3       4 UNK         0.1400 
     53 CB          0.1587  -11.2658  -39.6427 C.3       4 UNK        -0.1800 
     54 N           0.6594  -12.4159  -41.7335 N.am      4 UNK        -0.5000 
     55 C           0.4296  -13.2100  -42.7859 C.2       3 UNK         0.5000 
     56 O          -0.2800  -14.2188  -42.7387 O.2       3 UNK        -0.5000 
     57 CA          1.0962  -12.8051  -44.1128 C.3       3 UNK         0.1400 
     58 CB          2.6357  -12.7803  -44.0037 C.3       3 UNK        -0.1800 
     59 N           0.6458  -13.7389  -45.1414 N.am      3 UNK        -0.5000 
     60 C           0.7595  -13.5966  -46.4642 C.2       2 UNK         0.5000 
     61 O           1.3643  -12.6722  -47.0146 O.2       2 UNK        -0.5000 
     62 CA          0.0281  -14.6438  -47.3162 C.3       2 UNK         0.1400 
     63 CB         -1.4809  -14.3250  -47.3609 C.3       2 UNK        -0.1800 
     64 N           0.5842  -14.6373  -48.6673 N.am      2 UNK        -0.5000 
     65 C           0.3494  -15.5645  -49.6010 C.2       1 UNK         0.5000 
     66 O          -0.3484  -16.5600  -49.4118 O.2       1 UNK        -0.5000 
     67 C          -0.6866  -19.5651  -47.9879 C.2       11 UNK         0.5000 
     68 O          -1.0453  -19.7331  -49.1504 O.2       11 UNK        -0.5000 
     69 N          -1.3810  -18.8610  -47.0803 N.am      12 UNK        -0.5000 
     70 CA         -2.6682  -18.2105  -47.3230 C.3       12 UNK         0.1400 
     71 CB         -3.0457  -17.3456  -46.1109 C.3       12 UNK        -0.1800 
     72 C          -3.7873  -19.2153  -47.6463 C.2       12 UNK         0.5000 
     73 O          -4.5732  -18.9697  -48.5596 O.2       12 UNK        -0.5000 
     74 N          -3.8154  -20.3527  -46.9356 N.am      13 UNK        -0.5000 
     75 CA         -4.7058  -21.4824  -47.2187 C.3       13 UNK         0.1400 
     76 CB         -4.5472  -22.5489  -46.1249 C.3       13 UNK        -0.1800 
     77 C          -4.4636  -22.0796  -48.6198 C.2       13 UNK         0.5000 
     78 O          -5.4228  -22.3739  -49.3364 O.2       13 UNK        -0.5000 
     79 N          -3.1824  -22.1821  -48.9966 N.am      14 UNK        -0.5000 
     80 CA         -2.7123  -22.6151  -50.3110 C.3       14 UNK         0.1400 
     81 CB         -1.2494  -23.0693  -50.1914 C.3       14 UNK        -0.1800 
     82 C          -2.8739  -21.5530  -51.4222 C.2       14 UNK         0.5000 
     83 O          -2.6072  -21.8558  -52.5846 O.2       14 UNK        -0.5000 
     84 N          -3.3144  -20.3304  -51.0965 N.am      15 UNK        -0.5000 
     85 CA         -3.5542  -19.2513  -52.0573 C.3       15 UNK         0.1400 
     86 CB         -3.2069  -17.8959  -51.4165 C.3       15 UNK        -0.1800 
     87 C          -4.9859  -19.3084  -52.6287 C.2       15 UNK         0.5000 
     88 O          -5.6392  -18.2722  -52.7519 O.2       15 UNK        -0.5000 
     89 N          -5.4540  -20.5252  -52.9490 N.am      16 UNK        -0.5000 
     90 CA         -6.7797  -20.8806  -53.4712 C.3       16 UNK         0.1400 
     91 CB         -7.0563  -20.1890  -54.8230 C.3       16 UNK        -0.1800 
     92 C          -7.9350  -20.6857  -52.4666 C.2       16 UNK         0.5000 
     93 O          -9.0967  -20.8227  -52.8542 O.2       16 UNK        -0.5000 
     94 N          -7.6178  -20.3858  -51.1993 N.am      17 UNK        -0.5000 
     95 CA         -8.5953  -20.1890  -50.1305 C.3       17 UNK         0.1400 
     96 CB         -7.9522  -19.3929  -48.9868 C.3       17 UNK        -0.1800 
     97 C          -9.1637  -21.5248  -49.6247 C.2       17 UNK         0.5000 
     98 O         -10.3764  -21.6334  -49.4372 O.2       17 UNK        -0.5000 
     99 N          -8.2818  -22.5140  -49.4346 N.am      18 UNK        -0.5000 
    100 CA        -8.6273  -23.8774  -49.0363 C.3       18 UNK         0.1400 
    101 CB        -7.9613  -24.1951  -47.6884 C.3       18 UNK        -0.1800 
    102 C         -8.1902  -24.8969  -50.0998 C.2       18 UNK         0.5000 
    103 O         -8.8960  -25.8850  -50.3067 O.2       18 UNK        -0.5000 
    104 N         -7.0493  -24.6533  -50.7570 N.am      19 UNK        -0.5000 
    105 CA        -6.4551  -25.5289  -51.7640 C.3       19 UNK         0.1400 
    106 CB        -5.7537  -26.7127  -51.0664 C.3       19 UNK        -0.1800 
    107 C         -5.4620  -24.7298  -52.6208 C.2       19 UNK         0.5000 
    108 O         -5.1862  -23.5710  -52.3069 O.2       19 UNK        -0.5000 
    109 N         -4.9300  -25.3831  -53.6641 N.am      20 UNK        -0.5000 
    110 CA        -3.8579  -24.9226  -54.5561 C.3       20 UNK         0.1400 
    111 CB        -2.4974  -25.0095  -53.8296 C.3       20 UNK        -0.1800 
    112 C         -4.1424  -23.5635  -55.2395 C.2       20 UNK         0.5000 
    113 O         -5.3051  -23.2661  -55.5234 O.2       20 UNK        -0.5000 
    114 N         -3.0905  -22.7927  -55.5464 N.am      21 UNK        -0.5000 
    115 CA        -3.1605  -21.5083  -56.2425 C.3       21 UNK         0.1400 
    116 CB        -3.5299  -21.7124  -57.7289 C.3       21 UNK        -0.1800 
    117 C         -1.8526  -20.7149  -56.0590 C.2       21 UNK         0.5000 
    118 O         -1.2952  -20.2113  -57.0357 O.2       21 UNK        -0.5000 
    119 N         -1.3730  -20.6176  -54.8128 N.am      22 UNK        -0.5000 
    120 CA        -0.1735  -19.8439  -54.4352 C.3       22 UNK         0.1400 
    121 C         -0.2933  -18.2963  -54.5686 C.2       22 UNK         0.5000 
    122 N         -1.4729  -17.7188  -54.7591 N.am      22 UNK        -0.7600 
    123 O          0.7174  -17.6040  -54.4934 O.2       22 UNK        -0.5000 
    124 C124        0.3201  -20.2054  -53.0118 C.3       23 UNK        -0.0398 
    125 S125        0.9757  -21.9034  -52.9087 S.3       23 UNK        -0.2404 
    126 C126        2.7682  -21.6123  -53.0729 C.3       23 UNK        -0.0205 
    127 H127        1.8127  -14.3377  -53.5257 H         1 UNK         0.0600 
    128 H128        0.9106  -12.9225  -52.9550 H         1 UNK         0.0600 
    129 H129        0.6881  -13.5171  -54.5999 H         1 UNK         0.0600 
    130 H130       -0.9296  -15.9613  -51.6112 H         1 UNK         0.3000 
    131 H131        1.4013  -14.3448  -51.0168 H         1 UNK         0.0600 
    132 H132        1.7030  -17.4038  -51.0812 H         1 UNK         0.0800 
    133 H133        2.2081  -16.4164  -52.4200 H         1 UNK         0.0800 
    134 H134        5.7444  -17.1182  -51.0193 H         1 UNK         0.0800 
    135 H135        4.7464  -17.0286  -52.4500 H         1 UNK         0.0800 
    136 H136        3.7162  -19.0522  -53.1730 H         1 UNK         0.1150 
    137 H137        3.0171  -22.2850  -50.4511 H         1 UNK         0.1150 
    138 H138        4.7629  -18.6263  -49.0428 H         1 UNK         0.1150 
    139 H139        3.2378  -21.9615  -48.1128 H         1 UNK         0.0800 
    140 H140        4.8933  -21.4348  -47.9338 H         1 UNK         0.0800 
    141 H141        1.9397  -18.8971  -48.5693 H         1 UNK         0.0800 
    142 H142        1.5551  -18.3408  -46.9785 H         1 UNK         0.0800 
    143 H143        0.8338  -21.0497  -48.1928 H         1 UNK         0.0600 
    144 H144        0.9086  -20.4303  -45.4047 H         1 UNK         0.3000 
    145 H145       -1.5857  -22.7669  -44.3717 H         1 UNK         0.0600 
    146 H146        0.3292  -23.5419  -42.9543 H         1 UNK         0.0600 
    147 H147        0.4160  -24.1830  -44.5882 H         1 UNK         0.0600 
    148 H148        1.4666  -22.8577  -44.1156 H         1 UNK         0.0600 
    149 H149        0.2185  -20.9255  -43.0432 H         1 UNK         0.3000 
    150 H150       -1.9691  -18.1193  -43.1525 H         1 UNK         0.0600 
    151 H151       -2.9451  -19.3425  -41.2448 H         1 UNK         0.0600 
    152 H152       -1.7152  -18.2284  -40.6638 H         1 UNK         0.0600 
    153 H153       -1.3663  -19.9536  -40.7740 H         1 UNK         0.0600 
    154 H154        0.4976  -18.5242  -41.8023 H         1 UNK         0.3000 
    155 H155        2.6782  -18.2768  -44.5304 H         1 UNK         0.0600 
    156 H156        2.0542  -15.9064  -42.7093 H         1 UNK         0.0600 
    157 H157        2.2204  -15.8825  -44.4627 H         1 UNK         0.0600 
    158 H158        3.6195  -16.2291  -43.4634 H         1 UNK         0.0600 
    159 H159        3.0136  -17.9994  -41.6780 H         1 UNK         0.3000 
    160 H160        3.3119  -21.4769  -40.9992 H         1 UNK         0.0600 
    161 H161        5.4697  -19.3078  -41.2277 H         1 UNK         0.0600 
    162 H162        5.5179  -20.8860  -42.0043 H         1 UNK         0.0600 
    163 H163        5.5722  -20.7738  -40.2523 H         1 UNK         0.0600 
    164 H164        3.7309  -19.0359  -39.4953 H         1 UNK         0.3000 
    165 H165        0.3864  -18.7354  -38.3273 H         1 UNK         0.0600 
    166 H166        1.4730  -18.8604  -36.1059 H         1 UNK         0.0600 
    167 H167        1.3702  -20.4649  -36.8117 H         1 UNK         0.0600 
    168 H168        2.9065  -19.6070  -36.8130 H         1 UNK         0.0600 
    169 H169        2.6885  -17.2592  -37.6350 H         1 UNK         0.3000 
    170 H170        2.6995  -15.0481  -38.2563 H         1 UNK         0.0600 
    171 H171        4.5727  -16.2121  -39.4502 H         1 UNK         0.0600 
    172 H172        3.9329  -15.6765  -40.9984 H         1 UNK         0.0600 
    173 H173        4.5405  -14.5006  -39.8357 H         1 UNK         0.0600 
    174 H174        2.2628  -13.8684  -40.8228 H         1 UNK         0.3000 
    175 H175       -0.9970  -12.8333  -40.5365 H         1 UNK         0.0600 
    176 H176        1.1959  -10.9668  -39.4867 H         1 UNK         0.0600 
    177 H177       -0.3460  -10.4635  -40.1813 H         1 UNK         0.0600 
    178 H178       -0.3121  -11.3405  -38.6614 H         1 UNK         0.0600 
    179 H179        1.2530  -11.6069  -41.8486 H         1 UNK         0.3000 
    180 H180        0.7377  -11.8080  -44.3760 H         1 UNK         0.0600 
    181 H181        3.0386  -13.7288  -43.6548 H         1 UNK         0.0600 
    182 H182        2.9663  -12.0131  -43.3032 H         1 UNK         0.0600 
    183 H183        3.1046  -12.5529  -44.9606 H         1 UNK         0.0600 
    184 H184        0.0948  -14.4997  -44.7592 H         1 UNK         0.3000 
    185 H185        0.1859  -15.6290  -46.8705 H         1 UNK         0.0600 
    186 H186       -2.0375  -15.0813  -47.9134 H         1 UNK         0.0600 
    187 H187       -1.9068  -14.2842  -46.3578 H         1 UNK         0.0600 
    188 H188       -1.6707  -13.3615  -47.8353 H         1 UNK         0.0600 
    189 H189        1.1834  -13.8436  -48.8603 H         1 UNK         0.3000 
    190 H190       -0.9634  -18.7127  -46.1660 H         1 UNK         0.3000 
    191 H191       -2.5466  -17.5556  -48.1877 H         1 UNK         0.0600 
    192 H192       -3.9122  -16.7229  -46.3357 H         1 UNK         0.0600 
    193 H193       -2.2299  -16.6825  -45.8251 H         1 UNK         0.0600 
    194 H194       -3.2978  -17.9526  -45.2420 H         1 UNK         0.0600 
    195 H195       -3.1795  -20.4538  -46.1514 H         1 UNK         0.3000 
    196 H196       -5.7327  -21.1175  -47.1801 H         1 UNK         0.0600 
    197 H197       -3.5412  -22.9665  -46.1074 H         1 UNK         0.0600 
    198 H198       -4.7530  -22.1340  -45.1380 H         1 UNK         0.0600 
    199 H199       -5.2396  -23.3760  -46.2791 H         1 UNK         0.0600 
    200 H200       -2.4621  -21.9291  -48.3297 H         1 UNK         0.3000 
    201 H201       -3.2986  -23.4867  -50.6020 H         1 UNK         0.0600 
    202 H202       -1.1299  -23.8219  -49.4120 H         1 UNK         0.0600 
    203 H203       -0.5850  -22.2372  -49.9595 H         1 UNK         0.0600 
    204 H204       -0.9030  -23.5134  -51.1249 H         1 UNK         0.0600 
    205 H205       -3.5135  -20.1224  -50.1263 H         1 UNK         0.3000 
    206 H206       -2.8804  -19.3717  -52.9037 H         1 UNK         0.0600 
    207 H207       -2.2109  -17.9139  -50.9737 H         1 UNK         0.0600 
    208 H208       -3.2148  -17.1006  -52.1627 H         1 UNK         0.0600 
    209 H209       -3.9167  -17.6176  -50.6388 H         1 UNK         0.0600 
    210 H210       -4.8496  -21.3233  -52.7807 H         1 UNK         0.3000 
    211 H211       -6.7456  -21.9523  -53.6642 H         1 UNK         0.0600 
    212 H212       -7.9667  -20.5778  -55.2804 H         1 UNK         0.0600 
    213 H213       -6.2463  -20.3643  -55.5299 H         1 UNK         0.0600 
    214 H214       -7.1838  -19.1120  -54.7139 H         1 UNK         0.0600 
    215 H215       -6.6420  -20.3057  -50.9532 H         1 UNK         0.3000 
    216 H216       -9.4254  -19.5973  -50.5225 H         1 UNK         0.0600 
    217 H217       -7.1049  -19.9241  -48.5577 H         1 UNK         0.0600 
    218 H218       -8.6684  -19.2115  -48.1845 H         1 UNK         0.0600 
    219 H219       -7.5953  -18.4225  -49.3327 H         1 UNK         0.0600 
    220 H220       -7.2935  -22.3288  -49.5822 H         1 UNK         0.3000 
    221 H221       -9.7073  -23.9801  -48.9122 H         1 UNK         0.0600 
    222 H222       -8.2485  -23.4727  -46.9242 H         1 UNK         0.0600 
    223 H223       -6.8745  -24.1878  -47.7683 H         1 UNK         0.0600 
    224 H224       -8.2560  -25.1830  -47.3322 H         1 UNK         0.0600 
    225 H225       -6.5076  -23.8169  -50.5635 H         1 UNK         0.3000 
    226 H226       -7.2407  -25.9019  -52.4243 H         1 UNK         0.0600 
    227 H227       -4.9574  -26.3687  -50.4048 H         1 UNK         0.0600 
    228 H228       -6.4538  -27.2964  -50.4688 H         1 UNK         0.0600 
    229 H229       -5.3078  -27.3963  -51.7894 H         1 UNK         0.0600 
    230 H230       -5.2678  -26.3152  -53.8562 H         1 UNK         0.3000 
    231 H231       -3.8267  -25.6440  -55.3736 H         1 UNK         0.0600 
    232 H232       -2.4549  -24.3472  -52.9677 H         1 UNK         0.0600 
    233 H233       -1.6627  -24.7635  -54.4861 H         1 UNK         0.0600 
    234 H234       -2.3202  -26.0216  -53.4659 H         1 UNK         0.0600 
    235 H235       -2.1681  -23.0845  -55.2535 H         1 UNK         0.3000 
    236 H236       -3.9433  -20.9099  -55.7736 H         1 UNK         0.0600 
    237 H237       -4.5025  -22.1904  -57.8422 H         1 UNK         0.0600 
    238 H238       -3.5858  -20.7587  -58.2552 H         1 UNK         0.0600 
    239 H239       -2.7920  -22.3302  -58.2415 H         1 UNK         0.0600 
    240 H240       -1.8544  -21.0939  -54.0508 H         1 UNK         0.3000 
    241 H241        0.6163  -20.1251  -55.1345 H         1 UNK         0.0600 
    242 H242       -1.5148  -16.7074  -54.7794 H         1 UNK         0.3800 
    243 H243       -2.3082  -18.2615  -54.8882 H         1 UNK         0.3800 
    244 H244       -0.4879  -20.0997  -52.2879 H         1 UNK         0.0800 
    245 H245        1.0878  -19.5107  -52.6732 H         1 UNK         0.0800 
    246 H246        3.2809  -22.5750  -53.0892 H         1 UNK         0.0800 
    247 H247        2.9664  -21.1444  -54.0385 H         1 UNK         0.0800 
@<TRIPOS>BOND
     1    1    2 1    
     2    1  127 1    
     3    1  128 1    
     4    1  129 1    
     5    2    3 2    
     6    2    4 am   BACKBONE|DICT|INTERRES
     7    4    5 1    
     8    4  130 1    
     9    5    6 1    
    10    5   65 1    
    11    5  131 1    
    12    6    7 1    
    13    6  132 1    
    14    6  133 1    
    15    7    8 1    
    16    8    9 1    
    17    8  134 1    
    18    8  135 1    
    19    9   10 ar   
    20    9   14 ar   
    21   10   11 ar   
    22   10  136 1    
    23   11   12 ar   
    24   11  126 1    
    25   12   13 ar   
    26   12  137 1    
    27   13   14 ar   
    28   13   15 1    
    29   14  138 1    
    30   15   16 1    
    31   15  139 1    
    32   15  140 1    
    33   16   17 1    
    34   17   18 1    
    35   17  141 1    
    36   17  142 1    
    37   18   19 1    
    38   18   67 1    
    39   18  143 1    
    40   19   20 am   BACKBONE|DICT|INTERRES
    41   19  144 1    
    42   20   21 2    
    43   20   22 1    
    44   22   23 1    
    45   22   24 1    
    46   22  145 1    
    47   23  146 1    
    48   23  147 1    
    49   23  148 1    
    50   24   25 am   BACKBONE|DICT|INTERRES
    51   24  149 1    
    52   25   26 2    
    53   25   27 1    
    54   27   28 1    
    55   27   29 1    
    56   27  150 1    
    57   28  151 1    
    58   28  152 1    
    59   28  153 1    
    60   29   30 am   BACKBONE|DICT|INTERRES
    61   29  154 1    
    62   30   31 2    
    63   30   32 1    
    64   32   33 1    
    65   32   34 1    
    66   32  155 1    
    67   33  156 1    
    68   33  157 1    
    69   33  158 1    
    70   34   35 am   BACKBONE|DICT|INTERRES
    71   34  159 1    
    72   35   36 2    
    73   35   37 1    
    74   37   38 1    
    75   37   39 1    
    76   37  160 1    
    77   38  161 1    
    78   38  162 1    
    79   38  163 1    
    80   39   40 am   BACKBONE|DICT|INTERRES
    81   39  164 1    
    82   40   41 2    
    83   40   42 1    
    84   42   43 1    
    85   42   44 1    
    86   42  165 1    
    87   43  166 1    
    88   43  167 1    
    89   43  168 1    
    90   44   45 am   BACKBONE|DICT|INTERRES
    91   44  169 1    
    92   45   46 2    
    93   45   47 1    
    94   47   48 1    
    95   47   49 1    
    96   47  170 1    
    97   48  171 1    
    98   48  172 1    
    99   48  173 1    
   100   49   50 am   BACKBONE|DICT|INTERRES
   101   49  174 1    
   102   50   51 2    
   103   50   52 1    
   104   52   53 1    
   105   52   54 1    
   106   52  175 1    
   107   53  176 1    
   108   53  177 1    
   109   53  178 1    
   110   54   55 am   BACKBONE|DICT|INTERRES
   111   54  179 1    
   112   55   56 2    
   113   55   57 1    
   114   57   58 1    
   115   57   59 1    
   116   57  180 1    
   117   58  181 1    
   118   58  182 1    
   119   58  183 1    
   120   59   60 am   BACKBONE|DICT|INTERRES
   121   59  184 1    
   122   60   61 2    
   123   60   62 1    
   124   62   63 1    
   125   62   64 1    
   126   62  185 1    
   127   63  186 1    
   128   63  187 1    
   129   63  188 1    
   130   64   65 am   BACKBONE|DICT|INTERRES
   131   64  189 1    
   132   65   66 2    
   133   67   68 2    
   134   67   69 am   BACKBONE|DICT|INTERRES
   135   69   70 1    
   136   69  190 1    
   137   70   71 1    
   138   70   72 1    
   139   70  191 1    
   140   71  192 1    
   141   71  193 1    
   142   71  194 1    
   143   72   73 2    
   144   72   74 am   BACKBONE|DICT|INTERRES
   145   74   75 1    
   146   74  195 1    
   147   75   76 1    
   148   75   77 1    
   149   75  196 1    
   150   76  197 1    
   151   76  198 1    
   152   76  199 1    
   153   77   78 2    
   154   77   79 am   BACKBONE|DICT|INTERRES
   155   79   80 1    
   156   79  200 1    
   157   80   81 1    
   158   80   82 1    
   159   80  201 1    
   160   81  202 1    
   161   81  203 1    
   162   81  204 1    
   163   82   83 2    
   164   82   84 am   BACKBONE|DICT|INTERRES
   165   84   85 1    
   166   84  205 1    
   167   85   86 1    
   168   85   87 1    
   169   85  206 1    
   170   86  207 1    
   171   86  208 1    
   172   86  209 1    
   173   87   88 2    
   174   87   89 am   BACKBONE|DICT|INTERRES
   175   89   90 1    
   176   89  210 1    
   177   90   91 1    
   178   90   92 1    
   179   90  211 1    
   180   91  212 1    
   181   91  213 1    
   182   91  214 1    
   183   92   93 2    
   184   92   94 am   BACKBONE|DICT|INTERRES
   185   94   95 1    
   186   94  215 1    
   187   95   96 1    
   188   95   97 1    
   189   95  216 1    
   190   96  217 1    
   191   96  218 1    
   192   96  219 1    
   193   97   98 2    
   194   97   99 am   BACKBONE|DICT|INTERRES
   195   99  100 1    
   196   99  220 1    
   197  100  101 1    
   198  100  102 1    
   199  100  221 1    
   200  101  222 1    
   201  101  223 1    
   202  101  224 1    
   203  102  103 2    
   204  102  104 am   BACKBONE|DICT|INTERRES
   205  104  105 1    
   206  104  225 1    
   207  105  106 1    
   208  105  107 1    
   209  105  226 1    
   210  106  227 1    
   211  106  228 1    
   212  106  229 1    
   213  107  108 2    
   214  107  109 am   BACKBONE|DICT|INTERRES
   215  109  110 1    
   216  109  230 1    
   217  110  111 1    
   218  110  112 1    
   219  110  231 1    
   220  111  232 1    
   221  111  233 1    
   222  111  234 1    
   223  112  113 2    
   224  112  114 am   BACKBONE|DICT|INTERRES
   225  114  115 1    
   226  114  235 1    
   227  115  116 1    
   228  115  117 1    
   229  115  236 1    
   230  116  237 1    
   231  116  238 1    
   232  116  239 1    
   233  117  118 2    
   234  117  119 am   BACKBONE|DICT|INTERRES
   235  119  120 1    
   236  119  240 1    
   237  120  121 1    
   238  120  124 1    
   239  120  241 1    
   240  121  122 am   BACKBONE|DICT|INTERRES
   241  121  123 2    
   242  122  242 1    
   243  122  243 1    
   244  124  125 1    
   245  124  244 1    
   246  124  245 1    
   247  125  126 1    
   248  126  246 1    
   249  126  247 1    
@<TRIPOS>SUBSTRUCTURE
     1 UNK         1 GROUP             0       ****    0 ROOT    
