@<TRIPOS>MOLECULE
3R540
247   249    1
SMALL
USER_CHARGES


@<TRIPOS>ATOM
      1 CA         -0.9723  -14.9354  -44.3463 C.3       0 UNK        -0.1800 
      2 C          -1.0125  -14.0083  -45.5512 C.2       0 UNK         0.5000 
      3 O          -1.7897  -13.0538  -45.5642 O.2       0 UNK        -0.5000 
      4 N          -0.1741  -14.2692  -46.5628 N.am      1 UNK        -0.5000 
      5 CA         -0.1215  -13.5089  -47.8243 C.3       1 UNK         0.1400 
      6 C6          0.3174  -14.3643  -49.0454 C.3       23 UNK        -0.0398 
      7 S7          1.7486  -15.4578  -48.7493 S.3       23 UNK        -0.2404 
      8 C8          0.8904  -16.9835  -48.2439 C.3       23 UNK        -0.0205 
      9 C9          0.7636  -17.9985  -49.3692 C.ar      23 UNK        -0.0193 
     10 C10        -0.2453  -17.8937  -50.3327 C.ar      23 UNK        -0.1150 
     11 C11        -0.3610  -18.8553  -51.3427 C.ar      23 UNK        -0.0193 
     12 C12         0.5248  -19.9374  -51.3675 C.ar      23 UNK        -0.1150 
     13 C13         1.5270  -20.0589  -50.4035 C.ar      23 UNK        -0.0193 
     14 C14         1.6498  -19.0762  -49.4200 C.ar      23 UNK        -0.1150 
     15 C15         2.4897  -21.2379  -50.4328 C.3       23 UNK        -0.0205 
     16 S16         1.7686  -22.7534  -49.7201 S.3       23 UNK        -0.2404 
     17 C17         1.5447  -22.2923  -47.9659 C.3       23 UNK        -0.0398 
     18 CA          0.1758  -22.7062  -47.3757 C.3       11 UNK         0.1400 
     19 N           0.1373  -22.4867  -45.9274 N.am      11 UNK        -0.5000 
     20 C          -0.7270  -23.0783  -45.0910 C.2       10 UNK         0.5000 
     21 O          -1.5640  -23.9039  -45.4516 O.2       10 UNK        -0.5000 
     22 CA         -0.6740  -22.6493  -43.6112 C.3       10 UNK         0.1400 
     23 CB          0.3608  -23.4859  -42.8448 C.3       10 UNK        -0.1800 
     24 N          -0.3694  -21.2276  -43.4389 N.am      10 UNK        -0.5000 
     25 C          -1.1688  -20.2276  -43.8357 C.2       9 UNK         0.5000 
     26 O          -2.2796  -20.4054  -44.3320 O.2       9 UNK        -0.5000 
     27 CA         -0.6205  -18.7925  -43.7111 C.3       9 UNK         0.1400 
     28 CB         -1.0989  -18.1460  -42.4049 C.3       9 UNK        -0.1800 
     29 N           0.8407  -18.6957  -43.8002 N.am      9 UNK        -0.5000 
     30 C           1.5662  -19.0834  -44.8601 C.2       8 UNK         0.5000 
     31 O           1.0724  -19.6217  -45.8538 O.2       8 UNK        -0.5000 
     32 CA          3.0911  -18.8581  -44.7753 C.3       8 UNK         0.1400 
     33 CB          3.8094  -19.0407  -46.1272 C.3       8 UNK        -0.1800 
     34 N           3.4824  -17.5799  -44.1730 N.am      8 UNK        -0.5000 
     35 C           3.1085  -16.3443  -44.5364 C.2       7 UNK         0.5000 
     36 O           2.2598  -16.1000  -45.3945 O.2       7 UNK        -0.5000 
     37 CA          3.8112  -15.1890  -43.7971 C.3       7 UNK         0.1400 
     38 CB          3.3266  -13.8069  -44.2652 C.3       7 UNK        -0.1800 
     39 N           3.6458  -15.2924  -42.3466 N.am      7 UNK        -0.5000 
     40 C           4.3809  -16.0735  -41.5401 C.2       6 UNK         0.5000 
     41 O           5.2790  -16.8083  -41.9539 O.2       6 UNK        -0.5000 
     42 CA          4.0636  -16.0596  -40.0310 C.3       6 UNK         0.1400 
     43 CB          5.0888  -15.1979  -39.2780 C.3       6 UNK        -0.1800 
     44 N           2.7216  -15.5728  -39.7173 N.am      6 UNK        -0.5000 
     45 C           1.5786  -16.2046  -40.0172 C.2       5 UNK         0.5000 
     46 O           1.5293  -17.3165  -40.5440 O.2       5 UNK        -0.5000 
     47 CA          0.2745  -15.4391  -39.7110 C.3       5 UNK         0.1400 
     48 CB         -0.2892  -15.8612  -38.3463 C.3       5 UNK        -0.1800 
     49 N           0.4266  -13.9781  -39.7414 N.am      5 UNK        -0.5000 
     50 C           0.7776  -13.2768  -40.8278 C.2       4 UNK         0.5000 
     51 O           1.0453  -13.7953  -41.9121 O.2       4 UNK        -0.5000 
     52 CA          0.9226  -11.7549  -40.6612 C.3       4 UNK         0.1400 
     53 CB          2.3969  -11.3881  -40.4321 C.3       4 UNK        -0.1800 
     54 N           0.4370  -11.0396  -41.8396 N.am      4 UNK        -0.5000 
     55 C          -0.8426  -10.9645  -42.2209 C.2       3 UNK         0.5000 
     56 O          -1.7725  -11.4443  -41.5706 O.2       3 UNK        -0.5000 
     57 CA         -1.1513  -10.2336  -43.5422 C.3       3 UNK         0.1400 
     58 CB         -1.3168   -8.7189  -43.3144 C.3       3 UNK        -0.1800 
     59 N          -0.2224  -10.5141  -44.6464 N.am      3 UNK        -0.5000 
     60 C           1.0648  -10.1643  -44.7970 C.2       2 UNK         0.5000 
     61 O           1.7145   -9.5631  -43.9405 O.2       2 UNK        -0.5000 
     62 CA          1.7313  -10.5840  -46.1228 C.3       2 UNK         0.1400 
     63 CB          3.2685  -10.6005  -46.0512 C.3       2 UNK        -0.1800 
     64 N           1.2309  -11.8973  -46.5338 N.am      2 UNK        -0.5000 
     65 C           0.6377  -12.1671  -47.7039 C.2       1 UNK         0.5000 
     66 O           0.6142  -11.3774  -48.6491 O.2       1 UNK        -0.5000 
     67 C          -1.0232  -22.0186  -48.0648 C.2       11 UNK         0.5000 
     68 O          -1.6080  -22.5976  -48.9828 O.2       11 UNK        -0.5000 
     69 N          -1.4175  -20.8373  -47.5636 N.am      12 UNK        -0.5000 
     70 CA         -2.6284  -20.1383  -47.9938 C.3       12 UNK         0.1400 
     71 CB         -2.6593  -18.7148  -47.4225 C.3       12 UNK        -0.1800 
     72 C          -3.9101  -20.9042  -47.6214 C.2       12 UNK         0.5000 
     73 O          -4.7927  -21.0494  -48.4655 O.2       12 UNK        -0.5000 
     74 N          -3.9713  -21.4260  -46.3875 N.am      13 UNK        -0.5000 
     75 CA         -5.0626  -22.2676  -45.8865 C.3       13 UNK         0.1400 
     76 CB         -4.8609  -22.5299  -44.3868 C.3       13 UNK        -0.1800 
     77 C          -5.2028  -23.5949  -46.6568 C.2       13 UNK         0.5000 
     78 O          -6.3226  -24.0585  -46.8730 O.2       13 UNK        -0.5000 
     79 N          -4.0677  -24.1546  -47.0962 N.am      14 UNK        -0.5000 
     80 CA         -3.9887  -25.3182  -47.9797 C.3       14 UNK         0.1400 
     81 CB         -2.5930  -25.9496  -47.8477 C.3       14 UNK        -0.1800 
     82 C          -4.2905  -24.9928  -49.4573 C.2       14 UNK         0.5000 
     83 O          -4.3053  -25.9159  -50.2723 O.2       14 UNK        -0.5000 
     84 N          -4.4888  -23.7093  -49.7976 N.am      15 UNK        -0.5000 
     85 CA         -4.7581  -23.1820  -51.1394 C.3       15 UNK         0.1400 
     86 CB         -6.1484  -23.6530  -51.6195 C.3       15 UNK        -0.1800 
     87 C          -3.6226  -23.5028  -52.1339 C.2       15 UNK         0.5000 
     88 O          -3.8882  -23.9118  -53.2655 O.2       15 UNK        -0.5000 
     89 N          -2.3708  -23.3731  -51.6663 N.am      16 UNK        -0.5000 
     90 CA         -1.1305  -23.7400  -52.3610 C.3       16 UNK         0.1400 
     91 CB         -0.9243  -22.8719  -53.6202 C.3       16 UNK        -0.1800 
     92 C          -1.0415  -25.2530  -52.6616 C.2       16 UNK         0.5000 
     93 O          -0.4732  -25.6436  -53.6814 O.2       16 UNK        -0.5000 
     94 N          -1.6248  -26.0684  -51.7691 N.am      17 UNK        -0.5000 
     95 CA         -1.8877  -27.5046  -51.9104 C.3       17 UNK         0.1400 
     96 CB         -0.5837  -28.3175  -52.0576 C.3       17 UNK        -0.1800 
     97 C          -2.9212  -27.7712  -53.0251 C.2       17 UNK         0.5000 
     98 O          -2.6814  -28.5844  -53.9195 O.2       17 UNK        -0.5000 
     99 N          -4.0535  -27.0569  -52.9320 N.am      18 UNK        -0.5000 
    100 CA        -5.2023  -27.0567  -53.8437 C.3       18 UNK         0.1400 
    101 CB        -5.9772  -28.3853  -53.7253 C.3       18 UNK        -0.1800 
    102 C         -4.8202  -26.7024  -55.2969 C.2       18 UNK         0.5000 
    103 O         -5.1645  -27.4388  -56.2244 O.2       18 UNK        -0.5000 
    104 N         -4.0984  -25.5873  -55.4624 N.am      19 UNK        -0.5000 
    105 CA        -3.5537  -25.1312  -56.7411 C.3       19 UNK         0.1400 
    106 CB        -2.0549  -25.4683  -56.7961 C.3       19 UNK        -0.1800 
    107 C         -3.7837  -23.6348  -57.0204 C.2       19 UNK         0.5000 
    108 O         -3.6401  -23.2364  -58.1781 O.2       19 UNK        -0.5000 
    109 N         -4.1278  -22.8225  -56.0101 N.am      20 UNK        -0.5000 
    110 CA        -4.3414  -21.3831  -56.1706 C.3       20 UNK         0.1400 
    111 CB        -3.0101  -20.6366  -55.9780 C.3       20 UNK        -0.1800 
    112 C         -5.3933  -20.8718  -55.1799 C.2       20 UNK         0.5000 
    113 O         -5.4784  -21.3679  -54.0568 O.2       20 UNK        -0.5000 
    114 N         -6.1507  -19.8494  -55.5934 N.am      21 UNK        -0.5000 
    115 CA        -7.1435  -19.1533  -54.7736 C.3       21 UNK         0.1400 
    116 CB        -8.2142  -18.5486  -55.7001 C.3       21 UNK        -0.1800 
    117 C         -6.4627  -18.0971  -53.8792 C.2       21 UNK         0.5000 
    118 O         -6.6350  -16.8954  -54.0935 O.2       21 UNK        -0.5000 
    119 N         -5.6536  -18.5747  -52.9280 N.am      22 UNK        -0.5000 
    120 CA        -4.8658  -17.7707  -51.9814 C.3       22 UNK         0.1400 
    121 C         -5.7365  -16.8754  -51.0555 C.2       22 UNK         0.5000 
    122 N         -5.2814  -15.6699  -50.7415 N.am      22 UNK        -0.7600 
    123 O         -6.7962  -17.2808  -50.5830 O.2       22 UNK        -0.5000 
    124 C124       -3.9245  -18.6550  -51.1253 C.3       23 UNK        -0.0398 
    125 S125       -2.8690  -19.7596  -52.1208 S.3       23 UNK        -0.2404 
    126 C126       -1.4130  -18.7166  -52.4324 C.3       23 UNK        -0.0205 
    127 H127       -0.0258  -15.4697  -44.2764 H         1 UNK         0.0600 
    128 H128       -1.7775  -15.6668  -44.4106 H         1 UNK         0.0600 
    129 H129       -1.1044  -14.3646  -43.4273 H         1 UNK         0.0600 
    130 H130        0.5018  -15.0208  -46.4756 H         1 UNK         0.3000 
    131 H131       -1.1465  -13.2049  -48.0485 H         1 UNK         0.0600 
    132 H132        0.5416  -13.7346  -49.9080 H         1 UNK         0.0800 
    133 H133       -0.5255  -14.9762  -49.3656 H         1 UNK         0.0800 
    134 H134       -0.0912  -16.7458  -47.8385 H         1 UNK         0.0800 
    135 H135        1.4409  -17.4288  -47.4179 H         1 UNK         0.0800 
    136 H136       -0.9340  -17.0626  -50.3028 H         1 UNK         0.1150 
    137 H137        0.4400  -20.6858  -52.1406 H         1 UNK         0.1150 
    138 H138        2.4299  -19.1595  -48.6787 H         1 UNK         0.1150 
    139 H139        2.7797  -21.4402  -51.4648 H         1 UNK         0.0800 
    140 H140        3.4114  -20.9945  -49.9020 H         1 UNK         0.0800 
    141 H141        2.3433  -22.7792  -47.4048 H         1 UNK         0.0800 
    142 H142        1.7035  -21.2253  -47.8298 H         1 UNK         0.0800 
    143 H143        0.0655  -23.7795  -47.5449 H         1 UNK         0.0600 
    144 H144        0.7343  -21.7513  -45.5721 H         1 UNK         0.3000 
    145 H145       -1.6567  -22.8394  -43.1749 H         1 UNK         0.0600 
    146 H146        0.3522  -23.2462  -41.7813 H         1 UNK         0.0600 
    147 H147        0.1470  -24.5515  -42.9382 H         1 UNK         0.0600 
    148 H148        1.3718  -23.3197  -43.2191 H         1 UNK         0.0600 
    149 H149        0.5249  -20.9950  -43.0333 H         1 UNK         0.3000 
    150 H150       -1.0317  -18.2173  -44.5428 H         1 UNK         0.0600 
    151 H151       -0.7042  -18.6650  -41.5306 H         1 UNK         0.0600 
    152 H152       -2.1873  -18.1623  -42.3348 H         1 UNK         0.0600 
    153 H153       -0.7861  -17.1044  -42.3482 H         1 UNK         0.0600 
    154 H154        1.3142  -18.2631  -43.0185 H         1 UNK         0.3000 
    155 H155        3.4617  -19.6351  -44.1057 H         1 UNK         0.0600 
    156 H156        3.5672  -20.0012  -46.5831 H         1 UNK         0.0600 
    157 H157        4.8913  -19.0122  -45.9995 H         1 UNK         0.0600 
    158 H158        3.5426  -18.2565  -46.8347 H         1 UNK         0.0600 
    159 H159        4.1705  -17.6378  -43.4290 H         1 UNK         0.3000 
    160 H160        4.8748  -15.2552  -44.0355 H         1 UNK         0.0600 
    161 H161        2.2485  -13.6936  -44.1571 H         1 UNK         0.0600 
    162 H162        3.5648  -13.6539  -45.3185 H         1 UNK         0.0600 
    163 H163        3.8071  -13.0099  -43.6980 H         1 UNK         0.0600 
    164 H164        2.8661  -14.7737  -41.9576 H         1 UNK         0.3000 
    165 H165        4.1455  -17.0867  -39.6695 H         1 UNK         0.0600 
    166 H166        4.9236  -15.2379  -38.2011 H         1 UNK         0.0600 
    167 H167        6.1053  -15.5483  -39.4621 H         1 UNK         0.0600 
    168 H168        5.0406  -14.1530  -39.5877 H         1 UNK         0.0600 
    169 H169        2.6607  -14.6638  -39.2839 H         1 UNK         0.3000 
    170 H170       -0.4528  -15.7101  -40.4779 H         1 UNK         0.0600 
    171 H171       -0.4395  -16.9409  -38.3032 H         1 UNK         0.0600 
    172 H172        0.3832  -15.5903  -37.5314 H         1 UNK         0.0600 
    173 H173       -1.2552  -15.3929  -38.1560 H         1 UNK         0.0600 
    174 H174        0.2337  -13.4877  -38.8797 H         1 UNK         0.3000 
    175 H175        0.3395  -11.4314  -39.7966 H         1 UNK         0.0600 
    176 H176        3.0203  -11.6827  -41.2778 H         1 UNK         0.0600 
    177 H177        2.5178  -10.3145  -40.2859 H         1 UNK         0.0600 
    178 H178        2.7920  -11.8831  -39.5441 H         1 UNK         0.0600 
    179 H179        1.1309  -10.6080  -42.4420 H         1 UNK         0.3000 
    180 H180       -2.1161  -10.6147  -43.8809 H         1 UNK         0.0600 
    181 H181       -0.3985   -8.2568  -42.9513 H         1 UNK         0.0600 
    182 H182       -2.0931   -8.5209  -42.5743 H         1 UNK         0.0600 
    183 H183       -1.6080   -8.2112  -44.2339 H         1 UNK         0.0600 
    184 H184       -0.6338  -11.0705  -45.3853 H         1 UNK         0.3000 
    185 H185        1.4429   -9.8259  -46.8536 H         1 UNK         0.0600 
    186 H186        3.6316  -11.2175  -45.2318 H         1 UNK         0.0600 
    187 H187        3.7041  -10.9764  -46.9770 H         1 UNK         0.0600 
    188 H188        3.6587   -9.5943  -45.8943 H         1 UNK         0.0600 
    189 H189        1.1949  -12.6060  -45.8147 H         1 UNK         0.3000 
    190 H190       -0.8728  -20.4153  -46.8229 H         1 UNK         0.3000 
    191 H191       -2.5860  -20.0653  -49.0812 H         1 UNK         0.0600 
    192 H192       -2.6882  -18.7101  -46.3337 H         1 UNK         0.0600 
    193 H193       -1.7858  -18.1523  -47.7384 H         1 UNK         0.0600 
    194 H194       -3.5378  -18.1731  -47.7754 H         1 UNK         0.0600 
    195 H195       -3.2334  -21.2007  -45.7245 H         1 UNK         0.3000 
    196 H196       -5.9939  -21.7120  -46.0133 H         1 UNK         0.0600 
    197 H197       -4.8267  -21.5969  -43.8240 H         1 UNK         0.0600 
    198 H198       -3.9344  -23.0711  -44.1948 H         1 UNK         0.0600 
    199 H199       -5.6795  -23.1253  -43.9807 H         1 UNK         0.0600 
    200 H200       -3.1848  -23.7469  -46.8107 H         1 UNK         0.3000 
    201 H201       -4.7262  -26.0543  -47.6537 H         1 UNK         0.0600 
    202 H202       -2.5128  -26.8593  -48.4439 H         1 UNK         0.0600 
    203 H203       -2.3804  -26.2230  -46.8141 H         1 UNK         0.0600 
    204 H204       -1.8105  -25.2681  -48.1816 H         1 UNK         0.0600 
    205 H205       -4.4390  -23.0067  -49.0693 H         1 UNK         0.3000 
    206 H206       -4.7868  -22.0951  -51.0540 H         1 UNK         0.0600 
    207 H207       -6.9269  -23.3348  -50.9264 H         1 UNK         0.0600 
    208 H208       -6.2054  -24.7371  -51.7071 H         1 UNK         0.0600 
    209 H209       -6.3987  -23.2386  -52.5947 H         1 UNK         0.0600 
    210 H210       -2.2448  -23.0418  -50.7114 H         1 UNK         0.3000 
    211 H211       -0.3203  -23.5150  -51.6681 H         1 UNK         0.0600 
    212 H212       -1.0540  -21.8147  -53.3983 H         1 UNK         0.0600 
    213 H213        0.0806  -23.0002  -54.0233 H         1 UNK         0.0600 
    214 H214       -1.6282  -23.1295  -54.4109 H         1 UNK         0.0600 
    215 H215       -2.0980  -25.6278  -50.9927 H         1 UNK         0.3000 
    216 H216       -2.3578  -27.8202  -50.9779 H         1 UNK         0.0600 
    217 H217       -0.0829  -28.1258  -53.0066 H         1 UNK         0.0600 
    218 H218        0.1168  -28.0874  -51.2550 H         1 UNK         0.0600 
    219 H219       -0.7898  -29.3873  -52.0127 H         1 UNK         0.0600 
    220 H220       -4.1443  -26.4444  -52.1261 H         1 UNK         0.3000 
    221 H221       -5.8649  -26.2603  -53.5042 H         1 UNK         0.0600 
    222 H222       -5.3831  -29.2330  -54.0681 H         1 UNK         0.0600 
    223 H223       -6.2715  -28.5778  -52.6936 H         1 UNK         0.0600 
    224 H224       -6.8892  -28.3607  -54.3228 H         1 UNK         0.0600 
    225 H225       -3.8851  -25.0222  -54.6409 H         1 UNK         0.3000 
    226 H226       -4.0438  -25.6611  -57.5602 H         1 UNK         0.0600 
    227 H227       -1.8817  -26.5319  -56.6307 H         1 UNK         0.0600 
    228 H228       -1.6311  -25.2159  -57.7688 H         1 UNK         0.0600 
    229 H229       -1.4937  -24.9173  -56.0422 H         1 UNK         0.0600 
    230 H230       -4.2491  -23.1773  -55.0650 H         1 UNK         0.3000 
    231 H231       -4.7163  -21.1800  -57.1761 H         1 UNK         0.0600 
    232 H232       -3.1412  -19.5605  -56.0973 H         1 UNK         0.0600 
    233 H233       -2.2653  -20.9570  -56.7064 H         1 UNK         0.0600 
    234 H234       -2.6003  -20.8070  -54.9829 H         1 UNK         0.0600 
    235 H235       -5.9925  -19.4662  -56.5142 H         1 UNK         0.3000 
    236 H236       -7.6413  -19.8707  -54.1173 H         1 UNK         0.0600 
    237 H237       -8.7173  -19.3242  -56.2779 H         1 UNK         0.0600 
    238 H238       -8.9793  -18.0269  -55.1238 H         1 UNK         0.0600 
    239 H239       -7.7854  -17.8329  -56.4027 H         1 UNK         0.0600 
    240 H240       -5.5289  -19.5788  -52.8722 H         1 UNK         0.3000 
    241 H241       -4.2422  -17.1105  -52.5871 H         1 UNK         0.0600 
    242 H242       -4.4181  -15.3116  -51.1189 H         1 UNK         0.3800 
    243 H243       -5.8312  -15.0858  -50.1306 H         1 UNK         0.3800 
    244 H244       -3.2908  -18.0396  -50.4851 H         1 UNK         0.0800 
    245 H245       -4.5155  -19.2826  -50.4570 H         1 UNK         0.0800 
    246 H246       -1.7151  -17.6751  -52.5508 H         1 UNK         0.0800 
    247 H247       -0.9778  -19.0120  -53.3882 H         1 UNK         0.0800 
@<TRIPOS>BOND
     1    1    2 1    
     2    1  127 1    
     3    1  128 1    
     4    1  129 1    
     5    2    3 2    
     6    2    4 am   BACKBONE|DICT|INTERRES
     7    4    5 1    
     8    4  130 1    
     9    5    6 1    
    10    5   65 1    
    11    5  131 1    
    12    6    7 1    
    13    6  132 1    
    14    6  133 1    
    15    7    8 1    
    16    8    9 1    
    17    8  134 1    
    18    8  135 1    
    19    9   10 ar   
    20    9   14 ar   
    21   10   11 ar   
    22   10  136 1    
    23   11   12 ar   
    24   11  126 1    
    25   12   13 ar   
    26   12  137 1    
    27   13   14 ar   
    28   13   15 1    
    29   14  138 1    
    30   15   16 1    
    31   15  139 1    
    32   15  140 1    
    33   16   17 1    
    34   17   18 1    
    35   17  141 1    
    36   17  142 1    
    37   18   19 1    
    38   18   67 1    
    39   18  143 1    
    40   19   20 am   BACKBONE|DICT|INTERRES
    41   19  144 1    
    42   20   21 2    
    43   20   22 1    
    44   22   23 1    
    45   22   24 1    
    46   22  145 1    
    47   23  146 1    
    48   23  147 1    
    49   23  148 1    
    50   24   25 am   BACKBONE|DICT|INTERRES
    51   24  149 1    
    52   25   26 2    
    53   25   27 1    
    54   27   28 1    
    55   27   29 1    
    56   27  150 1    
    57   28  151 1    
    58   28  152 1    
    59   28  153 1    
    60   29   30 am   BACKBONE|DICT|INTERRES
    61   29  154 1    
    62   30   31 2    
    63   30   32 1    
    64   32   33 1    
    65   32   34 1    
    66   32  155 1    
    67   33  156 1    
    68   33  157 1    
    69   33  158 1    
    70   34   35 am   BACKBONE|DICT|INTERRES
    71   34  159 1    
    72   35   36 2    
    73   35   37 1    
    74   37   38 1    
    75   37   39 1    
    76   37  160 1    
    77   38  161 1    
    78   38  162 1    
    79   38  163 1    
    80   39   40 am   BACKBONE|DICT|INTERRES
    81   39  164 1    
    82   40   41 2    
    83   40   42 1    
    84   42   43 1    
    85   42   44 1    
    86   42  165 1    
    87   43  166 1    
    88   43  167 1    
    89   43  168 1    
    90   44   45 am   BACKBONE|DICT|INTERRES
    91   44  169 1    
    92   45   46 2    
    93   45   47 1    
    94   47   48 1    
    95   47   49 1    
    96   47  170 1    
    97   48  171 1    
    98   48  172 1    
    99   48  173 1    
   100   49   50 am   BACKBONE|DICT|INTERRES
   101   49  174 1    
   102   50   51 2    
   103   50   52 1    
   104   52   53 1    
   105   52   54 1    
   106   52  175 1    
   107   53  176 1    
   108   53  177 1    
   109   53  178 1    
   110   54   55 am   BACKBONE|DICT|INTERRES
   111   54  179 1    
   112   55   56 2    
   113   55   57 1    
   114   57   58 1    
   115   57   59 1    
   116   57  180 1    
   117   58  181 1    
   118   58  182 1    
   119   58  183 1    
   120   59   60 am   BACKBONE|DICT|INTERRES
   121   59  184 1    
   122   60   61 2    
   123   60   62 1    
   124   62   63 1    
   125   62   64 1    
   126   62  185 1    
   127   63  186 1    
   128   63  187 1    
   129   63  188 1    
   130   64   65 am   BACKBONE|DICT|INTERRES
   131   64  189 1    
   132   65   66 2    
   133   67   68 2    
   134   67   69 am   BACKBONE|DICT|INTERRES
   135   69   70 1    
   136   69  190 1    
   137   70   71 1    
   138   70   72 1    
   139   70  191 1    
   140   71  192 1    
   141   71  193 1    
   142   71  194 1    
   143   72   73 2    
   144   72   74 am   BACKBONE|DICT|INTERRES
   145   74   75 1    
   146   74  195 1    
   147   75   76 1    
   148   75   77 1    
   149   75  196 1    
   150   76  197 1    
   151   76  198 1    
   152   76  199 1    
   153   77   78 2    
   154   77   79 am   BACKBONE|DICT|INTERRES
   155   79   80 1    
   156   79  200 1    
   157   80   81 1    
   158   80   82 1    
   159   80  201 1    
   160   81  202 1    
   161   81  203 1    
   162   81  204 1    
   163   82   83 2    
   164   82   84 am   BACKBONE|DICT|INTERRES
   165   84   85 1    
   166   84  205 1    
   167   85   86 1    
   168   85   87 1    
   169   85  206 1    
   170   86  207 1    
   171   86  208 1    
   172   86  209 1    
   173   87   88 2    
   174   87   89 am   BACKBONE|DICT|INTERRES
   175   89   90 1    
   176   89  210 1    
   177   90   91 1    
   178   90   92 1    
   179   90  211 1    
   180   91  212 1    
   181   91  213 1    
   182   91  214 1    
   183   92   93 2    
   184   92   94 am   BACKBONE|DICT|INTERRES
   185   94   95 1    
   186   94  215 1    
   187   95   96 1    
   188   95   97 1    
   189   95  216 1    
   190   96  217 1    
   191   96  218 1    
   192   96  219 1    
   193   97   98 2    
   194   97   99 am   BACKBONE|DICT|INTERRES
   195   99  100 1    
   196   99  220 1    
   197  100  101 1    
   198  100  102 1    
   199  100  221 1    
   200  101  222 1    
   201  101  223 1    
   202  101  224 1    
   203  102  103 2    
   204  102  104 am   BACKBONE|DICT|INTERRES
   205  104  105 1    
   206  104  225 1    
   207  105  106 1    
   208  105  107 1    
   209  105  226 1    
   210  106  227 1    
   211  106  228 1    
   212  106  229 1    
   213  107  108 2    
   214  107  109 am   BACKBONE|DICT|INTERRES
   215  109  110 1    
   216  109  230 1    
   217  110  111 1    
   218  110  112 1    
   219  110  231 1    
   220  111  232 1    
   221  111  233 1    
   222  111  234 1    
   223  112  113 2    
   224  112  114 am   BACKBONE|DICT|INTERRES
   225  114  115 1    
   226  114  235 1    
   227  115  116 1    
   228  115  117 1    
   229  115  236 1    
   230  116  237 1    
   231  116  238 1    
   232  116  239 1    
   233  117  118 2    
   234  117  119 am   BACKBONE|DICT|INTERRES
   235  119  120 1    
   236  119  240 1    
   237  120  121 1    
   238  120  124 1    
   239  120  241 1    
   240  121  122 am   BACKBONE|DICT|INTERRES
   241  121  123 2    
   242  122  242 1    
   243  122  243 1    
   244  124  125 1    
   245  124  244 1    
   246  124  245 1    
   247  125  126 1    
   248  126  246 1    
   249  126  247 1    
@<TRIPOS>SUBSTRUCTURE
     1 UNK         1 GROUP             0       ****    0 ROOT    
