@<TRIPOS>MOLECULE
3R540
247   249    1
SMALL
USER_CHARGES


@<TRIPOS>ATOM
      1 CA          1.0513  -10.2303  -46.6012 C.3       0 UNK        -0.1800 
      2 C           0.2694  -11.5206  -46.3989 C.2       0 UNK         0.5000 
      3 O           0.8787  -12.5782  -46.2576 O.2       0 UNK        -0.5000 
      4 N          -1.0676  -11.4230  -46.4100 N.am      1 UNK        -0.5000 
      5 CA         -2.1036  -12.4533  -46.2099 C.3       1 UNK         0.1400 
      6 C6         -2.2128  -12.9841  -44.7507 C.3       23 UNK        -0.0398 
      7 S7         -1.0069  -14.2659  -44.2569 S.3       23 UNK        -0.2404 
      8 C8         -1.8303  -15.0400  -42.8237 C.3       23 UNK        -0.0205 
      9 C9         -2.7779  -16.1992  -43.1417 C.ar      23 UNK        -0.0193 
     10 C10        -3.4188  -16.3410  -44.3795 C.ar      23 UNK        -0.1150 
     11 C11        -4.3002  -17.4008  -44.6120 C.ar      23 UNK        -0.0193 
     12 C12        -4.5538  -18.3225  -43.5949 C.ar      23 UNK        -0.1150 
     13 C13        -3.9110  -18.2072  -42.3600 C.ar      23 UNK        -0.0193 
     14 C14        -3.0313  -17.1435  -42.1409 C.ar      23 UNK        -0.1150 
     15 C15        -4.1702  -19.2253  -41.2590 C.3       23 UNK        -0.0205 
     16 S16        -2.9187  -20.5502  -41.2465 S.3       23 UNK        -0.2404 
     17 C17        -3.2983  -21.4400  -42.7965 C.3       23 UNK        -0.0398 
     18 CA         -2.3024  -21.0918  -43.9448 C.3       11 UNK         0.1400 
     19 N          -0.9115  -21.4072  -43.5986 N.am      11 UNK        -0.5000 
     20 C          -0.4091  -22.6108  -43.2969 C.2       10 UNK         0.5000 
     21 O          -1.0426  -23.6625  -43.4070 O.2       10 UNK        -0.5000 
     22 CA          1.0162  -22.6403  -42.7076 C.3       10 UNK         0.1400 
     23 CB          1.8850  -23.7801  -43.2653 C.3       10 UNK        -0.1800 
     24 N           1.7336  -21.3727  -42.8720 N.am      10 UNK        -0.5000 
     25 C           2.0066  -20.5173  -41.8785 C.2       9 UNK         0.5000 
     26 O           1.6113  -20.6599  -40.7208 O.2       9 UNK        -0.5000 
     27 CA          2.8912  -19.3073  -42.2256 C.3       9 UNK         0.1400 
     28 CB          4.3661  -19.7291  -42.3154 C.3       9 UNK        -0.1800 
     29 N           2.5036  -18.6316  -43.4628 N.am      9 UNK        -0.5000 
     30 C           1.3910  -17.8998  -43.6137 C.2       8 UNK         0.5000 
     31 O           0.5434  -17.7598  -42.7327 O.2       8 UNK        -0.5000 
     32 CA          1.1995  -17.2078  -44.9761 C.3       8 UNK         0.1400 
     33 CB          2.0671  -15.9435  -45.0812 C.3       8 UNK        -0.1800 
     34 N           1.5103  -18.0986  -46.0904 N.am      8 UNK        -0.5000 
     35 C           0.7368  -19.1255  -46.4632 C.2       7 UNK         0.5000 
     36 O          -0.3514  -19.3717  -45.9513 O.2       7 UNK        -0.5000 
     37 CA          1.2869  -20.0485  -47.5669 C.3       7 UNK         0.1400 
     38 CB          0.9203  -19.5331  -48.9663 C.3       7 UNK        -0.1800 
     39 N           2.7379  -20.2097  -47.4933 N.am      7 UNK        -0.5000 
     40 C           3.3942  -20.8132  -46.4938 C.2       6 UNK         0.5000 
     41 O           2.8455  -21.3360  -45.5252 O.2       6 UNK        -0.5000 
     42 CA          4.9302  -20.7737  -46.5725 C.3       6 UNK         0.1400 
     43 CB          5.4538  -21.8811  -47.4990 C.3       6 UNK        -0.1800 
     44 N           5.4268  -19.4737  -47.0312 N.am      6 UNK        -0.5000 
     45 C           5.3064  -18.3356  -46.3324 C.2       5 UNK         0.5000 
     46 O           4.7967  -18.2734  -45.2149 O.2       5 UNK        -0.5000 
     47 CA          5.7917  -17.0447  -47.0153 C.3       5 UNK         0.1400 
     48 CB          7.3040  -16.8630  -46.8178 C.3       5 UNK        -0.1800 
     49 N           5.4755  -16.9946  -48.4454 N.am      5 UNK        -0.5000 
     50 C           4.2340  -16.9571  -48.9461 C.2       4 UNK         0.5000 
     51 O           3.2139  -16.9999  -48.2550 O.2       4 UNK        -0.5000 
     52 CA          4.1163  -16.9045  -50.4740 C.3       4 UNK         0.1400 
     53 CB          4.1858  -18.3178  -51.0769 C.3       4 UNK        -0.1800 
     54 N           2.8469  -16.2847  -50.8424 N.am      4 UNK        -0.5000 
     55 C           2.6662  -15.4521  -51.8745 C.2       3 UNK         0.5000 
     56 O           3.5680  -15.1344  -52.6517 O.2       3 UNK        -0.5000 
     57 CA          1.2517  -14.8786  -52.1026 C.3       3 UNK         0.1400 
     58 CB          0.6804  -15.3673  -53.4432 C.3       3 UNK        -0.1800 
     59 N           0.2991  -15.1937  -51.0325 N.am      3 UNK        -0.5000 
     60 C           0.2161  -14.5162  -49.8809 C.2       2 UNK         0.5000 
     61 O           0.9695  -13.5853  -49.5839 O.2       2 UNK        -0.5000 
     62 CA         -0.8874  -14.9578  -48.9067 C.3       2 UNK         0.1400 
     63 CB         -0.5569  -16.3174  -48.2813 C.3       2 UNK        -0.1800 
     64 N          -1.0259  -13.9658  -47.8473 N.am      2 UNK        -0.5000 
     65 C          -2.1684  -13.5676  -47.2832 C.2       1 UNK         0.5000 
     66 O          -3.2692  -14.0186  -47.6010 O.2       1 UNK        -0.5000 
     67 C          -2.7369  -21.6514  -45.3233 C.2       11 UNK         0.5000 
     68 O          -1.9020  -22.0925  -46.1170 O.2       11 UNK        -0.5000 
     69 N          -4.0502  -21.5995  -45.6013 N.am      12 UNK        -0.5000 
     70 CA         -4.6803  -21.8934  -46.8922 C.3       12 UNK         0.1400 
     71 CB         -6.1960  -21.6809  -46.7754 C.3       12 UNK        -0.1800 
     72 C          -4.3800  -23.2853  -47.4804 C.2       12 UNK         0.5000 
     73 O          -4.3993  -23.4337  -48.7028 O.2       12 UNK        -0.5000 
     74 N          -4.0801  -24.2661  -46.6183 N.am      13 UNK        -0.5000 
     75 CA         -3.6375  -25.6061  -47.0048 C.3       13 UNK         0.1400 
     76 CB         -3.6008  -26.5092  -45.7629 C.3       13 UNK        -0.1800 
     77 C          -2.2680  -25.5874  -47.7092 C.2       13 UNK         0.5000 
     78 O          -2.1131  -26.2159  -48.7566 O.2       13 UNK        -0.5000 
     79 N          -1.3187  -24.8176  -47.1580 N.am      14 UNK        -0.5000 
     80 CA          0.0020  -24.5809  -47.7465 C.3       14 UNK         0.1400 
     81 CB          0.9544  -24.0579  -46.6677 C.3       14 UNK        -0.1800 
     82 C          -0.0520  -23.6222  -48.9488 C.2       14 UNK         0.5000 
     83 O           0.8262  -23.6778  -49.8087 O.2       14 UNK        -0.5000 
     84 N          -1.1159  -22.8106  -49.0242 N.am      15 UNK        -0.5000 
     85 CA         -1.4818  -21.9996  -50.1862 C.3       15 UNK         0.1400 
     86 CB         -2.4134  -20.8580  -49.7407 C.3       15 UNK        -0.1800 
     87 C          -2.1314  -22.8170  -51.3249 C.2       15 UNK         0.5000 
     88 O          -2.6154  -22.2093  -52.2806 O.2       15 UNK        -0.5000 
     89 N          -2.1561  -24.1537  -51.1996 N.am      16 UNK        -0.5000 
     90 CA         -2.6994  -25.1400  -52.1362 C.3       16 UNK         0.1400 
     91 CB         -1.9160  -25.1332  -53.4648 C.3       16 UNK        -0.1800 
     92 C          -4.2227  -24.9987  -52.3105 C.2       16 UNK         0.5000 
     93 O          -4.7188  -24.9316  -53.4357 O.2       16 UNK        -0.5000 
     94 N          -4.9239  -24.9452  -51.1686 N.am      17 UNK        -0.5000 
     95 CA         -6.3663  -24.7309  -51.0162 C.3       17 UNK         0.1400 
     96 CB         -7.1807  -25.8717  -51.6626 C.3       17 UNK        -0.1800 
     97 C          -6.7803  -23.3252  -51.4922 C.2       17 UNK         0.5000 
     98 O          -7.7528  -23.1793  -52.2349 O.2       17 UNK        -0.5000 
     99 N          -6.0093  -22.3224  -51.0445 N.am      18 UNK        -0.5000 
    100 CA        -6.1372  -20.8969  -51.3654 C.3       18 UNK         0.1400 
    101 CB        -7.4140  -20.3076  -50.7297 C.3       18 UNK        -0.1800 
    102 C         -6.0129  -20.6096  -52.8781 C.2       18 UNK         0.5000 
    103 O         -6.8577  -19.9230  -53.4569 O.2       18 UNK        -0.5000 
    104 N         -4.9538  -21.1520  -53.4917 N.am      19 UNK        -0.5000 
    105 CA        -4.5351  -20.8290  -54.8538 C.3       19 UNK         0.1400 
    106 CB        -3.9604  -22.0822  -55.5294 C.3       19 UNK        -0.1800 
    107 C         -3.4955  -19.6960  -54.8307 C.2       19 UNK         0.5000 
    108 O         -3.5938  -18.7629  -55.6291 O.2       19 UNK        -0.5000 
    109 N         -2.5400  -19.7656  -53.8908 N.am      20 UNK        -0.5000 
    110 CA        -1.5069  -18.7539  -53.6475 C.3       20 UNK         0.1400 
    111 CB        -0.2966  -19.4266  -52.9748 C.3       20 UNK        -0.1800 
    112 C         -2.0672  -17.5769  -52.8211 C.2       20 UNK         0.5000 
    113 O         -1.5899  -17.3059  -51.7159 O.2       20 UNK        -0.5000 
    114 N         -3.0915  -16.9162  -53.3765 N.am      21 UNK        -0.5000 
    115 CA        -3.9653  -15.9329  -52.7348 C.3       21 UNK         0.1400 
    116 CB        -3.2041  -14.6356  -52.3844 C.3       21 UNK        -0.1800 
    117 C         -4.7275  -16.5861  -51.5640 C.2       21 UNK         0.5000 
    118 O         -5.4037  -17.5875  -51.7929 O.2       21 UNK        -0.5000 
    119 N         -4.6189  -16.0363  -50.3487 N.am      22 UNK        -0.5000 
    120 CA        -5.2898  -16.5205  -49.1275 C.3       22 UNK         0.1400 
    121 C         -6.8333  -16.2863  -49.0852 C.2       22 UNK         0.5000 
    122 N         -7.4122  -15.4961  -49.9814 N.am      22 UNK        -0.7600 
    123 O         -7.5184  -16.7966  -48.2035 O.2       22 UNK        -0.5000 
    124 C124       -4.8801  -17.9784  -48.7279 C.3       23 UNK        -0.0398 
    125 S125       -3.8143  -18.0417  -47.2534 S.3       23 UNK        -0.2404 
    126 C126       -4.9884  -17.5350  -45.9592 C.3       23 UNK        -0.0205 
    127 H127        0.3935   -9.3687  -46.7182 H         1 UNK         0.0600 
    128 H128        1.6739  -10.3065  -47.4928 H         1 UNK         0.0600 
    129 H129        1.7010  -10.0482  -45.7452 H         1 UNK         0.0600 
    130 H130       -1.4521  -10.5030  -46.5743 H         1 UNK         0.3000 
    131 H131       -3.0226  -11.8870  -46.3714 H         1 UNK         0.0600 
    132 H132       -3.2162  -13.3819  -44.5934 H         1 UNK         0.0800 
    133 H133       -2.1233  -12.1519  -44.0515 H         1 UNK         0.0800 
    134 H134       -2.3722  -14.2799  -42.2597 H         1 UNK         0.0800 
    135 H135       -1.0409  -15.4044  -42.1642 H         1 UNK         0.0800 
    136 H136       -3.2384  -15.6371  -45.1778 H         1 UNK         0.1150 
    137 H137       -5.2480  -19.1319  -43.7674 H         1 UNK         0.1150 
    138 H138       -2.5384  -17.0527  -41.1829 H         1 UNK         0.1150 
    139 H139       -4.1583  -18.7244  -40.2898 H         1 UNK         0.0800 
    140 H140       -5.1665  -19.6584  -41.3609 H         1 UNK         0.0800 
    141 H141       -4.3296  -21.2137  -43.0632 H         1 UNK         0.0800 
    142 H142       -3.2839  -22.5102  -42.5868 H         1 UNK         0.0800 
    143 H143       -2.3149  -20.0091  -44.0749 H         1 UNK         0.0600 
    144 H144       -0.2962  -20.6098  -43.5285 H         1 UNK         0.3000 
    145 H145        0.8725  -22.8529  -41.6466 H         1 UNK         0.0600 
    146 H146        2.7777  -23.9162  -42.6549 H         1 UNK         0.0600 
    147 H147        1.3526  -24.7317  -43.2716 H         1 UNK         0.0600 
    148 H148        2.2177  -23.5733  -44.2801 H         1 UNK         0.0600 
    149 H149        2.1048  -21.1925  -43.8031 H         1 UNK         0.3000 
    150 H150        2.7996  -18.5874  -41.4095 H         1 UNK         0.0600 
    151 H151        4.6867  -20.2328  -41.4026 H         1 UNK         0.0600 
    152 H152        5.0151  -18.8642  -42.4540 H         1 UNK         0.0600 
    153 H153        4.5387  -20.4129  -43.1474 H         1 UNK         0.0600 
    154 H154        3.1801  -18.6535  -44.2205 H         1 UNK         0.3000 
    155 H155        0.1518  -16.9102  -45.0566 H         1 UNK         0.0600 
    156 H156        3.1312  -16.1765  -45.0668 H         1 UNK         0.0600 
    157 H157        1.8705  -15.2646  -44.2509 H         1 UNK         0.0600 
    158 H158        1.8562  -15.3979  -46.0014 H         1 UNK         0.0600 
    159 H159        2.3571  -17.9074  -46.6132 H         1 UNK         0.3000 
    160 H160        0.8264  -21.0288  -47.4324 H         1 UNK         0.0600 
    161 H161        1.2326  -20.2351  -49.7391 H         1 UNK         0.0600 
    162 H162        1.3839  -18.5723  -49.1821 H         1 UNK         0.0600 
    163 H163       -0.1542  -19.3954  -49.0620 H         1 UNK         0.0600 
    164 H164        3.2772  -19.7698  -48.2225 H         1 UNK         0.3000 
    165 H165        5.3210  -20.9544  -45.5689 H         1 UNK         0.0600 
    166 H166        6.5436  -21.9096  -47.5020 H         1 UNK         0.0600 
    167 H167        5.1048  -22.8610  -47.1702 H         1 UNK         0.0600 
    168 H168        5.1184  -21.7415  -48.5275 H         1 UNK         0.0600 
    169 H169        5.8619  -19.4406  -47.9411 H         1 UNK         0.3000 
    170 H170        5.2836  -16.2072  -46.5322 H         1 UNK         0.0600 
    171 H171        7.5636  -16.8792  -45.7584 H         1 UNK         0.0600 
    172 H172        7.8738  -17.6537  -47.3075 H         1 UNK         0.0600 
    173 H173        7.6420  -15.9073  -47.2188 H         1 UNK         0.0600 
    174 H174        6.2618  -16.9656  -49.0784 H         1 UNK         0.3000 
    175 H175        4.9489  -16.3082  -50.8533 H         1 UNK         0.0600 
    176 H176        3.3674  -18.9474  -50.7268 H         1 UNK         0.0600 
    177 H177        4.1342  -18.2821  -52.1652 H         1 UNK         0.0600 
    178 H178        5.1205  -18.8142  -50.8136 H         1 UNK         0.0600 
    179 H179        2.0873  -16.4425  -50.1945 H         1 UNK         0.3000 
    180 H180        1.3541  -13.7932  -52.1667 H         1 UNK         0.0600 
    181 H181        0.6322  -16.4542  -53.4856 H         1 UNK         0.0600 
    182 H182        1.3034  -15.0382  -54.2757 H         1 UNK         0.0600 
    183 H183       -0.3217  -14.9751  -53.6157 H         1 UNK         0.0600 
    184 H184       -0.3435  -15.9636  -51.2089 H         1 UNK         0.3000 
    185 H185       -1.8241  -15.0386  -49.4587 H         1 UNK         0.0600 
    186 H186       -1.2265  -16.5554  -47.4549 H         1 UNK         0.0600 
    187 H187       -0.6588  -17.1113  -49.0198 H         1 UNK         0.0600 
    188 H188        0.4637  -16.3390  -47.9005 H         1 UNK         0.0600 
    189 H189       -0.1594  -13.5316  -47.5368 H         1 UNK         0.3000 
    190 H190       -4.6721  -21.2305  -44.8993 H         1 UNK         0.3000 
    191 H191       -4.2990  -21.1550  -47.5960 H         1 UNK         0.0600 
    192 H192       -6.6947  -21.8856  -47.7238 H         1 UNK         0.0600 
    193 H193       -6.4313  -20.6516  -46.5044 H         1 UNK         0.0600 
    194 H194       -6.6375  -22.3376  -46.0249 H         1 UNK         0.0600 
    195 H195       -4.0809  -24.0523  -45.6321 H         1 UNK         0.3000 
    196 H196       -4.3686  -26.0164  -47.7047 H         1 UNK         0.0600 
    197 H197       -3.2816  -27.5190  -46.0241 H         1 UNK         0.0600 
    198 H198       -4.5868  -26.5892  -45.3050 H         1 UNK         0.0600 
    199 H199       -2.9099  -26.1307  -45.0080 H         1 UNK         0.0600 
    200 H200       -1.5495  -24.2585  -46.3451 H         1 UNK         0.3000 
    201 H201        0.3955  -25.5335  -48.1077 H         1 UNK         0.0600 
    202 H202        0.5912  -23.1337  -46.2177 H         1 UNK         0.0600 
    203 H203        1.9456  -23.8572  -47.0763 H         1 UNK         0.0600 
    204 H204        1.0706  -24.7974  -45.8763 H         1 UNK         0.0600 
    205 H205       -1.7507  -22.7922  -48.2358 H         1 UNK         0.3000 
    206 H206       -0.5660  -21.5640  -50.5845 H         1 UNK         0.0600 
    207 H207       -2.1332  -20.4530  -48.7680 H         1 UNK         0.0600 
    208 H208       -2.3942  -20.0358  -50.4565 H         1 UNK         0.0600 
    209 H209       -3.4462  -21.1908  -49.6723 H         1 UNK         0.0600 
    210 H210       -1.7776  -24.5455  -50.3480 H         1 UNK         0.3000 
    211 H211       -2.5403  -26.1158  -51.6747 H         1 UNK         0.0600 
    212 H212       -0.8530  -25.3025  -53.2933 H         1 UNK         0.0600 
    213 H213       -2.0203  -24.1892  -53.9967 H         1 UNK         0.0600 
    214 H214       -2.2671  -25.9233  -54.1295 H         1 UNK         0.0600 
    215 H215       -4.4021  -24.9183  -50.3009 H         1 UNK         0.3000 
    216 H216       -6.5662  -24.7589  -49.9440 H         1 UNK         0.0600 
    217 H217       -8.2403  -25.7742  -51.4241 H         1 UNK         0.0600 
    218 H218       -6.8542  -26.8451  -51.2966 H         1 UNK         0.0600 
    219 H219       -7.0923  -25.8742  -52.7491 H         1 UNK         0.0600 
    220 H220       -5.2491  -22.5754  -50.4234 H         1 UNK         0.3000 
    221 H221       -5.2885  -20.3961  -50.8997 H         1 UNK         0.0600 
    222 H222       -8.3188  -20.7347  -51.1626 H         1 UNK         0.0600 
    223 H223       -7.4386  -20.4854  -49.6551 H         1 UNK         0.0600 
    224 H224       -7.4595  -19.2279  -50.8778 H         1 UNK         0.0600 
    225 H225       -4.2989  -21.7097  -52.9504 H         1 UNK         0.3000 
    226 H226       -5.3925  -20.4954  -55.4420 H         1 UNK         0.0600 
    227 H227       -3.7010  -21.8794  -56.5690 H         1 UNK         0.0600 
    228 H228       -3.0579  -22.4309  -55.0292 H         1 UNK         0.0600 
    229 H229       -4.6823  -22.8992  -55.5250 H         1 UNK         0.0600 
    230 H230       -2.5373  -20.5704  -53.2710 H         1 UNK         0.3000 
    231 H231       -1.1712  -18.3521  -54.6058 H         1 UNK         0.0600 
    232 H232        0.0608  -20.2758  -53.5574 H         1 UNK         0.0600 
    233 H233       -0.5415  -19.7827  -51.9767 H         1 UNK         0.0600 
    234 H234        0.5357  -18.7303  -52.8714 H         1 UNK         0.0600 
    235 H235       -3.4174  -17.2651  -54.2720 H         1 UNK         0.3000 
    236 H236       -4.7235  -15.6729  -53.4747 H         1 UNK         0.0600 
    237 H237       -2.7458  -14.2052  -53.2746 H         1 UNK         0.0600 
    238 H238       -3.8773  -13.8802  -51.9774 H         1 UNK         0.0600 
    239 H239       -2.4121  -14.8013  -51.6588 H         1 UNK         0.0600 
    240 H240       -4.0509  -15.2103  -50.2325 H         1 UNK         0.3000 
    241 H241       -4.9266  -15.8425  -48.3579 H         1 UNK         0.0600 
    242 H242       -6.8704  -15.0532  -50.7049 H         1 UNK         0.3800 
    243 H243       -8.4073  -15.3429  -49.9348 H         1 UNK         0.3800 
    244 H244       -5.7407  -18.6259  -48.5527 H         1 UNK         0.0800 
    245 H245       -4.3253  -18.4661  -49.5288 H         1 UNK         0.0800 
    246 H246       -5.4388  -16.5757  -46.2147 H         1 UNK         0.0800 
    247 H247       -5.8055  -18.2561  -45.9112 H         1 UNK         0.0800 
@<TRIPOS>BOND
     1    1    2 1    
     2    1  127 1    
     3    1  128 1    
     4    1  129 1    
     5    2    3 2    
     6    2    4 am   BACKBONE|DICT|INTERRES
     7    4    5 1    
     8    4  130 1    
     9    5    6 1    
    10    5   65 1    
    11    5  131 1    
    12    6    7 1    
    13    6  132 1    
    14    6  133 1    
    15    7    8 1    
    16    8    9 1    
    17    8  134 1    
    18    8  135 1    
    19    9   10 ar   
    20    9   14 ar   
    21   10   11 ar   
    22   10  136 1    
    23   11   12 ar   
    24   11  126 1    
    25   12   13 ar   
    26   12  137 1    
    27   13   14 ar   
    28   13   15 1    
    29   14  138 1    
    30   15   16 1    
    31   15  139 1    
    32   15  140 1    
    33   16   17 1    
    34   17   18 1    
    35   17  141 1    
    36   17  142 1    
    37   18   19 1    
    38   18   67 1    
    39   18  143 1    
    40   19   20 am   BACKBONE|DICT|INTERRES
    41   19  144 1    
    42   20   21 2    
    43   20   22 1    
    44   22   23 1    
    45   22   24 1    
    46   22  145 1    
    47   23  146 1    
    48   23  147 1    
    49   23  148 1    
    50   24   25 am   BACKBONE|DICT|INTERRES
    51   24  149 1    
    52   25   26 2    
    53   25   27 1    
    54   27   28 1    
    55   27   29 1    
    56   27  150 1    
    57   28  151 1    
    58   28  152 1    
    59   28  153 1    
    60   29   30 am   BACKBONE|DICT|INTERRES
    61   29  154 1    
    62   30   31 2    
    63   30   32 1    
    64   32   33 1    
    65   32   34 1    
    66   32  155 1    
    67   33  156 1    
    68   33  157 1    
    69   33  158 1    
    70   34   35 am   BACKBONE|DICT|INTERRES
    71   34  159 1    
    72   35   36 2    
    73   35   37 1    
    74   37   38 1    
    75   37   39 1    
    76   37  160 1    
    77   38  161 1    
    78   38  162 1    
    79   38  163 1    
    80   39   40 am   BACKBONE|DICT|INTERRES
    81   39  164 1    
    82   40   41 2    
    83   40   42 1    
    84   42   43 1    
    85   42   44 1    
    86   42  165 1    
    87   43  166 1    
    88   43  167 1    
    89   43  168 1    
    90   44   45 am   BACKBONE|DICT|INTERRES
    91   44  169 1    
    92   45   46 2    
    93   45   47 1    
    94   47   48 1    
    95   47   49 1    
    96   47  170 1    
    97   48  171 1    
    98   48  172 1    
    99   48  173 1    
   100   49   50 am   BACKBONE|DICT|INTERRES
   101   49  174 1    
   102   50   51 2    
   103   50   52 1    
   104   52   53 1    
   105   52   54 1    
   106   52  175 1    
   107   53  176 1    
   108   53  177 1    
   109   53  178 1    
   110   54   55 am   BACKBONE|DICT|INTERRES
   111   54  179 1    
   112   55   56 2    
   113   55   57 1    
   114   57   58 1    
   115   57   59 1    
   116   57  180 1    
   117   58  181 1    
   118   58  182 1    
   119   58  183 1    
   120   59   60 am   BACKBONE|DICT|INTERRES
   121   59  184 1    
   122   60   61 2    
   123   60   62 1    
   124   62   63 1    
   125   62   64 1    
   126   62  185 1    
   127   63  186 1    
   128   63  187 1    
   129   63  188 1    
   130   64   65 am   BACKBONE|DICT|INTERRES
   131   64  189 1    
   132   65   66 2    
   133   67   68 2    
   134   67   69 am   BACKBONE|DICT|INTERRES
   135   69   70 1    
   136   69  190 1    
   137   70   71 1    
   138   70   72 1    
   139   70  191 1    
   140   71  192 1    
   141   71  193 1    
   142   71  194 1    
   143   72   73 2    
   144   72   74 am   BACKBONE|DICT|INTERRES
   145   74   75 1    
   146   74  195 1    
   147   75   76 1    
   148   75   77 1    
   149   75  196 1    
   150   76  197 1    
   151   76  198 1    
   152   76  199 1    
   153   77   78 2    
   154   77   79 am   BACKBONE|DICT|INTERRES
   155   79   80 1    
   156   79  200 1    
   157   80   81 1    
   158   80   82 1    
   159   80  201 1    
   160   81  202 1    
   161   81  203 1    
   162   81  204 1    
   163   82   83 2    
   164   82   84 am   BACKBONE|DICT|INTERRES
   165   84   85 1    
   166   84  205 1    
   167   85   86 1    
   168   85   87 1    
   169   85  206 1    
   170   86  207 1    
   171   86  208 1    
   172   86  209 1    
   173   87   88 2    
   174   87   89 am   BACKBONE|DICT|INTERRES
   175   89   90 1    
   176   89  210 1    
   177   90   91 1    
   178   90   92 1    
   179   90  211 1    
   180   91  212 1    
   181   91  213 1    
   182   91  214 1    
   183   92   93 2    
   184   92   94 am   BACKBONE|DICT|INTERRES
   185   94   95 1    
   186   94  215 1    
   187   95   96 1    
   188   95   97 1    
   189   95  216 1    
   190   96  217 1    
   191   96  218 1    
   192   96  219 1    
   193   97   98 2    
   194   97   99 am   BACKBONE|DICT|INTERRES
   195   99  100 1    
   196   99  220 1    
   197  100  101 1    
   198  100  102 1    
   199  100  221 1    
   200  101  222 1    
   201  101  223 1    
   202  101  224 1    
   203  102  103 2    
   204  102  104 am   BACKBONE|DICT|INTERRES
   205  104  105 1    
   206  104  225 1    
   207  105  106 1    
   208  105  107 1    
   209  105  226 1    
   210  106  227 1    
   211  106  228 1    
   212  106  229 1    
   213  107  108 2    
   214  107  109 am   BACKBONE|DICT|INTERRES
   215  109  110 1    
   216  109  230 1    
   217  110  111 1    
   218  110  112 1    
   219  110  231 1    
   220  111  232 1    
   221  111  233 1    
   222  111  234 1    
   223  112  113 2    
   224  112  114 am   BACKBONE|DICT|INTERRES
   225  114  115 1    
   226  114  235 1    
   227  115  116 1    
   228  115  117 1    
   229  115  236 1    
   230  116  237 1    
   231  116  238 1    
   232  116  239 1    
   233  117  118 2    
   234  117  119 am   BACKBONE|DICT|INTERRES
   235  119  120 1    
   236  119  240 1    
   237  120  121 1    
   238  120  124 1    
   239  120  241 1    
   240  121  122 am   BACKBONE|DICT|INTERRES
   241  121  123 2    
   242  122  242 1    
   243  122  243 1    
   244  124  125 1    
   245  124  244 1    
   246  124  245 1    
   247  125  126 1    
   248  126  246 1    
   249  126  247 1    
@<TRIPOS>SUBSTRUCTURE
     1 UNK         1 GROUP             0       ****    0 ROOT    
