@<TRIPOS>MOLECULE
3R540
247   249    1
SMALL
USER_CHARGES


@<TRIPOS>ATOM
      1 CA         -0.5740  -15.2929  -52.5311 C.3       0 UNK        -0.1800 
      2 C          -0.4054  -14.5419  -51.2188 C.2       0 UNK         0.5000 
      3 O          -1.0778  -13.5336  -51.0002 O.2       0 UNK        -0.5000 
      4 N           0.5006  -15.0164  -50.3549 N.am      1 UNK        -0.5000 
      5 CA          0.7778  -14.4323  -49.0384 C.3       1 UNK         0.1400 
      6 C6          2.1046  -14.9491  -48.4305 C.3       23 UNK        -0.0398 
      7 S7          3.5437  -14.4262  -49.4243 S.3       23 UNK        -0.2404 
      8 C8          4.6793  -15.8442  -49.2416 C.3       23 UNK        -0.0205 
      9 C9          4.1829  -17.1501  -49.8595 C.ar      23 UNK        -0.0193 
     10 C10         3.4340  -17.1686  -51.0435 C.ar      23 UNK        -0.1150 
     11 C11         2.9910  -18.3782  -51.5854 C.ar      23 UNK        -0.0193 
     12 C12         3.3238  -19.5779  -50.9542 C.ar      23 UNK        -0.1150 
     13 C13         4.0707  -19.5774  -49.7743 C.ar      23 UNK        -0.0193 
     14 C14         4.5032  -18.3616  -49.2370 C.ar      23 UNK        -0.1150 
     15 C15         4.3771  -20.8938  -49.0708 C.3       23 UNK        -0.0205 
     16 S16         3.5740  -21.0239  -47.4377 S.3       23 UNK        -0.2404 
     17 C17         1.8422  -20.5778  -47.8026 C.3       23 UNK        -0.0398 
     18 CA          0.8069  -21.6206  -47.3236 C.3       11 UNK         0.1400 
     19 N           0.8252  -21.8524  -45.8741 N.am      11 UNK        -0.5000 
     20 C           0.0863  -22.7820  -45.2477 C.2       10 UNK         0.5000 
     21 O          -0.6255  -23.5985  -45.8339 O.2       10 UNK        -0.5000 
     22 CA          0.0832  -22.7567  -43.7078 C.3       10 UNK         0.1400 
     23 CB          1.2978  -23.4989  -43.1313 C.3       10 UNK        -0.1800 
     24 N           0.0235  -21.3944  -43.1759 N.am      10 UNK        -0.5000 
     25 C          -1.0233  -20.5718  -43.3394 C.2       9 UNK         0.5000 
     26 O          -2.0701  -20.9034  -43.8943 O.2       9 UNK        -0.5000 
     27 CA         -0.8605  -19.1229  -42.8486 C.3       9 UNK         0.1400 
     28 CB         -1.1365  -19.0245  -41.3410 C.3       9 UNK        -0.1800 
     29 N           0.4640  -18.5789  -43.1443 N.am      9 UNK        -0.5000 
     30 C           0.9561  -18.3845  -44.3757 C.2       8 UNK         0.5000 
     31 O           0.3078  -18.5733  -45.4027 O.2       8 UNK        -0.5000 
     32 CA          2.4371  -17.9750  -44.4807 C.3       8 UNK         0.1400 
     33 CB          2.6040  -16.4513  -44.4266 C.3       8 UNK        -0.1800 
     34 N           3.2601  -18.5914  -43.4405 N.am      8 UNK        -0.5000 
     35 C           3.5298  -19.9022  -43.3754 C.2       7 UNK         0.5000 
     36 O           3.1080  -20.7258  -44.1848 O.2       7 UNK        -0.5000 
     37 CA          4.3647  -20.3726  -42.1720 C.3       7 UNK         0.1400 
     38 CB          5.8507  -20.0372  -42.3704 C.3       7 UNK        -0.1800 
     39 N           3.8931  -19.7875  -40.9164 N.am      7 UNK        -0.5000 
     40 C           2.7071  -20.0655  -40.3575 C.2       6 UNK         0.5000 
     41 O           1.9097  -20.8824  -40.8188 O.2       6 UNK        -0.5000 
     42 CA          2.3312  -19.2643  -39.0958 C.3       6 UNK         0.1400 
     43 CB          2.8805  -19.9527  -37.8374 C.3       6 UNK        -0.1800 
     44 N           2.7784  -17.8661  -39.1197 N.am      6 UNK        -0.5000 
     45 C           2.4070  -16.9638  -40.0366 C.2       5 UNK         0.5000 
     46 O           1.6977  -17.2304  -41.0101 O.2       5 UNK        -0.5000 
     47 CA          2.9317  -15.5335  -39.8610 C.3       5 UNK         0.1400 
     48 CB          4.3871  -15.4161  -40.3439 C.3       5 UNK        -0.1800 
     49 N           2.0834  -14.6553  -40.6555 N.am      5 UNK        -0.5000 
     50 C           1.7668  -13.3861  -40.3848 C.2       4 UNK         0.5000 
     51 O           2.2235  -12.7563  -39.4299 O.2       4 UNK        -0.5000 
     52 CA          0.7703  -12.7019  -41.3427 C.3       4 UNK         0.1400 
     53 CB          1.5105  -11.7578  -42.3028 C.3       4 UNK        -0.1800 
     54 N          -0.0093  -13.6536  -42.1380 N.am      4 UNK        -0.5000 
     55 C          -1.0573  -14.3634  -41.7047 C.2       3 UNK         0.5000 
     56 O          -1.5103  -14.2641  -40.5634 O.2       3 UNK        -0.5000 
     57 CA         -1.7009  -15.3385  -42.7212 C.3       3 UNK         0.1400 
     58 CB         -2.9791  -16.0028  -42.1763 C.3       3 UNK        -0.1800 
     59 N          -2.0219  -14.7236  -44.0140 N.am      3 UNK        -0.5000 
     60 C          -1.1459  -14.3507  -44.9547 C.2       2 UNK         0.5000 
     61 O           0.0759  -14.4516  -44.8230 O.2       2 UNK        -0.5000 
     62 CA         -1.7359  -13.7046  -46.2214 C.3       2 UNK         0.1400 
     63 CB         -2.2138  -12.2744  -45.9212 C.3       2 UNK        -0.1800 
     64 N          -0.7458  -13.6450  -47.2953 N.am      2 UNK        -0.5000 
     65 C          -0.3963  -14.6785  -48.0701 C.2       1 UNK         0.5000 
     66 O          -0.9427  -15.7829  -48.0342 O.2       1 UNK        -0.5000 
     67 C          -0.5967  -21.2096  -47.8114 C.2       11 UNK         0.5000 
     68 O          -1.0957  -21.7978  -48.7690 O.2       11 UNK        -0.5000 
     69 N          -1.2173  -20.2350  -47.1298 N.am      12 UNK        -0.5000 
     70 CA         -2.5623  -19.7368  -47.4210 C.3       12 UNK         0.1400 
     71 CB         -2.8876  -18.5452  -46.5074 C.3       12 UNK        -0.1800 
     72 C          -3.6426  -20.8247  -47.2993 C.2       12 UNK         0.5000 
     73 O          -4.5280  -20.8904  -48.1516 O.2       12 UNK        -0.5000 
     74 N          -3.5313  -21.6775  -46.2715 N.am      13 UNK        -0.5000 
     75 CA         -4.3925  -22.8393  -46.0588 C.3       13 UNK         0.1400 
     76 CB         -4.1093  -23.4502  -44.6782 C.3       13 UNK        -0.1800 
     77 C          -4.2430  -23.8933  -47.1702 C.2       13 UNK         0.5000 
     78 O          -5.2537  -24.3611  -47.6948 O.2       13 UNK        -0.5000 
     79 N          -2.9947  -24.2160  -47.5401 N.am      14 UNK        -0.5000 
     80 CA         -2.6624  -25.1493  -48.6212 C.3       14 UNK         0.1400 
     81 CB         -1.1517  -25.4281  -48.6103 C.3       14 UNK        -0.1800 
     82 C          -3.1164  -24.6529  -50.0080 C.2       14 UNK         0.5000 
     83 O          -3.5972  -25.4487  -50.8150 O.2       14 UNK        -0.5000 
     84 N          -2.9880  -23.3410  -50.2411 N.am      15 UNK        -0.5000 
     85 CA         -3.4397  -22.6430  -51.4449 C.3       15 UNK         0.1400 
     86 CB         -2.7158  -21.2895  -51.5132 C.3       15 UNK        -0.1800 
     87 C          -4.9651  -22.4246  -51.4970 C.2       15 UNK         0.5000 
     88 O          -5.4672  -21.9776  -52.5295 O.2       15 UNK        -0.5000 
     89 N          -5.6667  -22.6891  -50.3840 N.am      16 UNK        -0.5000 
     90 CA         -7.0970  -22.4639  -50.1531 C.3       16 UNK         0.1400 
     91 CB         -7.9423  -23.4164  -51.0242 C.3       16 UNK        -0.1800 
     92 C          -7.4815  -20.9810  -50.3326 C.2       16 UNK         0.5000 
     93 O          -8.4269  -20.6681  -51.0548 O.2       16 UNK        -0.5000 
     94 N          -6.6875  -20.0859  -49.7260 N.am      17 UNK        -0.5000 
     95 CA         -6.7389  -18.6241  -49.8702 C.3       17 UNK         0.1400 
     96 CB         -8.0290  -18.0523  -49.2468 C.3       17 UNK        -0.1800 
     97 C          -6.5147  -18.1695  -51.3308 C.2       17 UNK         0.5000 
     98 O          -7.1317  -17.2074  -51.7892 O.2       17 UNK        -0.5000 
     99 N          -5.6428  -18.9099  -52.0301 N.am      18 UNK        -0.5000 
    100 CA        -5.2798  -18.8127  -53.4465 C.3       18 UNK         0.1400 
    101 CB        -4.7309  -17.4170  -53.8059 C.3       18 UNK        -0.1800 
    102 C         -6.3697  -19.2977  -54.4254 C.2       18 UNK         0.5000 
    103 O         -6.1597  -19.1979  -55.6347 O.2       18 UNK        -0.5000 
    104 N         -7.4775  -19.8721  -53.9289 N.am      19 UNK        -0.5000 
    105 CA        -8.5399  -20.4512  -54.7594 C.3       19 UNK         0.1400 
    106 CB        -9.7963  -20.6960  -53.9116 C.3       19 UNK        -0.1800 
    107 C         -8.1119  -21.7502  -55.4702 C.2       19 UNK         0.5000 
    108 O         -8.6371  -22.0481  -56.5434 O.2       19 UNK        -0.5000 
    109 N         -7.1516  -22.4794  -54.8845 N.am      20 UNK        -0.5000 
    110 CA        -6.5197  -23.6644  -55.4713 C.3       20 UNK         0.1400 
    111 CB        -6.3748  -24.7420  -54.3819 C.3       20 UNK        -0.1800 
    112 C         -5.1581  -23.3262  -56.1171 C.2       20 UNK         0.5000 
    113 O         -4.4264  -24.2467  -56.4838 O.2       20 UNK        -0.5000 
    114 N         -4.8589  -22.0229  -56.2450 N.am      21 UNK        -0.5000 
    115 CA        -3.6094  -21.3846  -56.6695 C.3       21 UNK         0.1400 
    116 CB        -3.1236  -21.8977  -58.0390 C.3       21 UNK        -0.1800 
    117 C         -2.5052  -21.4844  -55.6003 C.2       21 UNK         0.5000 
    118 O         -2.3412  -22.5217  -54.9556 O.2       21 UNK        -0.5000 
    119 N         -1.7603  -20.3868  -55.4322 N.am      22 UNK        -0.5000 
    120 CA        -0.5991  -20.3069  -54.5374 C.3       22 UNK         0.1400 
    121 C          0.6622  -20.9363  -55.1890 C.2       22 UNK         0.5000 
    122 N          1.4136  -21.7478  -54.4576 N.am      22 UNK        -0.7600 
    123 O          0.9812  -20.6663  -56.3448 O.2       22 UNK        -0.5000 
    124 C124       -0.3493  -18.8458  -54.0819 C.3       23 UNK        -0.0398 
    125 S125        0.4014  -18.7620  -52.4231 S.3       23 UNK        -0.2404 
    126 C126        2.1354  -18.4016  -52.8400 C.3       23 UNK        -0.0205 
    127 H127        0.3552  -15.7775  -52.8291 H         1 UNK         0.0600 
    128 H128       -0.8635  -14.6086  -53.3287 H         1 UNK         0.0600 
    129 H129       -1.3492  -16.0529  -52.4337 H         1 UNK         0.0600 
    130 H130        0.9986  -15.8675  -50.5705 H         1 UNK         0.3000 
    131 H131        0.8753  -13.3527  -49.1758 H         1 UNK         0.0600 
    132 H132        2.0848  -16.0365  -48.3378 H         1 UNK         0.0800 
    133 H133        2.2452  -14.5581  -47.4209 H         1 UNK         0.0800 
    134 H134        4.8844  -15.9815  -48.1786 H         1 UNK         0.0800 
    135 H135        5.6309  -15.5867  -49.7079 H         1 UNK         0.0800 
    136 H136        3.1882  -16.2421  -51.5423 H         1 UNK         0.1150 
    137 H137        2.9740  -20.5117  -51.3717 H         1 UNK         0.1150 
    138 H138        5.0795  -18.3629  -48.3222 H         1 UNK         0.1150 
    139 H139        4.0646  -21.7416  -49.6823 H         1 UNK         0.0800 
    140 H140        5.4561  -20.9893  -48.9436 H         1 UNK         0.0800 
    141 H141        1.7283  -20.4402  -48.8778 H         1 UNK         0.0800 
    142 H142        1.6510  -19.6006  -47.3596 H         1 UNK         0.0800 
    143 H143        1.0483  -22.5720  -47.8024 H         1 UNK         0.0600 
    144 H144        1.4337  -21.2564  -45.3229 H         1 UNK         0.3000 
    145 H145       -0.8145  -23.2802  -43.3724 H         1 UNK         0.0600 
    146 H146        1.2718  -23.5097  -42.0415 H         1 UNK         0.0600 
    147 H147        2.2387  -23.0438  -43.4379 H         1 UNK         0.0600 
    148 H148        1.3129  -24.5362  -43.4675 H         1 UNK         0.0600 
    149 H149        0.8380  -21.0617  -42.6728 H         1 UNK         0.3000 
    150 H150       -1.5942  -18.5084  -43.3727 H         1 UNK         0.0600 
    151 H151       -2.1696  -19.2937  -41.1183 H         1 UNK         0.0600 
    152 H152       -0.9736  -18.0132  -40.9698 H         1 UNK         0.0600 
    153 H153       -0.4947  -19.6931  -40.7684 H         1 UNK         0.0600 
    154 H154        1.0431  -18.3286  -42.3467 H         1 UNK         0.3000 
    155 H155        2.8090  -18.3193  -45.4483 H         1 UNK         0.0600 
    156 H156        2.1095  -15.9859  -45.2789 H         1 UNK         0.0600 
    157 H157        3.6545  -16.1637  -44.4693 H         1 UNK         0.0600 
    158 H158        2.1735  -16.0262  -43.5194 H         1 UNK         0.0600 
    159 H159        3.5920  -17.9880  -42.7037 H         1 UNK         0.3000 
    160 H160        4.2669  -21.4582  -42.1017 H         1 UNK         0.0600 
    161 H161        6.0216  -18.9610  -42.4161 H         1 UNK         0.0600 
    162 H162        6.2263  -20.4691  -43.2991 H         1 UNK         0.0600 
    163 H163        6.4566  -20.4389  -41.5581 H         1 UNK         0.0600 
    164 H164        4.4885  -19.1044  -40.4723 H         1 UNK         0.3000 
    165 H165        1.2415  -19.2575  -39.0285 H         1 UNK         0.0600 
    166 H166        2.5347  -19.4540  -36.9318 H         1 UNK         0.0600 
    167 H167        2.5468  -20.9899  -37.7825 H         1 UNK         0.0600 
    168 H168        3.9711  -19.9574  -37.8238 H         1 UNK         0.0600 
    169 H169        3.3730  -17.5732  -38.3577 H         1 UNK         0.3000 
    170 H170        2.8629  -15.2640  -38.8051 H         1 UNK         0.0600 
    171 H171        4.4852  -15.6904  -41.3951 H         1 UNK         0.0600 
    172 H172        4.7577  -14.3973  -40.2298 H         1 UNK         0.0600 
    173 H173        5.0472  -16.0667  -39.7692 H         1 UNK         0.0600 
    174 H174        1.6099  -15.1241  -41.4165 H         1 UNK         0.3000 
    175 H175        0.0841  -12.1069  -40.7364 H         1 UNK         0.0600 
    176 H176        2.2049  -12.3018  -42.9445 H         1 UNK         0.0600 
    177 H177        0.8114  -11.2212  -42.9447 H         1 UNK         0.0600 
    178 H178        2.0854  -11.0113  -41.7532 H         1 UNK         0.0600 
    179 H179        0.2818  -13.7983  -43.1023 H         1 UNK         0.3000 
    180 H180       -0.9650  -16.1246  -42.8965 H         1 UNK         0.0600 
    181 H181       -3.7710  -15.2711  -42.0119 H         1 UNK         0.0600 
    182 H182       -2.7956  -16.5014  -41.2244 H         1 UNK         0.0600 
    183 H183       -3.3579  -16.7566  -42.8668 H         1 UNK         0.0600 
    184 H184       -3.0035  -14.5590  -44.1837 H         1 UNK         0.3000 
    185 H185       -2.5883  -14.3017  -46.5527 H         1 UNK         0.0600 
    186 H186       -1.3990  -11.6445  -45.5613 H         1 UNK         0.0600 
    187 H187       -2.6329  -11.8042  -46.8111 H         1 UNK         0.0600 
    188 H188       -2.9929  -12.2691  -45.1580 H         1 UNK         0.0600 
    189 H189       -0.2251  -12.7832  -47.3661 H         1 UNK         0.3000 
    190 H190       -0.7144  -19.7629  -46.3812 H         1 UNK         0.3000 
    191 H191       -2.5623  -19.3823  -48.4536 H         1 UNK         0.0600 
    192 H192       -2.1460  -17.7533  -46.6116 H         1 UNK         0.0600 
    193 H193       -2.9169  -18.8363  -45.4577 H         1 UNK         0.0600 
    194 H194       -3.8588  -18.1164  -46.7568 H         1 UNK         0.0600 
    195 H195       -2.8100  -21.5108  -45.5753 H         1 UNK         0.3000 
    196 H196       -5.4276  -22.4915  -46.0679 H         1 UNK         0.0600 
    197 H197       -4.2930  -22.7271  -43.8834 H         1 UNK         0.0600 
    198 H198       -3.0765  -23.7874  -44.5894 H         1 UNK         0.0600 
    199 H199       -4.7537  -24.3101  -44.4916 H         1 UNK         0.0600 
    200 H200       -2.2117  -23.8022  -47.0422 H         1 UNK         0.3000 
    201 H201       -3.1817  -26.0886  -48.4208 H         1 UNK         0.0600 
    202 H202       -0.8377  -25.8573  -47.6587 H         1 UNK         0.0600 
    203 H203       -0.5730  -24.5183  -48.7726 H         1 UNK         0.0600 
    204 H204       -0.8787  -26.1365  -49.3933 H         1 UNK         0.0600 
    205 H205       -2.5054  -22.7728  -49.5483 H         1 UNK         0.3000 
    206 H206       -3.1585  -23.2330  -52.3195 H         1 UNK         0.0600 
    207 H207       -1.6347  -21.4182  -51.4635 H         1 UNK         0.0600 
    208 H208       -3.0088  -20.6329  -50.6931 H         1 UNK         0.0600 
    209 H209       -2.9353  -20.7740  -52.4466 H         1 UNK         0.0600 
    210 H210       -5.1530  -23.0291  -49.5813 H         1 UNK         0.3000 
    211 H211       -7.2854  -22.7103  -49.1073 H         1 UNK         0.0600 
    212 H212       -7.8463  -23.1902  -52.0860 H         1 UNK         0.0600 
    213 H213       -9.0001  -23.3407  -50.7703 H         1 UNK         0.0600 
    214 H214       -7.6450  -24.4544  -50.8752 H         1 UNK         0.0600 
    215 H215       -5.9182  -20.4410  -49.1568 H         1 UNK         0.3000 
    216 H216       -5.8961  -18.2333  -49.2982 H         1 UNK         0.0600 
    217 H217       -8.0029  -16.9623  -49.2272 H         1 UNK         0.0600 
    218 H218       -8.1529  -18.3916  -48.2185 H         1 UNK         0.0600 
    219 H219       -8.9169  -18.3468  -49.8069 H         1 UNK         0.0600 
    220 H220       -5.2540  -19.7113  -51.5547 H         1 UNK         0.3000 
    221 H221       -4.4570  -19.5138  -53.5819 H         1 UNK         0.0600 
    222 H222       -5.5104  -16.6553  -53.7887 H         1 UNK         0.0600 
    223 H223       -3.9447  -17.1120  -53.1150 H         1 UNK         0.0600 
    224 H224       -4.2985  -17.4137  -54.8071 H         1 UNK         0.0600 
    225 H225       -7.5876  -19.9618  -52.9254 H         1 UNK         0.3000 
    226 H226       -8.7954  -19.7211  -55.5304 H         1 UNK         0.0600 
    227 H227      -10.0859  -19.8014  -53.3600 H         1 UNK         0.0600 
    228 H228      -10.6398  -20.9779  -54.5428 H         1 UNK         0.0600 
    229 H229       -9.6468  -21.5030  -53.1939 H         1 UNK         0.0600 
    230 H230       -6.7471  -22.1568  -54.0087 H         1 UNK         0.3000 
    231 H231       -7.1530  -24.0750  -56.2600 H         1 UNK         0.0600 
    232 H232       -6.0094  -25.6785  -54.8044 H         1 UNK         0.0600 
    233 H233       -7.3322  -24.9550  -53.9064 H         1 UNK         0.0600 
    234 H234       -5.6727  -24.4412  -53.6047 H         1 UNK         0.0600 
    235 H235       -5.5618  -21.3714  -55.9222 H         1 UNK         0.3000 
    236 H236       -3.8592  -20.3292  -56.7894 H         1 UNK         0.0600 
    237 H237       -2.7666  -22.9264  -57.9887 H         1 UNK         0.0600 
    238 H238       -3.9178  -21.8512  -58.7841 H         1 UNK         0.0600 
    239 H239       -2.2960  -21.2899  -58.4064 H         1 UNK         0.0600 
    240 H240       -1.9111  -19.5907  -56.0345 H         1 UNK         0.3000 
    241 H241       -0.8397  -20.8954  -53.6514 H         1 UNK         0.0600 
    242 H242        2.2386  -22.1551  -54.8697 H         1 UNK         0.3800 
    243 H243        1.1685  -21.9800  -53.5082 H         1 UNK         0.3800 
    244 H244       -1.2981  -18.3123  -54.0063 H         1 UNK         0.0800 
    245 H245        0.2447  -18.2862  -54.8070 H         1 UNK         0.0800 
    246 H246        2.1956  -17.4481  -53.3667 H         1 UNK         0.0800 
    247 H247        2.5176  -19.1601  -53.5244 H         1 UNK         0.0800 
@<TRIPOS>BOND
     1    1    2 1    
     2    1  127 1    
     3    1  128 1    
     4    1  129 1    
     5    2    3 2    
     6    2    4 am   BACKBONE|DICT|INTERRES
     7    4    5 1    
     8    4  130 1    
     9    5    6 1    
    10    5   65 1    
    11    5  131 1    
    12    6    7 1    
    13    6  132 1    
    14    6  133 1    
    15    7    8 1    
    16    8    9 1    
    17    8  134 1    
    18    8  135 1    
    19    9   10 ar   
    20    9   14 ar   
    21   10   11 ar   
    22   10  136 1    
    23   11   12 ar   
    24   11  126 1    
    25   12   13 ar   
    26   12  137 1    
    27   13   14 ar   
    28   13   15 1    
    29   14  138 1    
    30   15   16 1    
    31   15  139 1    
    32   15  140 1    
    33   16   17 1    
    34   17   18 1    
    35   17  141 1    
    36   17  142 1    
    37   18   19 1    
    38   18   67 1    
    39   18  143 1    
    40   19   20 am   BACKBONE|DICT|INTERRES
    41   19  144 1    
    42   20   21 2    
    43   20   22 1    
    44   22   23 1    
    45   22   24 1    
    46   22  145 1    
    47   23  146 1    
    48   23  147 1    
    49   23  148 1    
    50   24   25 am   BACKBONE|DICT|INTERRES
    51   24  149 1    
    52   25   26 2    
    53   25   27 1    
    54   27   28 1    
    55   27   29 1    
    56   27  150 1    
    57   28  151 1    
    58   28  152 1    
    59   28  153 1    
    60   29   30 am   BACKBONE|DICT|INTERRES
    61   29  154 1    
    62   30   31 2    
    63   30   32 1    
    64   32   33 1    
    65   32   34 1    
    66   32  155 1    
    67   33  156 1    
    68   33  157 1    
    69   33  158 1    
    70   34   35 am   BACKBONE|DICT|INTERRES
    71   34  159 1    
    72   35   36 2    
    73   35   37 1    
    74   37   38 1    
    75   37   39 1    
    76   37  160 1    
    77   38  161 1    
    78   38  162 1    
    79   38  163 1    
    80   39   40 am   BACKBONE|DICT|INTERRES
    81   39  164 1    
    82   40   41 2    
    83   40   42 1    
    84   42   43 1    
    85   42   44 1    
    86   42  165 1    
    87   43  166 1    
    88   43  167 1    
    89   43  168 1    
    90   44   45 am   BACKBONE|DICT|INTERRES
    91   44  169 1    
    92   45   46 2    
    93   45   47 1    
    94   47   48 1    
    95   47   49 1    
    96   47  170 1    
    97   48  171 1    
    98   48  172 1    
    99   48  173 1    
   100   49   50 am   BACKBONE|DICT|INTERRES
   101   49  174 1    
   102   50   51 2    
   103   50   52 1    
   104   52   53 1    
   105   52   54 1    
   106   52  175 1    
   107   53  176 1    
   108   53  177 1    
   109   53  178 1    
   110   54   55 am   BACKBONE|DICT|INTERRES
   111   54  179 1    
   112   55   56 2    
   113   55   57 1    
   114   57   58 1    
   115   57   59 1    
   116   57  180 1    
   117   58  181 1    
   118   58  182 1    
   119   58  183 1    
   120   59   60 am   BACKBONE|DICT|INTERRES
   121   59  184 1    
   122   60   61 2    
   123   60   62 1    
   124   62   63 1    
   125   62   64 1    
   126   62  185 1    
   127   63  186 1    
   128   63  187 1    
   129   63  188 1    
   130   64   65 am   BACKBONE|DICT|INTERRES
   131   64  189 1    
   132   65   66 2    
   133   67   68 2    
   134   67   69 am   BACKBONE|DICT|INTERRES
   135   69   70 1    
   136   69  190 1    
   137   70   71 1    
   138   70   72 1    
   139   70  191 1    
   140   71  192 1    
   141   71  193 1    
   142   71  194 1    
   143   72   73 2    
   144   72   74 am   BACKBONE|DICT|INTERRES
   145   74   75 1    
   146   74  195 1    
   147   75   76 1    
   148   75   77 1    
   149   75  196 1    
   150   76  197 1    
   151   76  198 1    
   152   76  199 1    
   153   77   78 2    
   154   77   79 am   BACKBONE|DICT|INTERRES
   155   79   80 1    
   156   79  200 1    
   157   80   81 1    
   158   80   82 1    
   159   80  201 1    
   160   81  202 1    
   161   81  203 1    
   162   81  204 1    
   163   82   83 2    
   164   82   84 am   BACKBONE|DICT|INTERRES
   165   84   85 1    
   166   84  205 1    
   167   85   86 1    
   168   85   87 1    
   169   85  206 1    
   170   86  207 1    
   171   86  208 1    
   172   86  209 1    
   173   87   88 2    
   174   87   89 am   BACKBONE|DICT|INTERRES
   175   89   90 1    
   176   89  210 1    
   177   90   91 1    
   178   90   92 1    
   179   90  211 1    
   180   91  212 1    
   181   91  213 1    
   182   91  214 1    
   183   92   93 2    
   184   92   94 am   BACKBONE|DICT|INTERRES
   185   94   95 1    
   186   94  215 1    
   187   95   96 1    
   188   95   97 1    
   189   95  216 1    
   190   96  217 1    
   191   96  218 1    
   192   96  219 1    
   193   97   98 2    
   194   97   99 am   BACKBONE|DICT|INTERRES
   195   99  100 1    
   196   99  220 1    
   197  100  101 1    
   198  100  102 1    
   199  100  221 1    
   200  101  222 1    
   201  101  223 1    
   202  101  224 1    
   203  102  103 2    
   204  102  104 am   BACKBONE|DICT|INTERRES
   205  104  105 1    
   206  104  225 1    
   207  105  106 1    
   208  105  107 1    
   209  105  226 1    
   210  106  227 1    
   211  106  228 1    
   212  106  229 1    
   213  107  108 2    
   214  107  109 am   BACKBONE|DICT|INTERRES
   215  109  110 1    
   216  109  230 1    
   217  110  111 1    
   218  110  112 1    
   219  110  231 1    
   220  111  232 1    
   221  111  233 1    
   222  111  234 1    
   223  112  113 2    
   224  112  114 am   BACKBONE|DICT|INTERRES
   225  114  115 1    
   226  114  235 1    
   227  115  116 1    
   228  115  117 1    
   229  115  236 1    
   230  116  237 1    
   231  116  238 1    
   232  116  239 1    
   233  117  118 2    
   234  117  119 am   BACKBONE|DICT|INTERRES
   235  119  120 1    
   236  119  240 1    
   237  120  121 1    
   238  120  124 1    
   239  120  241 1    
   240  121  122 am   BACKBONE|DICT|INTERRES
   241  121  123 2    
   242  122  242 1    
   243  122  243 1    
   244  124  125 1    
   245  124  244 1    
   246  124  245 1    
   247  125  126 1    
   248  126  246 1    
   249  126  247 1    
@<TRIPOS>SUBSTRUCTURE
     1 UNK         1 GROUP             0       ****    0 ROOT    
