@<TRIPOS>MOLECULE
3R540
247   249    1
SMALL
USER_CHARGES


@<TRIPOS>ATOM
      1 CA          3.4864   -9.4276  -45.2894 C.3       0 UNK        -0.1800 
      2 C           3.0347  -10.8767  -45.2013 C.2       0 UNK         0.5000 
      3 O           3.7761  -11.7201  -44.6897 O.2       0 UNK        -0.5000 
      4 N           1.8156  -11.1541  -45.6877 N.am      1 UNK        -0.5000 
      5 CA          1.2015  -12.4839  -45.8184 C.3       1 UNK         0.1400 
      6 C6         -0.2211  -12.4316  -46.4304 C.3       23 UNK        -0.0398 
      7 S7         -0.2646  -11.6135  -48.0557 S.3       23 UNK        -0.2404 
      8 C8         -2.0586  -11.3989  -48.2901 C.3       23 UNK        -0.0205 
      9 C9         -2.6852  -12.5348  -49.0880 C.ar      23 UNK        -0.0193 
     10 C10        -2.4637  -12.6075  -50.4655 C.ar      23 UNK        -0.1150 
     11 C11        -3.0923  -13.5856  -51.2389 C.ar      23 UNK        -0.0193 
     12 C12        -3.9542  -14.4989  -50.6241 C.ar      23 UNK        -0.1150 
     13 C13        -4.1847  -14.4425  -49.2466 C.ar      23 UNK        -0.0193 
     14 C14        -3.5373  -13.4646  -48.4800 C.ar      23 UNK        -0.1150 
     15 C15        -5.1917  -15.3882  -48.6041 C.3       23 UNK        -0.0205 
     16 S16        -4.4137  -16.8595  -47.8723 S.3       23 UNK        -0.2404 
     17 C17        -4.1377  -17.9489  -49.3156 C.3       23 UNK        -0.0398 
     18 CA         -3.9705  -19.4585  -48.9796 C.3       11 UNK         0.1400 
     19 N          -2.7269  -19.7567  -48.2609 N.am      11 UNK        -0.5000 
     20 C          -2.2007  -20.9858  -48.1482 C.2       10 UNK         0.5000 
     21 O          -2.6937  -21.9886  -48.6671 O.2       10 UNK        -0.5000 
     22 CA         -0.9239  -21.1406  -47.3016 C.3       10 UNK         0.1400 
     23 CB          0.3255  -20.7862  -48.1195 C.3       10 UNK        -0.1800 
     24 N          -0.9383  -20.3584  -46.0664 N.am      10 UNK        -0.5000 
     25 C          -1.8080  -20.5395  -45.0622 C.2       9 UNK         0.5000 
     26 O          -2.7363  -21.3462  -45.0947 O.2       9 UNK        -0.5000 
     27 CA         -1.6248  -19.6450  -43.8276 C.3       9 UNK         0.1400 
     28 CB         -0.4595  -20.1354  -42.9546 C.3       9 UNK        -0.1800 
     29 N          -1.3962  -18.2600  -44.2273 N.am      9 UNK        -0.5000 
     30 C          -2.3717  -17.4384  -44.6377 C.2       8 UNK         0.5000 
     31 O          -3.5665  -17.7305  -44.6082 O.2       8 UNK        -0.5000 
     32 CA         -1.9381  -16.0668  -45.1841 C.3       8 UNK         0.1400 
     33 CB         -1.8973  -15.0376  -44.0459 C.3       8 UNK        -0.1800 
     34 N          -0.6440  -16.1040  -45.8716 N.am      8 UNK        -0.5000 
     35 C          -0.4035  -16.7756  -47.0100 C.2       7 UNK         0.5000 
     36 O          -1.2447  -17.4391  -47.6092 O.2       7 UNK        -0.5000 
     37 CA          1.0371  -16.7597  -47.5457 C.3       7 UNK         0.1400 
     38 CB          1.2327  -15.6091  -48.5440 C.3       7 UNK        -0.1800 
     39 N           2.0356  -16.6658  -46.4849 N.am      7 UNK        -0.5000 
     40 C           2.2339  -17.5705  -45.5161 C.2       6 UNK         0.5000 
     41 O           1.5752  -18.6087  -45.4194 O.2       6 UNK        -0.5000 
     42 CA          3.2998  -17.2296  -44.4503 C.3       6 UNK         0.1400 
     43 CB          4.1446  -18.4576  -44.0558 C.3       6 UNK        -0.1800 
     44 N           4.1512  -16.0803  -44.7974 N.am      6 UNK        -0.5000 
     45 C           5.0364  -15.9855  -45.8020 C.2       5 UNK         0.5000 
     46 O           5.3004  -16.9031  -46.5788 O.2       5 UNK        -0.5000 
     47 CA          5.7180  -14.6182  -45.9987 C.3       5 UNK         0.1400 
     48 CB          5.0037  -13.8152  -47.0957 C.3       5 UNK        -0.1800 
     49 N           5.7868  -13.8092  -44.7773 N.am      5 UNK        -0.5000 
     50 C           6.6519  -14.0613  -43.7841 C.2       4 UNK         0.5000 
     51 O           7.3947  -15.0440  -43.7695 O.2       4 UNK        -0.5000 
     52 CA          6.7418  -13.0568  -42.6269 C.3       4 UNK         0.1400 
     53 CB          7.8312  -12.0069  -42.9168 C.3       4 UNK        -0.1800 
     54 N           5.4746  -12.3883  -42.3223 N.am      4 UNK        -0.5000 
     55 C           5.1949  -11.8710  -41.1174 C.2       3 UNK         0.5000 
     56 O           5.9333  -11.9783  -40.1367 O.2       3 UNK        -0.5000 
     57 CA          3.8845  -11.0827  -40.9764 C.3       3 UNK         0.1400 
     58 CB          4.0726   -9.6423  -41.4770 C.3       3 UNK        -0.1800 
     59 N           2.7711  -11.7035  -41.6895 N.am      3 UNK        -0.5000 
     60 C           2.0496  -12.7308  -41.2204 C.2       2 UNK         0.5000 
     61 O           2.2974  -13.3083  -40.1614 O.2       2 UNK        -0.5000 
     62 CA          0.8269  -13.1712  -42.0473 C.3       2 UNK         0.1400 
     63 CB         -0.4705  -12.7380  -41.3450 C.3       2 UNK        -0.1800 
     64 N           0.8376  -12.6007  -43.3963 N.am      2 UNK        -0.5000 
     65 C           1.1709  -13.2785  -44.5003 C.2       1 UNK         0.5000 
     66 O           1.4459  -14.4775  -44.5165 O.2       1 UNK        -0.5000 
     67 C          -5.2013  -20.0571  -48.2618 C.2       11 UNK         0.5000 
     68 O          -6.0864  -20.5966  -48.9261 O.2       11 UNK        -0.5000 
     69 N          -5.2144  -19.9894  -46.9212 N.am      12 UNK        -0.5000 
     70 CA         -6.2830  -20.5066  -46.0652 C.3       12 UNK         0.1400 
     71 CB         -6.1284  -19.9314  -44.6498 C.3       12 UNK        -0.1800 
     72 C          -6.3187  -22.0436  -46.0285 C.2       12 UNK         0.5000 
     73 O          -7.4000  -22.6295  -46.0876 O.2       12 UNK        -0.5000 
     74 N          -5.1354  -22.6687  -45.9642 N.am      13 UNK        -0.5000 
     75 CA         -4.9522  -24.1207  -46.0178 C.3       13 UNK         0.1400 
     76 CB         -3.5613  -24.4637  -45.4600 C.3       13 UNK        -0.1800 
     77 C          -5.1071  -24.7032  -47.4359 C.2       13 UNK         0.5000 
     78 O          -5.1239  -25.9263  -47.5806 O.2       13 UNK        -0.5000 
     79 N          -5.1608  -23.8318  -48.4544 N.am      14 UNK        -0.5000 
     80 CA         -5.1912  -24.1353  -49.8867 C.3       14 UNK         0.1400 
     81 CB         -6.5379  -24.7734  -50.2835 C.3       14 UNK        -0.1800 
     82 C          -3.9735  -24.9765  -50.3172 C.2       14 UNK         0.5000 
     83 O          -4.1309  -25.9886  -50.9980 O.2       14 UNK        -0.5000 
     84 N          -2.7827  -24.5533  -49.8665 N.am      15 UNK        -0.5000 
     85 CA         -1.4883  -25.2274  -50.0319 C.3       15 UNK         0.1400 
     86 CB         -1.0278  -25.1585  -51.5008 C.3       15 UNK        -0.1800 
     87 C          -1.4869  -26.6679  -49.4695 C.2       15 UNK         0.5000 
     88 O          -0.9139  -27.5710  -50.0804 O.2       15 UNK        -0.5000 
     89 N          -2.1499  -26.8408  -48.3156 N.am      16 UNK        -0.5000 
     90 CA         -2.4335  -28.1047  -47.6286 C.3       16 UNK         0.1400 
     91 CB         -1.1355  -28.8010  -47.1669 C.3       16 UNK        -0.1800 
     92 C          -3.3620  -29.0118  -48.4628 C.2       16 UNK         0.5000 
     93 O          -3.0243  -30.1642  -48.7407 O.2       16 UNK        -0.5000 
     94 N          -4.5238  -28.4531  -48.8332 N.am      17 UNK        -0.5000 
     95 CA         -5.6117  -29.0698  -49.5997 C.3       17 UNK         0.1400 
     96 CB         -6.3078  -30.1629  -48.7620 C.3       17 UNK        -0.1800 
     97 C          -5.1732  -29.5612  -50.9963 C.2       17 UNK         0.5000 
     98 O          -5.4266  -30.7112  -51.3627 O.2       17 UNK        -0.5000 
     99 N          -4.5235  -28.6698  -51.7489 N.am      18 UNK        -0.5000 
    100 CA        -4.0800  -28.8689  -53.1249 C.3       18 UNK         0.1400 
    101 CB        -2.5464  -29.0273  -53.1313 C.3       18 UNK        -0.1800 
    102 C         -4.5838  -27.6901  -53.9811 C.2       18 UNK         0.5000 
    103 O         -5.6550  -27.1447  -53.7017 O.2       18 UNK        -0.5000 
    104 N         -3.8192  -27.3089  -55.0131 N.am      19 UNK        -0.5000 
    105 CA        -4.0197  -26.0730  -55.7690 C.3       19 UNK         0.1400 
    106 CB        -3.2279  -26.1446  -57.0845 C.3       19 UNK        -0.1800 
    107 C         -3.5650  -24.8867  -54.9016 C.2       19 UNK         0.5000 
    108 O         -2.3901  -24.8327  -54.5342 O.2       19 UNK        -0.5000 
    109 N         -4.5090  -24.0069  -54.5442 N.am      20 UNK        -0.5000 
    110 CA        -4.3327  -22.9477  -53.5514 C.3       20 UNK         0.1400 
    111 CB        -5.6651  -22.2123  -53.3427 C.3       20 UNK        -0.1800 
    112 C         -3.2062  -21.9541  -53.8816 C.2       20 UNK         0.5000 
    113 O         -3.1574  -21.4221  -54.9941 O.2       20 UNK        -0.5000 
    114 N         -2.3437  -21.7046  -52.8881 N.am      21 UNK        -0.5000 
    115 CA        -1.2770  -20.7099  -52.9435 C.3       21 UNK         0.1400 
    116 CB        -0.3900  -20.8562  -51.6999 C.3       21 UNK        -0.1800 
    117 C         -1.8617  -19.2909  -53.0189 C.2       21 UNK         0.5000 
    118 O         -2.8348  -18.9972  -52.3204 O.2       21 UNK        -0.5000 
    119 N         -1.2580  -18.4477  -53.8635 N.am      22 UNK        -0.5000 
    120 CA        -1.7042  -17.0750  -54.1560 C.3       22 UNK         0.1400 
    121 C         -3.0179  -16.9882  -55.0011 C.2       22 UNK         0.5000 
    122 N         -3.5477  -18.0857  -55.5306 N.am      22 UNK        -0.7600 
    123 O         -3.5529  -15.9060  -55.2203 O.2       22 UNK        -0.5000 
    124 C124       -1.7260  -16.1892  -52.8757 C.3       23 UNK        -0.0398 
    125 S125       -1.3077  -14.4410  -53.1848 S.3       23 UNK        -0.2404 
    126 C126       -2.8701  -13.6180  -52.7437 C.3       23 UNK        -0.0205 
    127 H127        4.5749   -9.3676  -45.2952 H         1 UNK         0.0600 
    128 H128        3.1146   -8.8622  -44.4355 H         1 UNK         0.0600 
    129 H129        3.1180   -8.9567  -46.2010 H         1 UNK         0.0600 
    130 H130        1.2768  -10.4006  -46.0917 H         1 UNK         0.3000 
    131 H131        1.8312  -13.0458  -46.5070 H         1 UNK         0.0600 
    132 H132       -0.6270  -13.4349  -46.5642 H         1 UNK         0.0800 
    133 H133       -0.9025  -11.9083  -45.7571 H         1 UNK         0.0800 
    134 H134       -2.5582  -11.2781  -47.3279 H         1 UNK         0.0800 
    135 H135       -2.2236  -10.4638  -48.8275 H         1 UNK         0.0800 
    136 H136       -1.8118  -11.8876  -50.9406 H         1 UNK         0.1150 
    137 H137       -4.4656  -15.2412  -51.2205 H         1 UNK         0.1150 
    138 H138       -3.7271  -13.4063  -47.4174 H         1 UNK         0.1150 
    139 H139       -5.7274  -14.8571  -47.8161 H         1 UNK         0.0800 
    140 H140       -5.9510  -15.6920  -49.3261 H         1 UNK         0.0800 
    141 H141       -3.2523  -17.5921  -49.8440 H         1 UNK         0.0800 
    142 H142       -4.9668  -17.8236  -50.0135 H         1 UNK         0.0800 
    143 H143       -3.8991  -19.9753  -49.9395 H         1 UNK         0.0600 
    144 H144       -2.2394  -18.9597  -47.8543 H         1 UNK         0.3000 
    145 H145       -0.8476  -22.1913  -47.0140 H         1 UNK         0.0600 
    146 H146        1.2283  -20.8365  -47.5102 H         1 UNK         0.0600 
    147 H147        0.4560  -21.4839  -48.9469 H         1 UNK         0.0600 
    148 H148        0.2592  -19.7834  -48.5409 H         1 UNK         0.0600 
    149 H149       -0.1967  -19.6776  -45.9493 H         1 UNK         0.3000 
    150 H150       -2.5379  -19.6997  -43.2305 H         1 UNK         0.0600 
    151 H151       -0.6291  -21.1604  -42.6225 H         1 UNK         0.0600 
    152 H152       -0.3500  -19.5188  -42.0624 H         1 UNK         0.0600 
    153 H153        0.4895  -20.1190  -43.4910 H         1 UNK         0.0600 
    154 H154       -0.4352  -17.9638  -44.3225 H         1 UNK         0.3000 
    155 H155       -2.6894  -15.7380  -45.9023 H         1 UNK         0.0600 
    156 H156       -2.8404  -15.0231  -43.4980 H         1 UNK         0.0600 
    157 H157       -1.7371  -14.0300  -44.4256 H         1 UNK         0.0600 
    158 H158       -1.1070  -15.2636  -43.3297 H         1 UNK         0.0600 
    159 H159        0.1300  -15.6293  -45.4181 H         1 UNK         0.3000 
    160 H160        1.2078  -17.6987  -48.0740 H         1 UNK         0.0600 
    161 H161        2.2370  -15.6191  -48.9680 H         1 UNK         0.0600 
    162 H162        1.0731  -14.6371  -48.0798 H         1 UNK         0.0600 
    163 H163        0.5289  -15.6911  -49.3737 H         1 UNK         0.0600 
    164 H164        2.5898  -15.8244  -46.4505 H         1 UNK         0.3000 
    165 H165        2.7396  -16.9229  -43.5660 H         1 UNK         0.0600 
    166 H166        4.8830  -18.2006  -43.2963 H         1 UNK         0.0600 
    167 H167        3.5159  -19.2470  -43.6422 H         1 UNK         0.0600 
    168 H168        4.6734  -18.8796  -44.9105 H         1 UNK         0.0600 
    169 H169        3.9889  -15.2481  -44.2475 H         1 UNK         0.3000 
    170 H170        6.7372  -14.8109  -46.3414 H         1 UNK         0.0600 
    171 H171        4.9724  -14.3718  -48.0333 H         1 UNK         0.0600 
    172 H172        3.9779  -13.5847  -46.8169 H         1 UNK         0.0600 
    173 H173        5.5162  -12.8736  -47.2931 H         1 UNK         0.0600 
    174 H174        5.1926  -12.9859  -44.7477 H         1 UNK         0.3000 
    175 H175        7.0498  -13.6363  -41.7537 H         1 UNK         0.0600 
    176 H176        7.5518  -11.3625  -43.7512 H         1 UNK         0.0600 
    177 H177        8.0137  -11.3717  -42.0500 H         1 UNK         0.0600 
    178 H178        8.7791  -12.4832  -43.1711 H         1 UNK         0.0600 
    179 H179        4.8169  -12.2551  -43.0833 H         1 UNK         0.3000 
    180 H180        3.6337  -11.0350  -39.9142 H         1 UNK         0.0600 
    181 H181        3.1505   -9.0672  -41.3910 H         1 UNK         0.0600 
    182 H182        4.3934   -9.6160  -42.5181 H         1 UNK         0.0600 
    183 H183        4.8335   -9.1255  -40.8909 H         1 UNK         0.0600 
    184 H184        2.5472  -11.3292  -42.5980 H         1 UNK         0.3000 
    185 H185        0.8415  -14.2622  -42.0903 H         1 UNK         0.0600 
    186 H186       -0.5281  -11.6541  -41.2376 H         1 UNK         0.0600 
    187 H187       -1.3496  -13.0655  -41.8994 H         1 UNK         0.0600 
    188 H188       -0.5388  -13.1711  -40.3462 H         1 UNK         0.0600 
    189 H189        0.5995  -11.6227  -43.4789 H         1 UNK         0.3000 
    190 H190       -4.4447  -19.5285  -46.4550 H         1 UNK         0.3000 
    191 H191       -7.2371  -20.1607  -46.4685 H         1 UNK         0.0600 
    192 H192       -5.1731  -20.2091  -44.2028 H         1 UNK         0.0600 
    193 H193       -6.1873  -18.8428  -44.6601 H         1 UNK         0.0600 
    194 H194       -6.9184  -20.2938  -43.9910 H         1 UNK         0.0600 
    195 H195       -4.2913  -22.1124  -45.8475 H         1 UNK         0.3000 
    196 H196       -5.7042  -24.5939  -45.3833 H         1 UNK         0.0600 
    197 H197       -3.4431  -24.0915  -44.4422 H         1 UNK         0.0600 
    198 H198       -2.7668  -24.0291  -46.0683 H         1 UNK         0.0600 
    199 H199       -3.4026  -25.5423  -45.4294 H         1 UNK         0.0600 
    200 H200       -5.1010  -22.8498  -48.2223 H         1 UNK         0.3000 
    201 H201       -5.1102  -23.1784  -50.4037 H         1 UNK         0.0600 
    202 H202       -6.5943  -24.9283  -51.3619 H         1 UNK         0.0600 
    203 H203       -7.3733  -24.1321  -50.0029 H         1 UNK         0.0600 
    204 H204       -6.6848  -25.7429  -49.8073 H         1 UNK         0.0600 
    205 H205       -2.7640  -23.6899  -49.3248 H         1 UNK         0.3000 
    206 H206       -0.7706  -24.6638  -49.4341 H         1 UNK         0.0600 
    207 H207       -1.0429  -24.1364  -51.8767 H         1 UNK         0.0600 
    208 H208       -1.6650  -25.7617  -52.1472 H         1 UNK         0.0600 
    209 H209       -0.0082  -25.5290  -51.6106 H         1 UNK         0.0600 
    210 H210       -2.6204  -26.0338  -47.9335 H         1 UNK         0.3000 
    211 H211       -2.9937  -27.8425  -46.7298 H         1 UNK         0.0600 
    212 H212       -0.5202  -28.1300  -46.5678 H         1 UNK         0.0600 
    213 H213       -1.3624  -29.6711  -46.5499 H         1 UNK         0.0600 
    214 H214       -0.5337  -29.1485  -48.0068 H         1 UNK         0.0600 
    215 H215       -4.6994  -27.4970  -48.5321 H         1 UNK         0.3000 
    216 H216       -6.3428  -28.2793  -49.7745 H         1 UNK         0.0600 
    217 H217       -7.1858  -30.5513  -49.2793 H         1 UNK         0.0600 
    218 H218       -5.6453  -31.0060  -48.5636 H         1 UNK         0.0600 
    219 H219       -6.6452  -29.7687  -47.8035 H         1 UNK         0.0600 
    220 H220       -4.4011  -27.7203  -51.3953 H         1 UNK         0.3000 
    221 H221       -4.5267  -29.7729  -53.5430 H         1 UNK         0.0600 
    222 H222       -2.0468  -28.1094  -52.8183 H         1 UNK         0.0600 
    223 H223       -2.2338  -29.8182  -52.4490 H         1 UNK         0.0600 
    224 H224       -2.1735  -29.2955  -54.1201 H         1 UNK         0.0600 
    225 H225       -2.9408  -27.7832  -55.1624 H         1 UNK         0.3000 
    226 H226       -5.0791  -25.9669  -56.0124 H         1 UNK         0.0600 
    227 H227       -3.5651  -26.9771  -57.7022 H         1 UNK         0.0600 
    228 H228       -3.3603  -25.2321  -57.6670 H         1 UNK         0.0600 
    229 H229       -2.1586  -26.2693  -56.9085 H         1 UNK         0.0600 
    230 H230       -5.4449  -24.1294  -54.9019 H         1 UNK         0.3000 
    231 H231       -4.0745  -23.4446  -52.6185 H         1 UNK         0.0600 
    232 H232       -5.5678  -21.4350  -52.5830 H         1 UNK         0.0600 
    233 H233       -6.4472  -22.8946  -53.0092 H         1 UNK         0.0600 
    234 H234       -6.0055  -21.7321  -54.2610 H         1 UNK         0.0600 
    235 H235       -2.4739  -22.1598  -51.9979 H         1 UNK         0.3000 
    236 H236       -0.6734  -20.9043  -53.8326 H         1 UNK         0.0600 
    237 H237        0.4413  -20.1506  -51.7263 H         1 UNK         0.0600 
    238 H238       -0.9556  -20.6611  -50.7895 H         1 UNK         0.0600 
    239 H239        0.0348  -21.8574  -51.6273 H         1 UNK         0.0600 
    240 H240       -0.4706  -18.7741  -54.4060 H         1 UNK         0.3000 
    241 H241       -0.9296  -16.6815  -54.8151 H         1 UNK         0.0600 
    242 H242       -3.1421  -18.9955  -55.3663 H         1 UNK         0.3800 
    243 H243       -4.3855  -18.0073  -56.0852 H         1 UNK         0.3800 
    244 H244       -2.6849  -16.2787  -52.3664 H         1 UNK         0.0800 
    245 H245       -0.9861  -16.5482  -52.1590 H         1 UNK         0.0800 
    246 H246       -2.8479  -12.5973  -53.1279 H         1 UNK         0.0800 
    247 H247       -3.7045  -14.1095  -53.2455 H         1 UNK         0.0800 
@<TRIPOS>BOND
     1    1    2 1    
     2    1  127 1    
     3    1  128 1    
     4    1  129 1    
     5    2    3 2    
     6    2    4 am   BACKBONE|DICT|INTERRES
     7    4    5 1    
     8    4  130 1    
     9    5    6 1    
    10    5   65 1    
    11    5  131 1    
    12    6    7 1    
    13    6  132 1    
    14    6  133 1    
    15    7    8 1    
    16    8    9 1    
    17    8  134 1    
    18    8  135 1    
    19    9   10 ar   
    20    9   14 ar   
    21   10   11 ar   
    22   10  136 1    
    23   11   12 ar   
    24   11  126 1    
    25   12   13 ar   
    26   12  137 1    
    27   13   14 ar   
    28   13   15 1    
    29   14  138 1    
    30   15   16 1    
    31   15  139 1    
    32   15  140 1    
    33   16   17 1    
    34   17   18 1    
    35   17  141 1    
    36   17  142 1    
    37   18   19 1    
    38   18   67 1    
    39   18  143 1    
    40   19   20 am   BACKBONE|DICT|INTERRES
    41   19  144 1    
    42   20   21 2    
    43   20   22 1    
    44   22   23 1    
    45   22   24 1    
    46   22  145 1    
    47   23  146 1    
    48   23  147 1    
    49   23  148 1    
    50   24   25 am   BACKBONE|DICT|INTERRES
    51   24  149 1    
    52   25   26 2    
    53   25   27 1    
    54   27   28 1    
    55   27   29 1    
    56   27  150 1    
    57   28  151 1    
    58   28  152 1    
    59   28  153 1    
    60   29   30 am   BACKBONE|DICT|INTERRES
    61   29  154 1    
    62   30   31 2    
    63   30   32 1    
    64   32   33 1    
    65   32   34 1    
    66   32  155 1    
    67   33  156 1    
    68   33  157 1    
    69   33  158 1    
    70   34   35 am   BACKBONE|DICT|INTERRES
    71   34  159 1    
    72   35   36 2    
    73   35   37 1    
    74   37   38 1    
    75   37   39 1    
    76   37  160 1    
    77   38  161 1    
    78   38  162 1    
    79   38  163 1    
    80   39   40 am   BACKBONE|DICT|INTERRES
    81   39  164 1    
    82   40   41 2    
    83   40   42 1    
    84   42   43 1    
    85   42   44 1    
    86   42  165 1    
    87   43  166 1    
    88   43  167 1    
    89   43  168 1    
    90   44   45 am   BACKBONE|DICT|INTERRES
    91   44  169 1    
    92   45   46 2    
    93   45   47 1    
    94   47   48 1    
    95   47   49 1    
    96   47  170 1    
    97   48  171 1    
    98   48  172 1    
    99   48  173 1    
   100   49   50 am   BACKBONE|DICT|INTERRES
   101   49  174 1    
   102   50   51 2    
   103   50   52 1    
   104   52   53 1    
   105   52   54 1    
   106   52  175 1    
   107   53  176 1    
   108   53  177 1    
   109   53  178 1    
   110   54   55 am   BACKBONE|DICT|INTERRES
   111   54  179 1    
   112   55   56 2    
   113   55   57 1    
   114   57   58 1    
   115   57   59 1    
   116   57  180 1    
   117   58  181 1    
   118   58  182 1    
   119   58  183 1    
   120   59   60 am   BACKBONE|DICT|INTERRES
   121   59  184 1    
   122   60   61 2    
   123   60   62 1    
   124   62   63 1    
   125   62   64 1    
   126   62  185 1    
   127   63  186 1    
   128   63  187 1    
   129   63  188 1    
   130   64   65 am   BACKBONE|DICT|INTERRES
   131   64  189 1    
   132   65   66 2    
   133   67   68 2    
   134   67   69 am   BACKBONE|DICT|INTERRES
   135   69   70 1    
   136   69  190 1    
   137   70   71 1    
   138   70   72 1    
   139   70  191 1    
   140   71  192 1    
   141   71  193 1    
   142   71  194 1    
   143   72   73 2    
   144   72   74 am   BACKBONE|DICT|INTERRES
   145   74   75 1    
   146   74  195 1    
   147   75   76 1    
   148   75   77 1    
   149   75  196 1    
   150   76  197 1    
   151   76  198 1    
   152   76  199 1    
   153   77   78 2    
   154   77   79 am   BACKBONE|DICT|INTERRES
   155   79   80 1    
   156   79  200 1    
   157   80   81 1    
   158   80   82 1    
   159   80  201 1    
   160   81  202 1    
   161   81  203 1    
   162   81  204 1    
   163   82   83 2    
   164   82   84 am   BACKBONE|DICT|INTERRES
   165   84   85 1    
   166   84  205 1    
   167   85   86 1    
   168   85   87 1    
   169   85  206 1    
   170   86  207 1    
   171   86  208 1    
   172   86  209 1    
   173   87   88 2    
   174   87   89 am   BACKBONE|DICT|INTERRES
   175   89   90 1    
   176   89  210 1    
   177   90   91 1    
   178   90   92 1    
   179   90  211 1    
   180   91  212 1    
   181   91  213 1    
   182   91  214 1    
   183   92   93 2    
   184   92   94 am   BACKBONE|DICT|INTERRES
   185   94   95 1    
   186   94  215 1    
   187   95   96 1    
   188   95   97 1    
   189   95  216 1    
   190   96  217 1    
   191   96  218 1    
   192   96  219 1    
   193   97   98 2    
   194   97   99 am   BACKBONE|DICT|INTERRES
   195   99  100 1    
   196   99  220 1    
   197  100  101 1    
   198  100  102 1    
   199  100  221 1    
   200  101  222 1    
   201  101  223 1    
   202  101  224 1    
   203  102  103 2    
   204  102  104 am   BACKBONE|DICT|INTERRES
   205  104  105 1    
   206  104  225 1    
   207  105  106 1    
   208  105  107 1    
   209  105  226 1    
   210  106  227 1    
   211  106  228 1    
   212  106  229 1    
   213  107  108 2    
   214  107  109 am   BACKBONE|DICT|INTERRES
   215  109  110 1    
   216  109  230 1    
   217  110  111 1    
   218  110  112 1    
   219  110  231 1    
   220  111  232 1    
   221  111  233 1    
   222  111  234 1    
   223  112  113 2    
   224  112  114 am   BACKBONE|DICT|INTERRES
   225  114  115 1    
   226  114  235 1    
   227  115  116 1    
   228  115  117 1    
   229  115  236 1    
   230  116  237 1    
   231  116  238 1    
   232  116  239 1    
   233  117  118 2    
   234  117  119 am   BACKBONE|DICT|INTERRES
   235  119  120 1    
   236  119  240 1    
   237  120  121 1    
   238  120  124 1    
   239  120  241 1    
   240  121  122 am   BACKBONE|DICT|INTERRES
   241  121  123 2    
   242  122  242 1    
   243  122  243 1    
   244  124  125 1    
   245  124  244 1    
   246  124  245 1    
   247  125  126 1    
   248  126  246 1    
   249  126  247 1    
@<TRIPOS>SUBSTRUCTURE
     1 UNK         1 GROUP             0       ****    0 ROOT    
