@<TRIPOS>MOLECULE
3R540
247   249    1
SMALL
USER_CHARGES


@<TRIPOS>ATOM
      1 CA          9.1046  -13.8764  -48.0695 C.3       0 UNK        -0.1800 
      2 C           7.7120  -13.4684  -48.5299 C.2       0 UNK         0.5000 
      3 O           7.5447  -12.3713  -49.0616 O.2       0 UNK        -0.5000 
      4 N           6.7240  -14.3519  -48.3306 N.am      1 UNK        -0.5000 
      5 CA          5.3049  -14.1687  -48.6537 C.3       1 UNK         0.1400 
      6 C6          5.0346  -13.9965  -50.1741 C.3       23 UNK        -0.0398 
      7 S7          3.3208  -14.4465  -50.6218 S.3       23 UNK        -0.2404 
      8 C8          3.5630  -16.1428  -51.2307 C.3       23 UNK        -0.0205 
      9 C9          2.2368  -16.8171  -51.5450 C.ar      23 UNK        -0.0193 
     10 C10         1.7193  -16.7941  -52.8448 C.ar      23 UNK        -0.1150 
     11 C11         0.5163  -17.4442  -53.1390 C.ar      23 UNK        -0.0193 
     12 C12        -0.1722  -18.1106  -52.1228 C.ar      23 UNK        -0.1150 
     13 C13         0.3284  -18.1304  -50.8200 C.ar      23 UNK        -0.0193 
     14 C14         1.5357  -17.4857  -50.5366 C.ar      23 UNK        -0.1150 
     15 C15        -0.4341  -18.8593  -49.7287 C.3       23 UNK        -0.0205 
     16 S16         0.2341  -20.5294  -49.4864 S.3       23 UNK        -0.2404 
     17 C17        -1.1172  -21.3117  -48.5527 C.3       23 UNK        -0.0398 
     18 CA         -0.5866  -22.4069  -47.6038 C.3       11 UNK         0.1400 
     19 N           0.0307  -21.8566  -46.3963 N.am      11 UNK        -0.5000 
     20 C           0.7241  -22.5728  -45.5015 C.2       10 UNK         0.5000 
     21 O           0.9191  -23.7845  -45.5995 O.2       10 UNK        -0.5000 
     22 CA          1.2321  -21.8209  -44.2597 C.3       10 UNK         0.1400 
     23 CB          2.4140  -20.9037  -44.6085 C.3       10 UNK        -0.1800 
     24 N           0.1703  -21.0465  -43.6174 N.am      10 UNK        -0.5000 
     25 C          -0.9185  -21.5889  -43.0526 C.2       9 UNK         0.5000 
     26 O          -1.1122  -22.8024  -42.9647 O.2       9 UNK        -0.5000 
     27 CA         -1.9858  -20.6150  -42.5228 C.3       9 UNK         0.1400 
     28 CB         -1.6214  -20.1338  -41.1107 C.3       9 UNK        -0.1800 
     29 N          -2.1956  -19.4613  -43.3996 N.am      9 UNK        -0.5000 
     30 C          -2.6779  -19.5372  -44.6486 C.2       8 UNK         0.5000 
     31 O          -3.0070  -20.5896  -45.1916 O.2       8 UNK        -0.5000 
     32 CA         -2.7484  -18.2295  -45.4561 C.3       8 UNK         0.1400 
     33 CB         -3.9360  -17.3666  -45.0091 C.3       8 UNK        -0.1800 
     34 N          -1.5085  -17.4561  -45.3870 N.am      8 UNK        -0.5000 
     35 C          -0.3175  -17.9154  -45.7992 C.2       7 UNK         0.5000 
     36 O          -0.1443  -19.0318  -46.2845 O.2       7 UNK        -0.5000 
     37 CA          0.8935  -16.9911  -45.6113 C.3       7 UNK         0.1400 
     38 CB          0.9677  -15.9764  -46.7600 C.3       7 UNK        -0.1800 
     39 N           0.8794  -16.3030  -44.3195 N.am      7 UNK        -0.5000 
     40 C           0.9584  -16.9327  -43.1371 C.2       6 UNK         0.5000 
     41 O           1.0971  -18.1513  -43.0170 O.2       6 UNK        -0.5000 
     42 CA          0.8074  -16.0603  -41.8782 C.3       6 UNK         0.1400 
     43 CB          2.0012  -15.1085  -41.7084 C.3       6 UNK        -0.1800 
     44 N          -0.4349  -15.2873  -41.8751 N.am      6 UNK        -0.5000 
     45 C          -1.6693  -15.8117  -41.8791 C.2       5 UNK         0.5000 
     46 O          -1.9025  -17.0191  -41.8755 O.2       5 UNK        -0.5000 
     47 CA         -2.8495  -14.8217  -41.9216 C.3       5 UNK         0.1400 
     48 CB         -3.2877  -14.4500  -40.4973 C.3       5 UNK        -0.1800 
     49 N          -2.5768  -13.5960  -42.6764 N.am      5 UNK        -0.5000 
     50 C          -2.2223  -13.5444  -43.9672 C.2       4 UNK         0.5000 
     51 O          -2.0551  -14.5492  -44.6660 O.2       4 UNK        -0.5000 
     52 CA         -1.9918  -12.1491  -44.5759 C.3       4 UNK         0.1400 
     53 CB         -1.6962  -11.0430  -43.5416 C.3       4 UNK        -0.1800 
     54 N          -0.8776  -12.2645  -45.5005 N.am      4 UNK        -0.5000 
     55 C          -0.6950  -11.6066  -46.6420 C.2       3 UNK         0.5000 
     56 O          -1.4225  -10.6885  -47.0260 O.2       3 UNK        -0.5000 
     57 CA          0.4971  -12.0857  -47.4993 C.3       3 UNK         0.1400 
     58 CB          0.5885  -11.3513  -48.8489 C.3       3 UNK        -0.1800 
     59 N           1.8068  -12.0057  -46.8447 N.am      3 UNK        -0.5000 
     60 C           2.2567  -12.6719  -45.7719 C.2       2 UNK         0.5000 
     61 O           1.5668  -13.4136  -45.0673 O.2       2 UNK        -0.5000 
     62 CA          3.7730  -12.5560  -45.5131 C.3       2 UNK         0.1400 
     63 CB          4.1651  -13.0078  -44.0957 C.3       2 UNK        -0.1800 
     64 N           4.5096  -13.3673  -46.4849 N.am      2 UNK        -0.5000 
     65 C           4.6742  -13.0623  -47.7795 C.2       1 UNK         0.5000 
     66 O           4.3540  -11.9745  -48.2651 O.2       1 UNK        -0.5000 
     67 C          -1.6904  -23.4307  -47.2879 C.2       11 UNK         0.5000 
     68 O          -1.7725  -24.4403  -47.9871 O.2       11 UNK        -0.5000 
     69 N          -2.4903  -23.1892  -46.2389 N.am      12 UNK        -0.5000 
     70 CA         -3.5449  -24.0947  -45.7766 C.3       12 UNK         0.1400 
     71 CB         -4.3330  -23.4479  -44.6285 C.3       12 UNK        -0.1800 
     72 C          -3.0139  -25.4787  -45.3591 C.2       12 UNK         0.5000 
     73 O          -3.6815  -26.4829  -45.6066 O.2       12 UNK        -0.5000 
     74 N          -1.8133  -25.5053  -44.7670 N.am      13 UNK        -0.5000 
     75 CA         -1.0951  -26.7289  -44.4266 C.3       13 UNK         0.1400 
     76 CB         -0.0939  -26.4296  -43.2996 C.3       13 UNK        -0.1800 
     77 C          -0.3802  -27.3390  -45.6467 C.2       13 UNK         0.5000 
     78 O          -0.4565  -28.5516  -45.8482 O.2       13 UNK        -0.5000 
     79 N           0.3258  -26.4991  -46.4165 N.am      14 UNK        -0.5000 
     80 CA          1.2227  -26.9268  -47.4905 C.3       14 UNK         0.1400 
     81 CB          2.1990  -25.7866  -47.8193 C.3       14 UNK        -0.1800 
     82 C           0.5130  -27.4015  -48.7709 C.2       14 UNK         0.5000 
     83 O           0.9551  -28.3861  -49.3654 O.2       14 UNK        -0.5000 
     84 N          -0.5320  -26.6814  -49.1976 N.am      15 UNK        -0.5000 
     85 CA         -1.1732  -26.8594  -50.5054 C.3       15 UNK         0.1400 
     86 CB         -0.7026  -25.7299  -51.4366 C.3       15 UNK        -0.1800 
     87 C          -2.7088  -26.8886  -50.4411 C.2       15 UNK         0.5000 
     88 O          -3.3341  -27.3708  -51.3868 O.2       15 UNK        -0.5000 
     89 N          -3.2923  -26.3580  -49.3585 N.am      16 UNK        -0.5000 
     90 CA         -4.7211  -26.1880  -49.0793 C.3       16 UNK         0.1400 
     91 CB         -5.4876  -27.5255  -49.1003 C.3       16 UNK        -0.1800 
     92 C          -5.3828  -25.1221  -49.9703 C.2       16 UNK         0.5000 
     93 O          -5.8447  -24.1035  -49.4566 O.2       16 UNK        -0.5000 
     94 N          -5.4047  -25.3656  -51.2863 N.am      17 UNK        -0.5000 
     95 CA         -6.0774  -24.5386  -52.2902 C.3       17 UNK         0.1400 
     96 CB         -6.0787  -25.2838  -53.6331 C.3       17 UNK        -0.1800 
     97 C          -5.4683  -23.1347  -52.4552 C.2       17 UNK         0.5000 
     98 O          -6.2045  -22.1822  -52.7102 O.2       17 UNK        -0.5000 
     99 N          -4.1430  -23.0214  -52.2851 N.am      18 UNK        -0.5000 
    100 CA        -3.3893  -21.7737  -52.4454 C.3       18 UNK         0.1400 
    101 CB        -1.8851  -22.0817  -52.4239 C.3       18 UNK        -0.1800 
    102 C         -3.7368  -20.6896  -51.4068 C.2       18 UNK         0.5000 
    103 O         -3.5162  -19.5084  -51.6748 O.2       18 UNK        -0.5000 
    104 N         -4.2942  -21.0945  -50.2551 N.am      19 UNK        -0.5000 
    105 CA        -4.7568  -20.1911  -49.1994 C.3       19 UNK         0.1400 
    106 CB        -5.0979  -21.0065  -47.9448 C.3       19 UNK        -0.1800 
    107 C         -5.9581  -19.3272  -49.6290 C.2       19 UNK         0.5000 
    108 O         -6.1307  -18.2281  -49.1011 O.2       19 UNK        -0.5000 
    109 N         -6.7408  -19.8060  -50.6067 N.am      20 UNK        -0.5000 
    110 CA        -7.8441  -19.0813  -51.2332 C.3       20 UNK         0.1400 
    111 CB        -8.8696  -20.0967  -51.7685 C.3       20 UNK        -0.1800 
    112 C         -7.3168  -18.1279  -52.3252 C.2       20 UNK         0.5000 
    113 O         -7.6424  -18.2923  -53.5024 O.2       20 UNK        -0.5000 
    114 N         -6.4835  -17.1630  -51.9078 N.am      21 UNK        -0.5000 
    115 CA        -5.8919  -16.0806  -52.7047 C.3       21 UNK         0.1400 
    116 CB        -6.9649  -15.0168  -53.0160 C.3       21 UNK        -0.1800 
    117 C         -5.1545  -16.5752  -53.9685 C.2       21 UNK         0.5000 
    118 O         -5.3808  -16.0521  -55.0614 O.2       21 UNK        -0.5000 
    119 N         -4.3088  -17.5984  -53.7911 N.am      22 UNK        -0.5000 
    120 CA        -3.5522  -18.3024  -54.8427 C.3       22 UNK         0.1400 
    121 C         -4.4093  -19.2495  -55.7372 C.2       22 UNK         0.5000 
    122 N         -5.6964  -19.4485  -55.4782 N.am      22 UNK        -0.7600 
    123 O         -3.8859  -19.8524  -56.6700 O.2       22 UNK        -0.5000 
    124 C124       -2.6215  -17.3831  -55.6904 C.3       23 UNK        -0.0398 
    125 S125       -1.4960  -16.3594  -54.6798 S.3       23 UNK        -0.2404 
    126 C126       -0.0443  -17.4493  -54.5510 C.3       23 UNK        -0.0205 
    127 H127        9.7933  -13.8789  -48.9144 H         1 UNK         0.0600 
    128 H128        9.1105  -14.8714  -47.6237 H         1 UNK         0.0600 
    129 H129        9.4763  -13.1696  -47.3276 H         1 UNK         0.0600 
    130 H130        6.9496  -15.2293  -47.8825 H         1 UNK         0.3000 
    131 H131        4.8318  -15.1046  -48.3506 H         1 UNK         0.0600 
    132 H132        5.2352  -12.9758  -50.5039 H         1 UNK         0.0800 
    133 H133        5.7175  -14.6251  -50.7469 H         1 UNK         0.0800 
    134 H134        4.1029  -16.7249  -50.4821 H         1 UNK         0.0800 
    135 H135        4.1947  -16.1222  -52.1203 H         1 UNK         0.0800 
    136 H136        2.2576  -16.2779  -53.6274 H         1 UNK         0.1150 
    137 H137       -1.1026  -18.6120  -52.3487 H         1 UNK         0.1150 
    138 H138        1.9361  -17.5144  -49.5334 H         1 UNK         0.1150 
    139 H139       -0.3778  -18.2992  -48.7967 H         1 UNK         0.0800 
    140 H140       -1.4917  -18.9200  -49.9876 H         1 UNK         0.0800 
    141 H141       -1.8023  -21.7309  -49.2886 H         1 UNK         0.0800 
    142 H142       -1.6829  -20.5612  -47.9978 H         1 UNK         0.0800 
    143 H143        0.1901  -22.9630  -48.1329 H         1 UNK         0.0600 
    144 H144       -0.0709  -20.8525  -46.2566 H         1 UNK         0.3000 
    145 H145        1.5839  -22.5650  -43.5420 H         1 UNK         0.0600 
    146 H146        2.1280  -20.1213  -45.3111 H         1 UNK         0.0600 
    147 H147        2.8130  -20.4202  -43.7166 H         1 UNK         0.0600 
    148 H148        3.2266  -21.4716  -45.0630 H         1 UNK         0.0600 
    149 H149        0.2688  -20.0374  -43.6254 H         1 UNK         0.3000 
    150 H150       -2.9294  -21.1608  -42.4611 H         1 UNK         0.0600 
    151 H151       -1.4626  -20.9771  -40.4375 H         1 UNK         0.0600 
    152 H152       -2.4184  -19.5238  -40.6853 H         1 UNK         0.0600 
    153 H153       -0.7085  -19.5365  -41.1136 H         1 UNK         0.0600 
    154 H154       -1.9579  -18.5518  -43.0116 H         1 UNK         0.3000 
    155 H155       -2.9058  -18.4979  -46.5030 H         1 UNK         0.0600 
    156 H156       -3.8472  -17.0723  -43.9642 H         1 UNK         0.0600 
    157 H157       -4.0137  -16.4595  -45.6087 H         1 UNK         0.0600 
    158 H158       -4.8747  -17.9111  -45.1182 H         1 UNK         0.0600 
    159 H159       -1.5732  -16.5140  -45.0143 H         1 UNK         0.3000 
    160 H160        1.7905  -17.6124  -45.6520 H         1 UNK         0.0600 
    161 H161        1.9221  -15.4517  -46.7609 H         1 UNK         0.0600 
    162 H162        0.8745  -16.4666  -47.7283 H         1 UNK         0.0600 
    163 H163        0.1669  -15.2403  -46.6898 H         1 UNK         0.0600 
    164 H164        0.7958  -15.2939  -44.3436 H         1 UNK         0.3000 
    165 H165        0.7849  -16.7308  -41.0165 H         1 UNK         0.0600 
    166 H166        1.9704  -14.6096  -40.7397 H         1 UNK         0.0600 
    167 H167        2.9471  -15.6487  -41.7656 H         1 UNK         0.0600 
    168 H168        2.0132  -14.3376  -42.4786 H         1 UNK         0.0600 
    169 H169       -0.3447  -14.2827  -41.8952 H         1 UNK         0.3000 
    170 H170       -3.6846  -15.3264  -42.4096 H         1 UNK         0.0600 
    171 H171       -3.5213  -15.3426  -39.9152 H         1 UNK         0.0600 
    172 H172       -2.5069  -13.9057  -39.9646 H         1 UNK         0.0600 
    173 H173       -4.1834  -13.8286  -40.5088 H         1 UNK         0.0600 
    174 H174       -2.6811  -12.7272  -42.1726 H         1 UNK         0.3000 
    175 H175       -2.8963  -11.8890  -45.1291 H         1 UNK         0.0600 
    176 H176       -0.8340  -11.2915  -42.9212 H         1 UNK         0.0600 
    177 H177       -1.4834  -10.0945  -44.0351 H         1 UNK         0.0600 
    178 H178       -2.5490  -10.8714  -42.8842 H         1 UNK         0.0600 
    179 H179       -0.1899  -12.9762  -45.2629 H         1 UNK         0.3000 
    180 H180        0.3123  -13.1372  -47.7229 H         1 UNK         0.0600 
    181 H181        0.8035  -10.2904  -48.7148 H         1 UNK         0.0600 
    182 H182       -0.3460  -11.4319  -49.4057 H         1 UNK         0.0600 
    183 H183        1.3733  -11.7761  -49.4758 H         1 UNK         0.0600 
    184 H184        2.5071  -11.4924  -47.3675 H         1 UNK         0.3000 
    185 H185        4.0590  -11.5079  -45.6247 H         1 UNK         0.0600 
    186 H186        5.2257  -12.8386  -43.9092 H         1 UNK         0.0600 
    187 H187        3.6098  -12.4507  -43.3401 H         1 UNK         0.0600 
    188 H188        3.9643  -14.0683  -43.9394 H         1 UNK         0.0600 
    189 H189        4.8095  -14.2753  -46.1614 H         1 UNK         0.3000 
    190 H190       -2.4112  -22.3032  -45.7456 H         1 UNK         0.3000 
    191 H191       -4.2359  -24.2341  -46.6075 H         1 UNK         0.0600 
    192 H192       -3.6882  -23.2029  -43.7850 H         1 UNK         0.0600 
    193 H193       -5.1124  -24.1175  -44.2629 H         1 UNK         0.0600 
    194 H194       -4.8245  -22.5317  -44.9556 H         1 UNK         0.0600 
    195 H195       -1.3382  -24.6291  -44.5903 H         1 UNK         0.3000 
    196 H196       -1.8085  -27.4660  -44.0515 H         1 UNK         0.0600 
    197 H197        0.4512  -27.3295  -43.0120 H         1 UNK         0.0600 
    198 H198       -0.6036  -26.0588  -42.4101 H         1 UNK         0.0600 
    199 H199        0.6408  -25.6807  -43.5974 H         1 UNK         0.0600 
    200 H200        0.3707  -25.5171  -46.1571 H         1 UNK         0.3000 
    201 H201        1.8136  -27.7659  -47.1168 H         1 UNK         0.0600 
    202 H202        2.7825  -25.5023  -46.9435 H         1 UNK         0.0600 
    203 H203        1.6758  -24.8988  -48.1751 H         1 UNK         0.0600 
    204 H204        2.9041  -26.0856  -48.5960 H         1 UNK         0.0600 
    205 H205       -0.8416  -25.8878  -48.6426 H         1 UNK         0.3000 
    206 H206       -0.8759  -27.8117  -50.9492 H         1 UNK         0.0600 
    207 H207        0.3747  -25.7763  -51.5963 H         1 UNK         0.0600 
    208 H208       -1.1790  -25.7963  -52.4157 H         1 UNK         0.0600 
    209 H209       -0.9353  -24.7505  -51.0190 H         1 UNK         0.0600 
    210 H210       -2.6851  -25.8909  -48.6917 H         1 UNK         0.3000 
    211 H211       -4.7799  -25.8190  -48.0577 H         1 UNK         0.0600 
    212 H212       -5.5149  -27.9781  -50.0913 H         1 UNK         0.0600 
    213 H213       -6.5212  -27.3817  -48.7833 H         1 UNK         0.0600 
    214 H214       -5.0364  -28.2443  -48.4163 H         1 UNK         0.0600 
    215 H215       -4.9347  -26.2044  -51.6128 H         1 UNK         0.3000 
    216 H216       -7.1139  -24.4080  -51.9724 H         1 UNK         0.0600 
    217 H217       -6.5897  -24.7034  -54.4025 H         1 UNK         0.0600 
    218 H218       -6.5952  -26.2405  -53.5524 H         1 UNK         0.0600 
    219 H219       -5.0651  -25.4785  -53.9860 H         1 UNK         0.0600 
    220 H220       -3.6154  -23.8539  -52.0691 H         1 UNK         0.3000 
    221 H221       -3.6354  -21.3639  -53.4271 H         1 UNK         0.0600 
    222 H222       -1.5784  -22.5295  -51.4797 H         1 UNK         0.0600 
    223 H223       -1.6106  -22.7680  -53.2252 H         1 UNK         0.0600 
    224 H224       -1.2962  -21.1735  -52.5601 H         1 UNK         0.0600 
    225 H225       -4.4888  -22.0784  -50.1281 H         1 UNK         0.3000 
    226 H226       -3.9365  -19.5138  -48.9526 H         1 UNK         0.0600 
    227 H227       -4.2442  -21.5951  -47.6148 H         1 UNK         0.0600 
    228 H228       -5.3774  -20.3532  -47.1172 H         1 UNK         0.0600 
    229 H229       -5.9290  -21.6903  -48.1205 H         1 UNK         0.0600 
    230 H230       -6.4936  -20.6887  -51.0372 H         1 UNK         0.3000 
    231 H231       -8.3487  -18.4709  -50.4813 H         1 UNK         0.0600 
    232 H232       -9.7341  -19.5878  -52.1965 H         1 UNK         0.0600 
    233 H233       -9.2357  -20.7447  -50.9721 H         1 UNK         0.0600 
    234 H234       -8.4447  -20.7307  -52.5470 H         1 UNK         0.0600 
    235 H235       -6.2475  -17.1620  -50.9214 H         1 UNK         0.3000 
    236 H236       -5.1342  -15.6113  -52.0756 H         1 UNK         0.0600 
    237 H237       -6.5282  -14.1550  -53.5220 H         1 UNK         0.0600 
    238 H238       -7.4341  -14.6511  -52.1027 H         1 UNK         0.0600 
    239 H239       -7.7504  -15.4134  -53.6604 H         1 UNK         0.0600 
    240 H240       -4.2015  -17.9943  -52.8630 H         1 UNK         0.3000 
    241 H241       -2.8972  -18.9809  -54.2962 H         1 UNK         0.0600 
    242 H242       -6.1730  -18.9545  -54.7318 H         1 UNK         0.3800 
    243 H243       -6.2212  -20.0791  -56.0624 H         1 UNK         0.3800 
    244 H244       -2.0219  -17.9751  -56.3838 H         1 UNK         0.0800 
    245 H245       -3.2126  -16.7161  -56.3186 H         1 UNK         0.0800 
    246 H246       -0.3094  -18.4740  -54.8156 H         1 UNK         0.0800 
    247 H247        0.7089  -17.1301  -55.2728 H         1 UNK         0.0800 
@<TRIPOS>BOND
     1    1    2 1    
     2    1  127 1    
     3    1  128 1    
     4    1  129 1    
     5    2    3 2    
     6    2    4 am   BACKBONE|DICT|INTERRES
     7    4    5 1    
     8    4  130 1    
     9    5    6 1    
    10    5   65 1    
    11    5  131 1    
    12    6    7 1    
    13    6  132 1    
    14    6  133 1    
    15    7    8 1    
    16    8    9 1    
    17    8  134 1    
    18    8  135 1    
    19    9   10 ar   
    20    9   14 ar   
    21   10   11 ar   
    22   10  136 1    
    23   11   12 ar   
    24   11  126 1    
    25   12   13 ar   
    26   12  137 1    
    27   13   14 ar   
    28   13   15 1    
    29   14  138 1    
    30   15   16 1    
    31   15  139 1    
    32   15  140 1    
    33   16   17 1    
    34   17   18 1    
    35   17  141 1    
    36   17  142 1    
    37   18   19 1    
    38   18   67 1    
    39   18  143 1    
    40   19   20 am   BACKBONE|DICT|INTERRES
    41   19  144 1    
    42   20   21 2    
    43   20   22 1    
    44   22   23 1    
    45   22   24 1    
    46   22  145 1    
    47   23  146 1    
    48   23  147 1    
    49   23  148 1    
    50   24   25 am   BACKBONE|DICT|INTERRES
    51   24  149 1    
    52   25   26 2    
    53   25   27 1    
    54   27   28 1    
    55   27   29 1    
    56   27  150 1    
    57   28  151 1    
    58   28  152 1    
    59   28  153 1    
    60   29   30 am   BACKBONE|DICT|INTERRES
    61   29  154 1    
    62   30   31 2    
    63   30   32 1    
    64   32   33 1    
    65   32   34 1    
    66   32  155 1    
    67   33  156 1    
    68   33  157 1    
    69   33  158 1    
    70   34   35 am   BACKBONE|DICT|INTERRES
    71   34  159 1    
    72   35   36 2    
    73   35   37 1    
    74   37   38 1    
    75   37   39 1    
    76   37  160 1    
    77   38  161 1    
    78   38  162 1    
    79   38  163 1    
    80   39   40 am   BACKBONE|DICT|INTERRES
    81   39  164 1    
    82   40   41 2    
    83   40   42 1    
    84   42   43 1    
    85   42   44 1    
    86   42  165 1    
    87   43  166 1    
    88   43  167 1    
    89   43  168 1    
    90   44   45 am   BACKBONE|DICT|INTERRES
    91   44  169 1    
    92   45   46 2    
    93   45   47 1    
    94   47   48 1    
    95   47   49 1    
    96   47  170 1    
    97   48  171 1    
    98   48  172 1    
    99   48  173 1    
   100   49   50 am   BACKBONE|DICT|INTERRES
   101   49  174 1    
   102   50   51 2    
   103   50   52 1    
   104   52   53 1    
   105   52   54 1    
   106   52  175 1    
   107   53  176 1    
   108   53  177 1    
   109   53  178 1    
   110   54   55 am   BACKBONE|DICT|INTERRES
   111   54  179 1    
   112   55   56 2    
   113   55   57 1    
   114   57   58 1    
   115   57   59 1    
   116   57  180 1    
   117   58  181 1    
   118   58  182 1    
   119   58  183 1    
   120   59   60 am   BACKBONE|DICT|INTERRES
   121   59  184 1    
   122   60   61 2    
   123   60   62 1    
   124   62   63 1    
   125   62   64 1    
   126   62  185 1    
   127   63  186 1    
   128   63  187 1    
   129   63  188 1    
   130   64   65 am   BACKBONE|DICT|INTERRES
   131   64  189 1    
   132   65   66 2    
   133   67   68 2    
   134   67   69 am   BACKBONE|DICT|INTERRES
   135   69   70 1    
   136   69  190 1    
   137   70   71 1    
   138   70   72 1    
   139   70  191 1    
   140   71  192 1    
   141   71  193 1    
   142   71  194 1    
   143   72   73 2    
   144   72   74 am   BACKBONE|DICT|INTERRES
   145   74   75 1    
   146   74  195 1    
   147   75   76 1    
   148   75   77 1    
   149   75  196 1    
   150   76  197 1    
   151   76  198 1    
   152   76  199 1    
   153   77   78 2    
   154   77   79 am   BACKBONE|DICT|INTERRES
   155   79   80 1    
   156   79  200 1    
   157   80   81 1    
   158   80   82 1    
   159   80  201 1    
   160   81  202 1    
   161   81  203 1    
   162   81  204 1    
   163   82   83 2    
   164   82   84 am   BACKBONE|DICT|INTERRES
   165   84   85 1    
   166   84  205 1    
   167   85   86 1    
   168   85   87 1    
   169   85  206 1    
   170   86  207 1    
   171   86  208 1    
   172   86  209 1    
   173   87   88 2    
   174   87   89 am   BACKBONE|DICT|INTERRES
   175   89   90 1    
   176   89  210 1    
   177   90   91 1    
   178   90   92 1    
   179   90  211 1    
   180   91  212 1    
   181   91  213 1    
   182   91  214 1    
   183   92   93 2    
   184   92   94 am   BACKBONE|DICT|INTERRES
   185   94   95 1    
   186   94  215 1    
   187   95   96 1    
   188   95   97 1    
   189   95  216 1    
   190   96  217 1    
   191   96  218 1    
   192   96  219 1    
   193   97   98 2    
   194   97   99 am   BACKBONE|DICT|INTERRES
   195   99  100 1    
   196   99  220 1    
   197  100  101 1    
   198  100  102 1    
   199  100  221 1    
   200  101  222 1    
   201  101  223 1    
   202  101  224 1    
   203  102  103 2    
   204  102  104 am   BACKBONE|DICT|INTERRES
   205  104  105 1    
   206  104  225 1    
   207  105  106 1    
   208  105  107 1    
   209  105  226 1    
   210  106  227 1    
   211  106  228 1    
   212  106  229 1    
   213  107  108 2    
   214  107  109 am   BACKBONE|DICT|INTERRES
   215  109  110 1    
   216  109  230 1    
   217  110  111 1    
   218  110  112 1    
   219  110  231 1    
   220  111  232 1    
   221  111  233 1    
   222  111  234 1    
   223  112  113 2    
   224  112  114 am   BACKBONE|DICT|INTERRES
   225  114  115 1    
   226  114  235 1    
   227  115  116 1    
   228  115  117 1    
   229  115  236 1    
   230  116  237 1    
   231  116  238 1    
   232  116  239 1    
   233  117  118 2    
   234  117  119 am   BACKBONE|DICT|INTERRES
   235  119  120 1    
   236  119  240 1    
   237  120  121 1    
   238  120  124 1    
   239  120  241 1    
   240  121  122 am   BACKBONE|DICT|INTERRES
   241  121  123 2    
   242  122  242 1    
   243  122  243 1    
   244  124  125 1    
   245  124  244 1    
   246  124  245 1    
   247  125  126 1    
   248  126  246 1    
   249  126  247 1    
@<TRIPOS>SUBSTRUCTURE
     1 UNK         1 GROUP             0       ****    0 ROOT    
