@<TRIPOS>MOLECULE
3R540
247   249    1
SMALL
USER_CHARGES


@<TRIPOS>ATOM
      1 CA         -1.6002  -11.9732  -44.9329 C.3       0 UNK        -0.1800 
      2 C          -0.5640  -11.7378  -46.0231 C.2       0 UNK         0.5000 
      3 O          -0.6133  -10.7146  -46.7060 O.2       0 UNK        -0.5000 
      4 N           0.3690  -12.6820  -46.1905 N.am      1 UNK        -0.5000 
      5 CA          1.4502  -12.6427  -47.1826 C.3       1 UNK         0.1400 
      6 C6          2.1363  -14.0199  -47.3701 C.3       23 UNK        -0.0398 
      7 S7          0.9761  -15.3895  -47.6904 S.3       23 UNK        -0.2404 
      8 C8          0.8919  -15.4054  -49.5035 C.3       23 UNK        -0.0205 
      9 C9          0.0488  -16.5757  -49.9848 C.ar      23 UNK        -0.0193 
     10 C10        -1.3089  -16.4069  -50.2734 C.ar      23 UNK        -0.1150 
     11 C11        -2.0817  -17.4851  -50.7191 C.ar      23 UNK        -0.0193 
     12 C12        -1.4858  -18.7436  -50.8446 C.ar      23 UNK        -0.1150 
     13 C13        -0.1311  -18.9302  -50.5573 C.ar      23 UNK        -0.0193 
     14 C14         0.6333  -17.8346  -50.1421 C.ar      23 UNK        -0.1150 
     15 C15         0.4872  -20.3171  -50.7211 C.3       23 UNK        -0.0205 
     16 S16         1.6869  -20.7623  -49.4198 S.3       23 UNK        -0.2404 
     17 C17         0.6711  -20.6136  -47.9129 C.3       23 UNK        -0.0398 
     18 CA          0.2250  -21.9816  -47.3514 C.3       11 UNK         0.1400 
     19 N          -0.0760  -21.8938  -45.9236 N.am      11 UNK        -0.5000 
     20 C          -0.3377  -22.9354  -45.1240 C.2       10 UNK         0.5000 
     21 O          -0.3086  -24.1100  -45.4914 O.2       10 UNK        -0.5000 
     22 CA         -0.7450  -22.5947  -43.6810 C.3       10 UNK         0.1400 
     23 CB          0.4928  -22.3456  -42.8064 C.3       10 UNK        -0.1800 
     24 N          -1.6251  -21.4265  -43.6284 N.am      10 UNK        -0.5000 
     25 C          -2.8951  -21.4209  -44.0563 C.2       9 UNK         0.5000 
     26 O          -3.4677  -22.4114  -44.5114 O.2       9 UNK        -0.5000 
     27 CA         -3.6330  -20.0705  -44.0019 C.3       9 UNK         0.1400 
     28 CB         -4.1140  -19.7678  -42.5748 C.3       9 UNK        -0.1800 
     29 N          -2.8168  -18.9557  -44.4875 N.am      9 UNK        -0.5000 
     30 C          -2.3924  -18.8281  -45.7523 C.2       8 UNK         0.5000 
     31 O          -2.6336  -19.6429  -46.6378 O.2       8 UNK        -0.5000 
     32 CA         -1.5194  -17.6089  -46.0820 C.3       8 UNK         0.1400 
     33 CB         -2.4036  -16.3844  -46.3667 C.3       8 UNK        -0.1800 
     34 N          -0.5414  -17.2690  -45.0484 N.am      8 UNK        -0.5000 
     35 C           0.3819  -18.0734  -44.5090 C.2       7 UNK         0.5000 
     36 O           0.4372  -19.2847  -44.7260 O.2       7 UNK        -0.5000 
     37 CA          1.4280  -17.4362  -43.5661 C.3       7 UNK         0.1400 
     38 CB          2.7072  -17.0897  -44.3493 C.3       7 UNK        -0.1800 
     39 N           0.9890  -16.2792  -42.7655 N.am      7 UNK        -0.5000 
     40 C           0.5549  -15.0777  -43.1758 C.2       6 UNK         0.5000 
     41 O           0.3692  -14.7727  -44.3514 O.2       6 UNK        -0.5000 
     42 CA          0.2920  -14.0280  -42.0846 C.3       6 UNK         0.1400 
     43 CB         -1.0374  -14.3061  -41.3671 C.3       6 UNK        -0.1800 
     44 N           1.3783  -13.9403  -41.1078 N.am      6 UNK        -0.5000 
     45 C           2.6159  -13.5211  -41.4018 C.2       5 UNK         0.5000 
     46 O           2.9911  -13.2067  -42.5342 O.2       5 UNK        -0.5000 
     47 CA          3.6084  -13.4377  -40.2385 C.3       5 UNK         0.1400 
     48 CB          4.4859  -14.7010  -40.1738 C.3       5 UNK        -0.1800 
     49 N           4.4284  -12.2525  -40.4510 N.am      5 UNK        -0.5000 
     50 C           5.1583  -11.6214  -39.5265 C.2       4 UNK         0.5000 
     51 O           5.2632  -11.9991  -38.3588 O.2       4 UNK        -0.5000 
     52 CA          5.8867  -10.3430  -39.9814 C.3       4 UNK         0.1400 
     53 CB          7.2673  -10.6887  -40.5608 C.3       4 UNK        -0.1800 
     54 N           5.1328   -9.5690  -40.9713 N.am      4 UNK        -0.5000 
     55 C           4.0196   -8.8672  -40.7094 C.2       3 UNK         0.5000 
     56 O           3.4942   -8.8102  -39.5971 O.2       3 UNK        -0.5000 
     57 CA          3.3946   -8.0847  -41.8817 C.3       3 UNK         0.1400 
     58 CB          3.8817   -6.6273  -41.8723 C.3       3 UNK        -0.1800 
     59 N           3.7002   -8.6809  -43.1845 N.am      3 UNK        -0.5000 
     60 C           3.0689   -9.7495  -43.6850 C.2       2 UNK         0.5000 
     61 O           2.1111  -10.2985  -43.1340 O.2       2 UNK        -0.5000 
     62 CA          3.6164  -10.2967  -45.0115 C.3       2 UNK         0.1400 
     63 CB          4.9908  -10.9638  -44.8137 C.3       2 UNK        -0.1800 
     64 N           2.6774  -11.2715  -45.5510 N.am      2 UNK        -0.5000 
     65 C           2.5161  -11.5780  -46.8434 C.2       1 UNK         0.5000 
     66 O           3.1710  -11.0659  -47.7527 O.2       1 UNK        -0.5000 
     67 C          -0.9563  -22.5795  -48.1441 C.2       11 UNK         0.5000 
     68 O          -0.7539  -23.5071  -48.9273 O.2       11 UNK        -0.5000 
     69 N          -2.1750  -22.0834  -47.8843 N.am      12 UNK        -0.5000 
     70 CA         -3.4217  -22.5947  -48.4484 C.3       12 UNK         0.1400 
     71 CB         -4.5990  -21.7002  -48.0369 C.3       12 UNK        -0.1800 
     72 C          -3.6931  -24.0516  -48.0495 C.2       12 UNK         0.5000 
     73 O          -4.0736  -24.8377  -48.9127 O.2       12 UNK        -0.5000 
     74 N          -3.4577  -24.4032  -46.7772 N.am      13 UNK        -0.5000 
     75 CA         -3.5873  -25.7715  -46.2706 C.3       13 UNK         0.1400 
     76 CB         -3.3937  -25.7875  -44.7471 C.3       13 UNK        -0.1800 
     77 C          -2.6272  -26.7590  -46.9614 C.2       13 UNK         0.5000 
     78 O          -3.0490  -27.8577  -47.3237 O.2       13 UNK        -0.5000 
     79 N          -1.3731  -26.3356  -47.1736 N.am      14 UNK        -0.5000 
     80 CA         -0.3533  -27.0939  -47.9012 C.3       14 UNK         0.1400 
     81 CB          1.0160  -26.4268  -47.7005 C.3       14 UNK        -0.1800 
     82 C          -0.6738  -27.2465  -49.4016 C.2       14 UNK         0.5000 
     83 O          -0.4646  -28.3224  -49.9627 O.2       14 UNK        -0.5000 
     84 N          -1.1898  -26.1752  -50.0177 N.am      15 UNK        -0.5000 
     85 CA         -1.5750  -26.1161  -51.4300 C.3       15 UNK         0.1400 
     86 CB         -1.6193  -24.6387  -51.8536 C.3       15 UNK        -0.1800 
     87 C          -2.9259  -26.7907  -51.7453 C.2       15 UNK         0.5000 
     88 O          -3.2685  -26.9172  -52.9217 O.2       15 UNK        -0.5000 
     89 N          -3.6962  -27.1480  -50.7060 N.am      16 UNK        -0.5000 
     90 CA         -5.0997  -27.5808  -50.7546 C.3       16 UNK         0.1400 
     91 CB         -5.2288  -28.9636  -51.4256 C.3       16 UNK        -0.1800 
     92 C          -6.0125  -26.5079  -51.3925 C.2       16 UNK         0.5000 
     93 O          -6.9429  -26.8342  -52.1323 O.2       16 UNK        -0.5000 
     94 N          -5.6839  -25.2380  -51.1128 N.am      17 UNK        -0.5000 
     95 CA         -6.2180  -23.9729  -51.6222 C.3       17 UNK         0.1400 
     96 CB         -7.6883  -23.7873  -51.2092 C.3       17 UNK        -0.1800 
     97 C          -6.0293  -23.7613  -53.1364 C.2       17 UNK         0.5000 
     98 O          -5.5242  -22.7136  -53.5437 O.2       17 UNK        -0.5000 
     99 N          -6.4485  -24.7474  -53.9358 N.am      18 UNK        -0.5000 
    100 CA        -6.5610  -24.7014  -55.3911 C.3       18 UNK         0.1400 
    101 CB        -7.2214  -25.9978  -55.8831 C.3       18 UNK        -0.1800 
    102 C         -5.2361  -24.4585  -56.1306 C.2       18 UNK         0.5000 
    103 O         -5.2224  -23.6796  -57.0840 O.2       18 UNK        -0.5000 
    104 N         -4.1461  -25.1002  -55.6829 N.am      19 UNK        -0.5000 
    105 CA        -2.8375  -25.0246  -56.3454 C.3       19 UNK         0.1400 
    106 CB        -1.9152  -26.1291  -55.8089 C.3       19 UNK        -0.1800 
    107 C         -2.1613  -23.6450  -56.2244 C.2       19 UNK         0.5000 
    108 O         -1.3417  -23.2992  -57.0760 O.2       19 UNK        -0.5000 
    109 N         -2.5265  -22.8829  -55.1859 N.am      20 UNK        -0.5000 
    110 CA        -2.0555  -21.5186  -54.9437 C.3       20 UNK         0.1400 
    111 CB        -1.6868  -21.3904  -53.4582 C.3       20 UNK        -0.1800 
    112 C         -3.1016  -20.4569  -55.3377 C.2       20 UNK         0.5000 
    113 O         -2.8114  -19.2657  -55.2235 O.2       20 UNK        -0.5000 
    114 N         -4.2964  -20.8968  -55.7664 N.am      21 UNK        -0.5000 
    115 CA        -5.4894  -20.0937  -56.0621 C.3       21 UNK         0.1400 
    116 CB        -5.2724  -19.2372  -57.3266 C.3       21 UNK        -0.1800 
    117 C         -5.9698  -19.2718  -54.8439 C.2       21 UNK         0.5000 
    118 O         -6.3968  -18.1255  -54.9941 O.2       21 UNK        -0.5000 
    119 N         -5.8728  -19.8796  -53.6552 N.am      22 UNK        -0.5000 
    120 CA        -6.1847  -19.2738  -52.3507 C.3       22 UNK         0.1400 
    121 C         -7.6260  -19.5806  -51.8437 C.2       22 UNK         0.5000 
    122 N         -8.4656  -20.2694  -52.6077 N.am      22 UNK        -0.7600 
    123 O         -8.0014  -19.1755  -50.7478 O.2       22 UNK        -0.5000 
    124 C124       -5.0860  -19.6341  -51.3102 C.3       23 UNK        -0.0398 
    125 S125       -4.7159  -18.2701  -50.1496 S.3       23 UNK        -0.2404 
    126 C126       -3.5380  -17.2697  -51.1186 C.3       23 UNK        -0.0205 
    127 H127       -1.6593  -13.0252  -44.6539 H         1 UNK         0.0600 
    128 H128       -2.5873  -11.6631  -45.2759 H         1 UNK         0.0600 
    129 H129       -1.3479  -11.3940  -44.0446 H         1 UNK         0.0600 
    130 H130        0.3571  -13.5085  -45.5931 H         1 UNK         0.3000 
    131 H131        1.0057  -12.3603  -48.1392 H         1 UNK         0.0600 
    132 H132        2.6984  -14.2822  -46.4719 H         1 UNK         0.0800 
    133 H133        2.8666  -13.9781  -48.1801 H         1 UNK         0.0800 
    134 H134        0.4740  -14.4617  -49.8572 H         1 UNK         0.0800 
    135 H135        1.8982  -15.4783  -49.9186 H         1 UNK         0.0800 
    136 H136       -1.7584  -15.4299  -50.1643 H         1 UNK         0.1150 
    137 H137       -2.0767  -19.5825  -51.1751 H         1 UNK         0.1150 
    138 H138        1.6842  -17.9610  -49.9242 H         1 UNK         0.1150 
    139 H139       -0.2910  -21.0816  -50.7434 H         1 UNK         0.0800 
    140 H140        0.9890  -20.3605  -51.6884 H         1 UNK         0.0800 
    141 H141       -0.1817  -19.9527  -48.0722 H         1 UNK         0.0800 
    142 H142        1.2988  -20.1026  -47.1816 H         1 UNK         0.0800 
    143 H143        1.0622  -22.6772  -47.4432 H         1 UNK         0.0600 
    144 H144       -0.0846  -20.9621  -45.5176 H         1 UNK         0.3000 
    145 H145       -1.2842  -23.4520  -43.2725 H         1 UNK         0.0600 
    146 H146        1.1548  -23.2124  -42.8136 H         1 UNK         0.0600 
    147 H147        1.0704  -21.4889  -43.1557 H         1 UNK         0.0600 
    148 H148        0.2116  -22.1603  -41.7697 H         1 UNK         0.0600 
    149 H149       -1.2085  -20.5556  -43.3325 H         1 UNK         0.3000 
    150 H150       -4.5110  -20.1487  -44.6468 H         1 UNK         0.0600 
    151 H151       -4.7145  -18.8584  -42.5461 H         1 UNK         0.0600 
    152 H152       -3.2792  -19.6410  -41.8844 H         1 UNK         0.0600 
    153 H153       -4.7359  -20.5786  -42.1930 H         1 UNK         0.0600 
    154 H154       -2.5576  -18.2457  -43.8187 H         1 UNK         0.3000 
    155 H155       -0.9594  -17.8403  -46.9902 H         1 UNK         0.0600 
    156 H156       -3.1094  -16.5936  -47.1721 H         1 UNK         0.0600 
    157 H157       -1.8083  -15.5256  -46.6757 H         1 UNK         0.0600 
    158 H158       -2.9796  -16.0904  -45.4886 H         1 UNK         0.0600 
    159 H159       -0.4303  -16.2776  -44.8492 H         1 UNK         0.3000 
    160 H160        1.6893  -18.2094  -42.8420 H         1 UNK         0.0600 
    161 H161        3.0972  -17.9654  -44.8697 H         1 UNK         0.0600 
    162 H162        3.4918  -16.7289  -43.6841 H         1 UNK         0.0600 
    163 H163        2.5250  -16.3203  -45.0993 H         1 UNK         0.0600 
    164 H164        1.0739  -16.4078  -41.7673 H         1 UNK         0.3000 
    165 H165        0.2111  -13.0562  -42.5772 H         1 UNK         0.0600 
    166 H166       -1.2774  -13.5104  -40.6617 H         1 UNK         0.0600 
    167 H167       -1.8607  -14.3639  -42.0807 H         1 UNK         0.0600 
    168 H168       -1.0133  -15.2470  -40.8161 H         1 UNK         0.0600 
    169 H169        1.1522  -14.1831  -40.1541 H         1 UNK         0.3000 
    170 H170        3.0550  -13.3256  -39.3037 H         1 UNK         0.0600 
    171 H171        5.1792  -14.6626  -39.3337 H         1 UNK         0.0600 
    172 H172        3.8741  -15.5951  -40.0479 H         1 UNK         0.0600 
    173 H173        5.0712  -14.8287  -41.0854 H         1 UNK         0.0600 
    174 H174        4.3629  -11.8690  -41.3853 H         1 UNK         0.3000 
    175 H175        6.0359   -9.7157  -39.0999 H         1 UNK         0.0600 
    176 H176        7.1857  -11.2967  -41.4628 H         1 UNK         0.0600 
    177 H177        7.8268   -9.7874  -40.8121 H         1 UNK         0.0600 
    178 H178        7.8638  -11.2495  -39.8399 H         1 UNK         0.0600 
    179 H179        5.4999   -9.5533  -41.9105 H         1 UNK         0.3000 
    180 H180        2.3118   -8.0799  -41.7376 H         1 UNK         0.0600 
    181 H181        3.4008   -6.0459  -42.6593 H         1 UNK         0.0600 
    182 H182        4.9608   -6.5610  -42.0164 H         1 UNK         0.0600 
    183 H183        3.6470   -6.1433  -40.9233 H         1 UNK         0.0600 
    184 H184        4.4609   -8.2669  -43.7044 H         1 UNK         0.3000 
    185 H185        3.7100   -9.4597  -45.7066 H         1 UNK         0.0600 
    186 H186        5.3816  -11.3499  -45.7551 H         1 UNK         0.0600 
    187 H187        5.7256  -10.2564  -44.4284 H         1 UNK         0.0600 
    188 H188        4.9334  -11.7963  -44.1111 H         1 UNK         0.0600 
    189 H189        2.0737  -11.6960  -44.8567 H         1 UNK         0.3000 
    190 H190       -2.2660  -21.2799  -47.2645 H         1 UNK         0.3000 
    191 H191       -3.3312  -22.5555  -49.5357 H         1 UNK         0.0600 
    192 H192       -4.7305  -21.6795  -46.9546 H         1 UNK         0.0600 
    193 H193       -5.5328  -22.0525  -48.4770 H         1 UNK         0.0600 
    194 H194       -4.4484  -20.6746  -48.3711 H         1 UNK         0.0600 
    195 H195       -3.1898  -23.6895  -46.1079 H         1 UNK         0.3000 
    196 H196       -4.6061  -26.1030  -46.4820 H         1 UNK         0.0600 
    197 H197       -3.5175  -26.7953  -44.3490 H         1 UNK         0.0600 
    198 H198       -4.1253  -25.1501  -44.2504 H         1 UNK         0.0600 
    199 H199       -2.4006  -25.4421  -44.4611 H         1 UNK         0.0600 
    200 H200       -1.0946  -25.4304  -46.8071 H         1 UNK         0.3000 
    201 H201       -0.3076  -28.0955  -47.4686 H         1 UNK         0.0600 
    202 H202        1.2811  -26.3826  -46.6440 H         1 UNK         0.0600 
    203 H203        1.0301  -25.4083  -48.0897 H         1 UNK         0.0600 
    204 H204        1.8017  -26.9851  -48.2110 H         1 UNK         0.0600 
    205 H205       -1.2655  -25.3065  -49.4954 H         1 UNK         0.3000 
    206 H206       -0.8108  -26.6210  -52.0242 H         1 UNK         0.0600 
    207 H207       -1.8679  -24.5350  -52.9089 H         1 UNK         0.0600 
    208 H208       -2.3657  -24.0813  -51.2869 H         1 UNK         0.0600 
    209 H209       -0.6540  -24.1560  -51.6998 H         1 UNK         0.0600 
    210 H210       -3.3374  -26.9493  -49.7811 H         1 UNK         0.3000 
    211 H211       -5.4240  -27.6816  -49.7179 H         1 UNK         0.0600 
    212 H212       -4.9835  -28.9254  -52.4873 H         1 UNK         0.0600 
    213 H213       -6.2469  -29.3447  -51.3400 H         1 UNK         0.0600 
    214 H214       -4.5690  -29.6923  -50.9547 H         1 UNK         0.0600 
    215 H215       -4.9329  -25.1234  -50.4328 H         1 UNK         0.3000 
    216 H216       -5.6398  -23.1916  -51.1265 H         1 UNK         0.0600 
    217 H217       -8.0598  -22.8109  -51.5187 H         1 UNK         0.0600 
    218 H218       -7.8018  -23.8484  -50.1268 H         1 UNK         0.0600 
    219 H219       -8.3378  -24.5398  -51.6570 H         1 UNK         0.0600 
    220 H220       -6.7976  -25.5862  -53.4774 H         1 UNK         0.3000 
    221 H221       -7.2255  -23.8702  -55.6358 H         1 UNK         0.0600 
    222 H222       -6.6292  -26.8752  -55.6195 H         1 UNK         0.0600 
    223 H223       -8.2143  -26.1228  -55.4505 H         1 UNK         0.0600 
    224 H224       -7.3385  -25.9922  -56.9677 H         1 UNK         0.0600 
    225 H225       -4.2207  -25.7094  -54.8778 H         1 UNK         0.3000 
    226 H226       -2.9950  -25.2145  -57.4094 H         1 UNK         0.0600 
    227 H227       -2.3869  -27.1096  -55.8765 H         1 UNK         0.0600 
    228 H228       -0.9893  -26.1735  -56.3837 H         1 UNK         0.0600 
    229 H229       -1.6407  -25.9586  -54.7690 H         1 UNK         0.0600 
    230 H230       -3.2250  -23.2401  -54.5486 H         1 UNK         0.3000 
    231 H231       -1.1574  -21.3148  -55.5300 H         1 UNK         0.0600 
    232 H232       -2.5436  -21.5760  -52.8094 H         1 UNK         0.0600 
    233 H233       -0.8989  -22.0928  -53.1879 H         1 UNK         0.0600 
    234 H234       -1.3104  -20.3908  -53.2416 H         1 UNK         0.0600 
    235 H235       -4.4247  -21.8966  -55.8468 H         1 UNK         0.3000 
    236 H236       -6.2867  -20.8057  -56.2800 H         1 UNK         0.0600 
    237 H237       -4.5225  -18.4617  -57.1681 H         1 UNK         0.0600 
    238 H238       -4.9476  -19.8516  -58.1663 H         1 UNK         0.0600 
    239 H239       -6.1965  -18.7419  -57.6266 H         1 UNK         0.0600 
    240 H240       -5.5796  -20.8539  -53.6355 H         1 UNK         0.3000 
    241 H241       -6.1652  -18.1909  -52.4842 H         1 UNK         0.0600 
    242 H242       -9.4010  -20.4490  -52.2787 H         1 UNK         0.3800 
    243 H243       -8.1818  -20.5910  -53.5186 H         1 UNK         0.3800 
    244 H244       -5.3604  -20.5230  -50.7403 H         1 UNK         0.0800 
    245 H245       -4.1596  -19.8973  -51.8188 H         1 UNK         0.0800 
    246 H246       -3.6508  -17.4804  -52.1833 H         1 UNK         0.0800 
    247 H247       -3.8106  -16.2210  -50.9923 H         1 UNK         0.0800 
@<TRIPOS>BOND
     1    1    2 1    
     2    1  127 1    
     3    1  128 1    
     4    1  129 1    
     5    2    3 2    
     6    2    4 am   BACKBONE|DICT|INTERRES
     7    4    5 1    
     8    4  130 1    
     9    5    6 1    
    10    5   65 1    
    11    5  131 1    
    12    6    7 1    
    13    6  132 1    
    14    6  133 1    
    15    7    8 1    
    16    8    9 1    
    17    8  134 1    
    18    8  135 1    
    19    9   10 ar   
    20    9   14 ar   
    21   10   11 ar   
    22   10  136 1    
    23   11   12 ar   
    24   11  126 1    
    25   12   13 ar   
    26   12  137 1    
    27   13   14 ar   
    28   13   15 1    
    29   14  138 1    
    30   15   16 1    
    31   15  139 1    
    32   15  140 1    
    33   16   17 1    
    34   17   18 1    
    35   17  141 1    
    36   17  142 1    
    37   18   19 1    
    38   18   67 1    
    39   18  143 1    
    40   19   20 am   BACKBONE|DICT|INTERRES
    41   19  144 1    
    42   20   21 2    
    43   20   22 1    
    44   22   23 1    
    45   22   24 1    
    46   22  145 1    
    47   23  146 1    
    48   23  147 1    
    49   23  148 1    
    50   24   25 am   BACKBONE|DICT|INTERRES
    51   24  149 1    
    52   25   26 2    
    53   25   27 1    
    54   27   28 1    
    55   27   29 1    
    56   27  150 1    
    57   28  151 1    
    58   28  152 1    
    59   28  153 1    
    60   29   30 am   BACKBONE|DICT|INTERRES
    61   29  154 1    
    62   30   31 2    
    63   30   32 1    
    64   32   33 1    
    65   32   34 1    
    66   32  155 1    
    67   33  156 1    
    68   33  157 1    
    69   33  158 1    
    70   34   35 am   BACKBONE|DICT|INTERRES
    71   34  159 1    
    72   35   36 2    
    73   35   37 1    
    74   37   38 1    
    75   37   39 1    
    76   37  160 1    
    77   38  161 1    
    78   38  162 1    
    79   38  163 1    
    80   39   40 am   BACKBONE|DICT|INTERRES
    81   39  164 1    
    82   40   41 2    
    83   40   42 1    
    84   42   43 1    
    85   42   44 1    
    86   42  165 1    
    87   43  166 1    
    88   43  167 1    
    89   43  168 1    
    90   44   45 am   BACKBONE|DICT|INTERRES
    91   44  169 1    
    92   45   46 2    
    93   45   47 1    
    94   47   48 1    
    95   47   49 1    
    96   47  170 1    
    97   48  171 1    
    98   48  172 1    
    99   48  173 1    
   100   49   50 am   BACKBONE|DICT|INTERRES
   101   49  174 1    
   102   50   51 2    
   103   50   52 1    
   104   52   53 1    
   105   52   54 1    
   106   52  175 1    
   107   53  176 1    
   108   53  177 1    
   109   53  178 1    
   110   54   55 am   BACKBONE|DICT|INTERRES
   111   54  179 1    
   112   55   56 2    
   113   55   57 1    
   114   57   58 1    
   115   57   59 1    
   116   57  180 1    
   117   58  181 1    
   118   58  182 1    
   119   58  183 1    
   120   59   60 am   BACKBONE|DICT|INTERRES
   121   59  184 1    
   122   60   61 2    
   123   60   62 1    
   124   62   63 1    
   125   62   64 1    
   126   62  185 1    
   127   63  186 1    
   128   63  187 1    
   129   63  188 1    
   130   64   65 am   BACKBONE|DICT|INTERRES
   131   64  189 1    
   132   65   66 2    
   133   67   68 2    
   134   67   69 am   BACKBONE|DICT|INTERRES
   135   69   70 1    
   136   69  190 1    
   137   70   71 1    
   138   70   72 1    
   139   70  191 1    
   140   71  192 1    
   141   71  193 1    
   142   71  194 1    
   143   72   73 2    
   144   72   74 am   BACKBONE|DICT|INTERRES
   145   74   75 1    
   146   74  195 1    
   147   75   76 1    
   148   75   77 1    
   149   75  196 1    
   150   76  197 1    
   151   76  198 1    
   152   76  199 1    
   153   77   78 2    
   154   77   79 am   BACKBONE|DICT|INTERRES
   155   79   80 1    
   156   79  200 1    
   157   80   81 1    
   158   80   82 1    
   159   80  201 1    
   160   81  202 1    
   161   81  203 1    
   162   81  204 1    
   163   82   83 2    
   164   82   84 am   BACKBONE|DICT|INTERRES
   165   84   85 1    
   166   84  205 1    
   167   85   86 1    
   168   85   87 1    
   169   85  206 1    
   170   86  207 1    
   171   86  208 1    
   172   86  209 1    
   173   87   88 2    
   174   87   89 am   BACKBONE|DICT|INTERRES
   175   89   90 1    
   176   89  210 1    
   177   90   91 1    
   178   90   92 1    
   179   90  211 1    
   180   91  212 1    
   181   91  213 1    
   182   91  214 1    
   183   92   93 2    
   184   92   94 am   BACKBONE|DICT|INTERRES
   185   94   95 1    
   186   94  215 1    
   187   95   96 1    
   188   95   97 1    
   189   95  216 1    
   190   96  217 1    
   191   96  218 1    
   192   96  219 1    
   193   97   98 2    
   194   97   99 am   BACKBONE|DICT|INTERRES
   195   99  100 1    
   196   99  220 1    
   197  100  101 1    
   198  100  102 1    
   199  100  221 1    
   200  101  222 1    
   201  101  223 1    
   202  101  224 1    
   203  102  103 2    
   204  102  104 am   BACKBONE|DICT|INTERRES
   205  104  105 1    
   206  104  225 1    
   207  105  106 1    
   208  105  107 1    
   209  105  226 1    
   210  106  227 1    
   211  106  228 1    
   212  106  229 1    
   213  107  108 2    
   214  107  109 am   BACKBONE|DICT|INTERRES
   215  109  110 1    
   216  109  230 1    
   217  110  111 1    
   218  110  112 1    
   219  110  231 1    
   220  111  232 1    
   221  111  233 1    
   222  111  234 1    
   223  112  113 2    
   224  112  114 am   BACKBONE|DICT|INTERRES
   225  114  115 1    
   226  114  235 1    
   227  115  116 1    
   228  115  117 1    
   229  115  236 1    
   230  116  237 1    
   231  116  238 1    
   232  116  239 1    
   233  117  118 2    
   234  117  119 am   BACKBONE|DICT|INTERRES
   235  119  120 1    
   236  119  240 1    
   237  120  121 1    
   238  120  124 1    
   239  120  241 1    
   240  121  122 am   BACKBONE|DICT|INTERRES
   241  121  123 2    
   242  122  242 1    
   243  122  243 1    
   244  124  125 1    
   245  124  244 1    
   246  124  245 1    
   247  125  126 1    
   248  126  246 1    
   249  126  247 1    
@<TRIPOS>SUBSTRUCTURE
     1 UNK         1 GROUP             0       ****    0 ROOT    
