@<TRIPOS>MOLECULE
3R540
247   249    1
SMALL
USER_CHARGES


@<TRIPOS>ATOM
      1 CA          2.9877  -10.0878  -51.0534 C.3       0 UNK        -0.1800 
      2 C           2.6659  -10.9860  -49.8675 C.2       0 UNK         0.5000 
      3 O           1.7621  -10.6737  -49.0943 O.2       0 UNK        -0.5000 
      4 N           3.4142  -12.0876  -49.7172 N.am      1 UNK        -0.5000 
      5 CA          3.2694  -13.1277  -48.6844 C.3       1 UNK         0.1400 
      6 C6          1.8821  -13.8331  -48.6976 C.3       23 UNK        -0.0398 
      7 S7          1.5904  -14.7961  -50.2154 S.3       23 UNK        -0.2404 
      8 C8          0.2970  -15.9588  -49.6624 C.3       23 UNK        -0.0205 
      9 C9          0.3212  -17.2220  -50.5080 C.ar      23 UNK        -0.0193 
     10 C10        -0.2756  -17.2386  -51.7717 C.ar      23 UNK        -0.1150 
     11 C11        -0.1719  -18.3677  -52.5890 C.ar      23 UNK        -0.0193 
     12 C12         0.5017  -19.4977  -52.1169 C.ar      23 UNK        -0.1150 
     13 C13         1.0759  -19.5102  -50.8414 C.ar      23 UNK        -0.0193 
     14 C14         0.9869  -18.3610  -50.0462 C.ar      23 UNK        -0.1150 
     15 C15         1.8588  -20.7395  -50.3816 C.3       23 UNK        -0.0205 
     16 S16         1.7076  -21.1097  -48.6004 S.3       23 UNK        -0.2404 
     17 C17         0.0062  -21.7525  -48.4932 C.3       23 UNK        -0.0398 
     18 CA         -0.1187  -22.8207  -47.3803 C.3       11 UNK         0.1400 
     19 N          -0.0357  -22.2493  -46.0303 N.am      11 UNK        -0.5000 
     20 C           0.0402  -22.9729  -44.9033 C.2       10 UNK         0.5000 
     21 O           0.0623  -24.2032  -44.8820 O.2       10 UNK        -0.5000 
     22 CA          0.0433  -22.2036  -43.5704 C.3       10 UNK         0.1400 
     23 CB          1.4151  -21.5677  -43.3000 C.3       10 UNK        -0.1800 
     24 N          -1.0031  -21.1842  -43.5047 N.am      10 UNK        -0.5000 
     25 C          -2.3178  -21.4428  -43.5530 C.2       9 UNK         0.5000 
     26 O          -2.7908  -22.5763  -43.6194 O.2       9 UNK        -0.5000 
     27 CA         -3.2676  -20.2327  -43.5885 C.3       9 UNK         0.1400 
     28 CB         -3.4816  -19.6609  -42.1795 C.3       9 UNK        -0.1800 
     29 N          -2.8079  -19.1791  -44.4941 N.am      9 UNK        -0.5000 
     30 C          -2.6223  -19.3502  -45.8118 C.2       8 UNK         0.5000 
     31 O          -2.8516  -20.4040  -46.4040 O.2       8 UNK        -0.5000 
     32 CA         -2.0270  -18.1665  -46.5914 C.3       8 UNK         0.1400 
     33 CB         -3.1002  -17.1044  -46.8769 C.3       8 UNK        -0.1800 
     34 N          -0.8906  -17.5598  -45.9017 N.am      8 UNK        -0.5000 
     35 C           0.2531  -18.2021  -45.6241 C.2       7 UNK         0.5000 
     36 O           0.4809  -19.3645  -45.9563 O.2       7 UNK        -0.5000 
     37 CA          1.2948  -17.4379  -44.7895 C.3       7 UNK         0.1400 
     38 CB          2.0358  -16.4068  -45.6478 C.3       7 UNK        -0.1800 
     39 N           0.7033  -16.7669  -43.6337 N.am      7 UNK        -0.5000 
     40 C           0.0925  -17.3921  -42.6185 C.2       6 UNK         0.5000 
     41 O          -0.0062  -18.6151  -42.5236 O.2       6 UNK        -0.5000 
     42 CA         -0.5538  -16.4940  -41.5521 C.3       6 UNK         0.1400 
     43 CB          0.4958  -15.9813  -40.5541 C.3       6 UNK        -0.1800 
     44 N          -1.2579  -15.3608  -42.1507 N.am      6 UNK        -0.5000 
     45 C          -2.3967  -15.4626  -42.8497 C.2       5 UNK         0.5000 
     46 O          -2.9840  -16.5250  -43.0545 O.2       5 UNK        -0.5000 
     47 CA         -2.9503  -14.1587  -43.4519 C.3       5 UNK         0.1400 
     48 CB         -3.6997  -13.3413  -42.3890 C.3       5 UNK        -0.1800 
     49 N          -1.9083  -13.3299  -44.0605 N.am      5 UNK        -0.5000 
     50 C          -1.2036  -13.6904  -45.1409 C.2       4 UNK         0.5000 
     51 O          -1.3522  -14.7568  -45.7330 O.2       4 UNK        -0.5000 
     52 CA         -0.1242  -12.7165  -45.6312 C.3       4 UNK         0.1400 
     53 CB         -0.7355  -11.6358  -46.5334 C.3       4 UNK        -0.1800 
     54 N           0.6722  -12.0809  -44.5833 N.am      4 UNK        -0.5000 
     55 C           1.3582  -12.7108  -43.6207 C.2       3 UNK         0.5000 
     56 O           1.2311  -13.9066  -43.3497 O.2       3 UNK        -0.5000 
     57 CA          2.4215  -11.8562  -42.9015 C.3       3 UNK         0.1400 
     58 CB          2.9597  -12.5349  -41.6294 C.3       3 UNK        -0.1800 
     59 N           3.5388  -11.6014  -43.8130 N.am      3 UNK        -0.5000 
     60 C           3.5265  -10.7316  -44.8330 C.2       2 UNK         0.5000 
     61 O           2.6262   -9.9085  -45.0111 O.2       2 UNK        -0.5000 
     62 CA          4.6738  -10.8245  -45.8616 C.3       2 UNK         0.1400 
     63 CB          5.9433  -11.5226  -45.3240 C.3       2 UNK        -0.1800 
     64 N           4.2265  -11.4553  -47.1114 N.am      2 UNK        -0.5000 
     65 C           3.6767  -12.6729  -47.2596 C.2       1 UNK         0.5000 
     66 O           3.5217  -13.4578  -46.3244 O.2       1 UNK        -0.5000 
     67 C          -1.3874  -23.6723  -47.5770 C.2       11 UNK         0.5000 
     68 O          -1.2936  -24.7567  -48.1544 O.2       11 UNK        -0.5000 
     69 N          -2.5307  -23.1936  -47.0676 N.am      12 UNK        -0.5000 
     70 CA         -3.8037  -23.9112  -47.0857 C.3       12 UNK         0.1400 
     71 CB         -4.9343  -22.9690  -46.6463 C.3       12 UNK        -0.1800 
     72 C          -3.7791  -25.1818  -46.2162 C.2       12 UNK         0.5000 
     73 O          -4.2258  -26.2329  -46.6754 O.2       12 UNK        -0.5000 
     74 N          -3.2366  -25.0758  -44.9937 N.am      13 UNK        -0.5000 
     75 CA         -3.1068  -26.1809  -44.0394 C.3       13 UNK         0.1400 
     76 CB         -2.6673  -25.6369  -42.6717 C.3       13 UNK        -0.1800 
     77 C          -2.1427  -27.2815  -44.5159 C.2       13 UNK         0.5000 
     78 O          -2.4350  -28.4645  -44.3374 O.2       13 UNK        -0.5000 
     79 N          -1.0267  -26.8761  -45.1361 N.am      14 UNK        -0.5000 
     80 CA         -0.0444  -27.7724  -45.7492 C.3       14 UNK         0.1400 
     81 CB          1.2583  -26.9912  -45.9849 C.3       14 UNK        -0.1800 
     82 C          -0.5289  -28.3954  -47.0732 C.2       14 UNK         0.5000 
     83 O           0.0705  -29.3698  -47.5293 O.2       14 UNK        -0.5000 
     84 N          -1.5719  -27.8035  -47.6765 N.am      15 UNK        -0.5000 
     85 CA         -2.1044  -28.0764  -49.0153 C.3       15 UNK         0.1400 
     86 CB         -2.7234  -29.4871  -49.0931 C.3       15 UNK        -0.1800 
     87 C          -1.0600  -27.8021  -50.1189 C.2       15 UNK         0.5000 
     88 O          -1.0015  -28.5186  -51.1199 O.2       15 UNK        -0.5000 
     89 N          -0.2433  -26.7631  -49.9004 N.am      16 UNK        -0.5000 
     90 CA          0.8132  -26.3146  -50.8050 C.3       16 UNK         0.1400 
     91 CB          1.8228  -25.4735  -50.0080 C.3       16 UNK        -0.1800 
     92 C           0.2558  -25.5029  -51.9863 C.2       16 UNK         0.5000 
     93 O           0.8663  -25.4865  -53.0558 O.2       16 UNK        -0.5000 
     94 N          -0.8911  -24.8510  -51.7705 N.am      17 UNK        -0.5000 
     95 CA         -1.6173  -24.0372  -52.7338 C.3       17 UNK         0.1400 
     96 CB         -0.9097  -22.6806  -52.9099 C.3       17 UNK        -0.1800 
     97 C          -3.0476  -23.8369  -52.2161 C.2       17 UNK         0.5000 
     98 O          -3.3365  -24.1574  -51.0595 O.2       17 UNK        -0.5000 
     99 N          -3.9060  -23.2657  -53.0705 N.am      18 UNK        -0.5000 
    100 CA        -5.2587  -22.8255  -52.7143 C.3       18 UNK         0.1400 
    101 CB        -6.0289  -22.4977  -54.0011 C.3       18 UNK        -0.1800 
    102 C         -5.2643  -21.6128  -51.7604 C.2       18 UNK         0.5000 
    103 O         -6.2432  -21.4147  -51.0401 O.2       18 UNK        -0.5000 
    104 N         -4.1678  -20.8393  -51.7760 N.am      19 UNK        -0.5000 
    105 CA        -3.8286  -19.6931  -50.9304 C.3       19 UNK         0.1400 
    106 CB        -3.7597  -20.1030  -49.4511 C.3       19 UNK        -0.1800 
    107 C         -4.7362  -18.4716  -51.1542 C.2       19 UNK         0.5000 
    108 O         -4.2790  -17.4596  -51.6853 O.2       19 UNK        -0.5000 
    109 N         -6.0108  -18.5896  -50.7673 N.am      20 UNK        -0.5000 
    110 CA        -7.0176  -17.5334  -50.8714 C.3       20 UNK         0.1400 
    111 CB        -8.2660  -17.9513  -50.0802 C.3       20 UNK        -0.1800 
    112 C         -7.3854  -17.1905  -52.3265 C.2       20 UNK         0.5000 
    113 O         -7.6906  -16.0334  -52.6172 O.2       20 UNK        -0.5000 
    114 N         -7.3454  -18.1971  -53.2102 N.am      21 UNK        -0.5000 
    115 CA        -7.6293  -18.0428  -54.6360 C.3       21 UNK         0.1400 
    116 CB        -8.0472  -19.3991  -55.2232 C.3       21 UNK        -0.1800 
    117 C         -6.4370  -17.4612  -55.4167 C.2       21 UNK         0.5000 
    118 O         -6.6539  -16.6822  -56.3461 O.2       21 UNK        -0.5000 
    119 N         -5.2111  -17.8574  -55.0460 N.am      22 UNK        -0.5000 
    120 CA        -3.9714  -17.4167  -55.7063 C.3       22 UNK         0.1400 
    121 C         -3.3991  -16.0781  -55.1596 C.2       22 UNK         0.5000 
    122 N         -3.6474  -15.7082  -53.9092 N.am      22 UNK        -0.7600 
    123 O         -2.7290  -15.3544  -55.8910 O.2       22 UNK        -0.5000 
    124 C124       -2.9031  -18.5403  -55.7591 C.3       23 UNK        -0.0398 
    125 S125       -2.3525  -19.1413  -54.1250 S.3       23 UNK        -0.2404 
    126 C126       -0.7256  -18.3388  -54.0054 C.3       23 UNK        -0.0205 
    127 H127        3.2568   -9.0901  -50.7067 H         1 UNK         0.0600 
    128 H128        2.1171  -10.0006  -51.7034 H         1 UNK         0.0600 
    129 H129        3.8160  -10.4775  -51.6454 H         1 UNK         0.0600 
    130 H130        4.1468  -12.2658  -50.3904 H         1 UNK         0.3000 
    131 H131        4.0119  -13.8850  -48.9405 H         1 UNK         0.0600 
    132 H132        1.8112  -14.5322  -47.8675 H         1 UNK         0.0800 
    133 H133        1.0678  -13.1204  -48.5684 H         1 UNK         0.0800 
    134 H134        0.4376  -16.2176  -48.6117 H         1 UNK         0.0800 
    135 H135       -0.6798  -15.4776  -49.7317 H         1 UNK         0.0800 
    136 H136       -0.7820  -16.3556  -52.1361 H         1 UNK         0.1150 
    137 H137        0.6036  -20.3584  -52.7612 H         1 UNK         0.1150 
    138 H138        1.4607  -18.3405  -49.0749 H         1 UNK         0.1150 
    139 H139        1.5643  -21.6214  -50.9529 H         1 UNK         0.0800 
    140 H140        2.9124  -20.5695  -50.6058 H         1 UNK         0.0800 
    141 H141       -0.2617  -22.1728  -49.4645 H         1 UNK         0.0800 
    142 H142       -0.6780  -20.9209  -48.3163 H         1 UNK         0.0800 
    143 H143        0.7231  -23.5092  -47.4802 H         1 UNK         0.0600 
    144 H144       -0.0087  -21.2344  -45.9683 H         1 UNK         0.3000 
    145 H145       -0.1525  -22.9253  -42.7747 H         1 UNK         0.0600 
    146 H146        1.4431  -21.0966  -42.3173 H         1 UNK         0.0600 
    147 H147        2.2048  -22.3196  -43.3235 H         1 UNK         0.0600 
    148 H148        1.6634  -20.8078  -44.0406 H         1 UNK         0.0600 
    149 H149       -0.6950  -20.2205  -43.4121 H         1 UNK         0.3000 
    150 H150       -4.2327  -20.5844  -43.9589 H         1 UNK         0.0600 
    151 H151       -4.2323  -18.8706  -42.1856 H         1 UNK         0.0600 
    152 H152       -2.5618  -19.2453  -41.7680 H         1 UNK         0.0600 
    153 H153       -3.8294  -20.4338  -41.4930 H         1 UNK         0.0600 
    154 H154       -2.6196  -18.2725  -44.0793 H         1 UNK         0.3000 
    155 H155       -1.6585  -18.5473  -47.5459 H         1 UNK         0.0600 
    156 H156       -3.9810  -17.5427  -47.3469 H         1 UNK         0.0600 
    157 H157       -3.4317  -16.6134  -45.9613 H         1 UNK         0.0600 
    158 H158       -2.7211  -16.3361  -47.5510 H         1 UNK         0.0600 
    159 H159       -0.9983  -16.5862  -45.6275 H         1 UNK         0.3000 
    160 H160        2.0230  -18.1637  -44.4220 H         1 UNK         0.0600 
    161 H161        2.8667  -15.9620  -45.0996 H         1 UNK         0.0600 
    162 H162        1.3691  -15.5998  -45.9465 H         1 UNK         0.0600 
    163 H163        2.4432  -16.8593  -46.5529 H         1 UNK         0.0600 
    164 H164        0.7667  -15.7522  -43.6100 H         1 UNK         0.3000 
    165 H165       -1.2797  -17.0963  -41.0017 H         1 UNK         0.0600 
    166 H166        0.0330  -15.3879  -39.7655 H         1 UNK         0.0600 
    167 H167        1.0138  -16.8125  -40.0740 H         1 UNK         0.0600 
    168 H168        1.2505  -15.3624  -41.0403 H         1 UNK         0.0600 
    169 H169       -0.7966  -14.4636  -42.1025 H         1 UNK         0.3000 
    170 H170       -3.6622  -14.4324  -44.2337 H         1 UNK         0.0600 
    171 H171       -3.0343  -13.0069  -41.5921 H         1 UNK         0.0600 
    172 H172       -4.1679  -12.4600  -42.8275 H         1 UNK         0.0600 
    173 H173       -4.4917  -13.9337  -41.9288 H         1 UNK         0.0600 
    174 H174       -1.7091  -12.4408  -43.6260 H         1 UNK         0.3000 
    175 H175        0.5744  -13.2995  -46.2296 H         1 UNK         0.0600 
    176 H176        0.0385  -11.0070  -46.9738 H         1 UNK         0.0600 
    177 H177       -1.4182  -10.9891  -45.9810 H         1 UNK         0.0600 
    178 H178       -1.2959  -12.0827  -47.3558 H         1 UNK         0.0600 
    179 H179        0.9116  -11.1092  -44.7443 H         1 UNK         0.3000 
    180 H180        1.9620  -10.9086  -42.6131 H         1 UNK         0.0600 
    181 H181        3.4534  -13.4817  -41.8529 H         1 UNK         0.0600 
    182 H182        2.1513  -12.7438  -40.9276 H         1 UNK         0.0600 
    183 H183        3.6785  -11.8957  -41.1166 H         1 UNK         0.0600 
    184 H184        4.2851  -12.2811  -43.7922 H         1 UNK         0.3000 
    185 H185        4.9447   -9.7973  -46.1098 H         1 UNK         0.0600 
    186 H186        5.7819  -12.5797  -45.1117 H         1 UNK         0.0600 
    187 H187        6.7561  -11.4558  -46.0472 H         1 UNK         0.0600 
    188 H188        6.2924  -11.0484  -44.4058 H         1 UNK         0.0600 
    189 H189        4.2866  -10.8766  -47.9367 H         1 UNK         0.3000 
    190 H190       -2.5366  -22.2690  -46.6436 H         1 UNK         0.3000 
    191 H191       -3.9996  -24.2156  -48.1164 H         1 UNK         0.0600 
    192 H192       -5.0121  -22.1112  -47.3137 H         1 UNK         0.0600 
    193 H193       -5.8976  -23.4802  -46.6600 H         1 UNK         0.0600 
    194 H194       -4.7749  -22.5912  -45.6359 H         1 UNK         0.0600 
    195 H195       -2.9240  -24.1638  -44.6697 H         1 UNK         0.3000 
    196 H196       -4.0927  -26.6352  -43.9209 H         1 UNK         0.0600 
    197 H197       -2.5626  -26.4425  -41.9440 H         1 UNK         0.0600 
    198 H198       -3.3995  -24.9340  -42.2742 H         1 UNK         0.0600 
    199 H199       -1.7079  -25.1218  -42.7340 H         1 UNK         0.0600 
    200 H200       -0.8225  -25.8806  -45.1832 H         1 UNK         0.3000 
    201 H201        0.1645  -28.5887  -45.0548 H         1 UNK         0.0600 
    202 H202        1.6518  -26.5892  -45.0512 H         1 UNK         0.0600 
    203 H203        1.1059  -26.1566  -46.6710 H         1 UNK         0.0600 
    204 H204        2.0299  -27.6320  -46.4135 H         1 UNK         0.0600 
    205 H205       -1.9801  -27.0036  -47.2112 H         1 UNK         0.3000 
    206 H206       -2.9073  -27.3546  -49.1728 H         1 UNK         0.0600 
    207 H207       -3.4508  -29.6411  -48.2960 H         1 UNK         0.0600 
    208 H208       -3.2446  -29.6319  -50.0399 H         1 UNK         0.0600 
    209 H209       -1.9677  -30.2690  -49.0143 H         1 UNK         0.0600 
    210 H210       -0.4262  -26.1808  -49.0875 H         1 UNK         0.3000 
    211 H211        1.3302  -27.1888  -51.2061 H         1 UNK         0.0600 
    212 H212        1.3645  -24.5697  -49.6055 H         1 UNK         0.0600 
    213 H213        2.6564  -25.1637  -50.6394 H         1 UNK         0.0600 
    214 H214        2.2386  -26.0397  -49.1743 H         1 UNK         0.0600 
    215 H215       -1.3608  -24.9476  -50.8773 H         1 UNK         0.3000 
    216 H216       -1.6621  -24.5646  -53.6888 H         1 UNK         0.0600 
    217 H217       -1.4046  -22.0697  -53.6650 H         1 UNK         0.0600 
    218 H218        0.1240  -22.8053  -53.2319 H         1 UNK         0.0600 
    219 H219       -0.9041  -22.1139  -51.9781 H         1 UNK         0.0600 
    220 H220       -3.5976  -23.0543  -54.0087 H         1 UNK         0.3000 
    221 H221       -5.7677  -23.6474  -52.2063 H         1 UNK         0.0600 
    222 H222       -5.5427  -21.7023  -54.5672 H         1 UNK         0.0600 
    223 H223       -6.1047  -23.3716  -54.6483 H         1 UNK         0.0600 
    224 H224       -7.0460  -22.1736  -53.7761 H         1 UNK         0.0600 
    225 H225       -3.4582  -21.0772  -52.4534 H         1 UNK         0.3000 
    226 H226       -2.8204  -19.3909  -51.2181 H         1 UNK         0.0600 
    227 H227       -3.0454  -20.9118  -49.2967 H         1 UNK         0.0600 
    228 H228       -3.4358  -19.2606  -48.8463 H         1 UNK         0.0600 
    229 H229       -4.7226  -20.4306  -49.0605 H         1 UNK         0.0600 
    230 H230       -6.3183  -19.4971  -50.4332 H         1 UNK         0.3000 
    231 H231       -6.6082  -16.6309  -50.4129 H         1 UNK         0.0600 
    232 H232       -8.7037  -18.8692  -50.4749 H         1 UNK         0.0600 
    233 H233       -9.0327  -17.1765  -50.1214 H         1 UNK         0.0600 
    234 H234       -8.0290  -18.1177  -49.0293 H         1 UNK         0.0600 
    235 H235       -7.0999  -19.1187  -52.8805 H         1 UNK         0.3000 
    236 H236       -8.4716  -17.3571  -54.7526 H         1 UNK         0.0600 
    237 H237       -8.8961  -19.8207  -54.6847 H         1 UNK         0.0600 
    238 H238       -8.3446  -19.2941  -56.2673 H         1 UNK         0.0600 
    239 H239       -7.2326  -20.1210  -55.1892 H         1 UNK         0.0600 
    240 H240       -5.1013  -18.4624  -54.2471 H         1 UNK         0.3000 
    241 H241       -4.2156  -17.2103  -56.7504 H         1 UNK         0.0600 
    242 H242       -3.2817  -14.8314  -53.5764 H         1 UNK         0.3800 
    243 H243       -4.0915  -16.3418  -53.2513 H         1 UNK         0.3800 
    244 H244       -3.3111  -19.3950  -56.3001 H         1 UNK         0.0800 
    245 H245       -2.0402  -18.2172  -56.3440 H         1 UNK         0.0800 
    246 H246       -0.8011  -17.3056  -54.3474 H         1 UNK         0.0800 
    247 H247       -0.0306  -18.8345  -54.6847 H         1 UNK         0.0800 
@<TRIPOS>BOND
     1    1    2 1    
     2    1  127 1    
     3    1  128 1    
     4    1  129 1    
     5    2    3 2    
     6    2    4 am   BACKBONE|DICT|INTERRES
     7    4    5 1    
     8    4  130 1    
     9    5    6 1    
    10    5   65 1    
    11    5  131 1    
    12    6    7 1    
    13    6  132 1    
    14    6  133 1    
    15    7    8 1    
    16    8    9 1    
    17    8  134 1    
    18    8  135 1    
    19    9   10 ar   
    20    9   14 ar   
    21   10   11 ar   
    22   10  136 1    
    23   11   12 ar   
    24   11  126 1    
    25   12   13 ar   
    26   12  137 1    
    27   13   14 ar   
    28   13   15 1    
    29   14  138 1    
    30   15   16 1    
    31   15  139 1    
    32   15  140 1    
    33   16   17 1    
    34   17   18 1    
    35   17  141 1    
    36   17  142 1    
    37   18   19 1    
    38   18   67 1    
    39   18  143 1    
    40   19   20 am   BACKBONE|DICT|INTERRES
    41   19  144 1    
    42   20   21 2    
    43   20   22 1    
    44   22   23 1    
    45   22   24 1    
    46   22  145 1    
    47   23  146 1    
    48   23  147 1    
    49   23  148 1    
    50   24   25 am   BACKBONE|DICT|INTERRES
    51   24  149 1    
    52   25   26 2    
    53   25   27 1    
    54   27   28 1    
    55   27   29 1    
    56   27  150 1    
    57   28  151 1    
    58   28  152 1    
    59   28  153 1    
    60   29   30 am   BACKBONE|DICT|INTERRES
    61   29  154 1    
    62   30   31 2    
    63   30   32 1    
    64   32   33 1    
    65   32   34 1    
    66   32  155 1    
    67   33  156 1    
    68   33  157 1    
    69   33  158 1    
    70   34   35 am   BACKBONE|DICT|INTERRES
    71   34  159 1    
    72   35   36 2    
    73   35   37 1    
    74   37   38 1    
    75   37   39 1    
    76   37  160 1    
    77   38  161 1    
    78   38  162 1    
    79   38  163 1    
    80   39   40 am   BACKBONE|DICT|INTERRES
    81   39  164 1    
    82   40   41 2    
    83   40   42 1    
    84   42   43 1    
    85   42   44 1    
    86   42  165 1    
    87   43  166 1    
    88   43  167 1    
    89   43  168 1    
    90   44   45 am   BACKBONE|DICT|INTERRES
    91   44  169 1    
    92   45   46 2    
    93   45   47 1    
    94   47   48 1    
    95   47   49 1    
    96   47  170 1    
    97   48  171 1    
    98   48  172 1    
    99   48  173 1    
   100   49   50 am   BACKBONE|DICT|INTERRES
   101   49  174 1    
   102   50   51 2    
   103   50   52 1    
   104   52   53 1    
   105   52   54 1    
   106   52  175 1    
   107   53  176 1    
   108   53  177 1    
   109   53  178 1    
   110   54   55 am   BACKBONE|DICT|INTERRES
   111   54  179 1    
   112   55   56 2    
   113   55   57 1    
   114   57   58 1    
   115   57   59 1    
   116   57  180 1    
   117   58  181 1    
   118   58  182 1    
   119   58  183 1    
   120   59   60 am   BACKBONE|DICT|INTERRES
   121   59  184 1    
   122   60   61 2    
   123   60   62 1    
   124   62   63 1    
   125   62   64 1    
   126   62  185 1    
   127   63  186 1    
   128   63  187 1    
   129   63  188 1    
   130   64   65 am   BACKBONE|DICT|INTERRES
   131   64  189 1    
   132   65   66 2    
   133   67   68 2    
   134   67   69 am   BACKBONE|DICT|INTERRES
   135   69   70 1    
   136   69  190 1    
   137   70   71 1    
   138   70   72 1    
   139   70  191 1    
   140   71  192 1    
   141   71  193 1    
   142   71  194 1    
   143   72   73 2    
   144   72   74 am   BACKBONE|DICT|INTERRES
   145   74   75 1    
   146   74  195 1    
   147   75   76 1    
   148   75   77 1    
   149   75  196 1    
   150   76  197 1    
   151   76  198 1    
   152   76  199 1    
   153   77   78 2    
   154   77   79 am   BACKBONE|DICT|INTERRES
   155   79   80 1    
   156   79  200 1    
   157   80   81 1    
   158   80   82 1    
   159   80  201 1    
   160   81  202 1    
   161   81  203 1    
   162   81  204 1    
   163   82   83 2    
   164   82   84 am   BACKBONE|DICT|INTERRES
   165   84   85 1    
   166   84  205 1    
   167   85   86 1    
   168   85   87 1    
   169   85  206 1    
   170   86  207 1    
   171   86  208 1    
   172   86  209 1    
   173   87   88 2    
   174   87   89 am   BACKBONE|DICT|INTERRES
   175   89   90 1    
   176   89  210 1    
   177   90   91 1    
   178   90   92 1    
   179   90  211 1    
   180   91  212 1    
   181   91  213 1    
   182   91  214 1    
   183   92   93 2    
   184   92   94 am   BACKBONE|DICT|INTERRES
   185   94   95 1    
   186   94  215 1    
   187   95   96 1    
   188   95   97 1    
   189   95  216 1    
   190   96  217 1    
   191   96  218 1    
   192   96  219 1    
   193   97   98 2    
   194   97   99 am   BACKBONE|DICT|INTERRES
   195   99  100 1    
   196   99  220 1    
   197  100  101 1    
   198  100  102 1    
   199  100  221 1    
   200  101  222 1    
   201  101  223 1    
   202  101  224 1    
   203  102  103 2    
   204  102  104 am   BACKBONE|DICT|INTERRES
   205  104  105 1    
   206  104  225 1    
   207  105  106 1    
   208  105  107 1    
   209  105  226 1    
   210  106  227 1    
   211  106  228 1    
   212  106  229 1    
   213  107  108 2    
   214  107  109 am   BACKBONE|DICT|INTERRES
   215  109  110 1    
   216  109  230 1    
   217  110  111 1    
   218  110  112 1    
   219  110  231 1    
   220  111  232 1    
   221  111  233 1    
   222  111  234 1    
   223  112  113 2    
   224  112  114 am   BACKBONE|DICT|INTERRES
   225  114  115 1    
   226  114  235 1    
   227  115  116 1    
   228  115  117 1    
   229  115  236 1    
   230  116  237 1    
   231  116  238 1    
   232  116  239 1    
   233  117  118 2    
   234  117  119 am   BACKBONE|DICT|INTERRES
   235  119  120 1    
   236  119  240 1    
   237  120  121 1    
   238  120  124 1    
   239  120  241 1    
   240  121  122 am   BACKBONE|DICT|INTERRES
   241  121  123 2    
   242  122  242 1    
   243  122  243 1    
   244  124  125 1    
   245  124  244 1    
   246  124  245 1    
   247  125  126 1    
   248  126  246 1    
   249  126  247 1    
@<TRIPOS>SUBSTRUCTURE
     1 UNK         1 GROUP             0       ****    0 ROOT    
