@<TRIPOS>MOLECULE
3R540
247   249    1
SMALL
USER_CHARGES


@<TRIPOS>ATOM
      1 CA          5.5457   -8.5355  -46.8713 C.3       0 UNK        -0.1800 
      2 C           4.7044   -9.8021  -46.9200 C.2       0 UNK         0.5000 
      3 O           3.6315   -9.8474  -46.3188 O.2       0 UNK        -0.5000 
      4 N           5.1736  -10.8248  -47.6497 N.am      1 UNK        -0.5000 
      5 CA          4.5286  -12.1386  -47.7948 C.3       1 UNK         0.1400 
      6 C6          5.4443  -13.1298  -48.5554 C.3       23 UNK        -0.0398 
      7 S7          4.9206  -14.8715  -48.3828 S.3       23 UNK        -0.2404 
      8 C8          4.3452  -15.2136  -50.0752 C.3       23 UNK        -0.0205 
      9 C9          3.3511  -16.3629  -50.1124 C.ar      23 UNK        -0.0193 
     10 C10         1.9927  -16.1064  -50.3201 C.ar      23 UNK        -0.1150 
     11 C11         1.0739  -17.1565  -50.3895 C.ar      23 UNK        -0.0193 
     12 C12         1.5238  -18.4706  -50.2299 C.ar      23 UNK        -0.1150 
     13 C13         2.8799  -18.7440  -50.0294 C.ar      23 UNK        -0.0193 
     14 C14         3.7889  -17.6829  -49.9692 C.ar      23 UNK        -0.1150 
     15 C15         3.3721  -20.1821  -49.9244 C.3       23 UNK        -0.0205 
     16 S16         2.9394  -20.9581  -48.3343 S.3       23 UNK        -0.2404 
     17 C17         1.2472  -21.5557  -48.6661 C.3       23 UNK        -0.0398 
     18 CA          0.8550  -22.7404  -47.7536 C.3       11 UNK         0.1400 
     19 N           0.6664  -22.3266  -46.3601 N.am      11 UNK        -0.5000 
     20 C           0.4255  -23.1567  -45.3361 C.2       10 UNK         0.5000 
     21 O           0.4044  -24.3843  -45.4387 O.2       10 UNK        -0.5000 
     22 CA          0.0963  -22.5013  -43.9820 C.3       10 UNK         0.1400 
     23 CB          1.3731  -22.0247  -43.2736 C.3       10 UNK        -0.1800 
     24 N          -0.8495  -21.3890  -44.1110 N.am      10 UNK        -0.5000 
     25 C          -2.1181  -21.5261  -44.5237 C.2       9 UNK         0.5000 
     26 O          -2.6272  -22.6106  -44.8005 O.2       9 UNK        -0.5000 
     27 CA         -2.9569  -20.2458  -44.6867 C.3       9 UNK         0.1400 
     28 CB         -3.5239  -19.7897  -43.3348 C.3       9 UNK        -0.1800 
     29 N          -2.2152  -19.1494  -45.3060 N.am      9 UNK        -0.5000 
     30 C          -1.7290  -19.1632  -46.5553 C.2       8 UNK         0.5000 
     31 O          -1.8946  -20.0891  -47.3485 O.2       8 UNK        -0.5000 
     32 CA         -0.8604  -17.9628  -46.9697 C.3       8 UNK         0.1400 
     33 CB         -1.7339  -16.7516  -47.3278 C.3       8 UNK        -0.1800 
     34 N           0.1082  -17.5854  -45.9412 N.am      8 UNK        -0.5000 
     35 C           1.0531  -18.4007  -45.4504 C.2       7 UNK         0.5000 
     36 O           1.2299  -19.5562  -45.8311 O.2       7 UNK        -0.5000 
     37 CA          1.8917  -17.8567  -44.2847 C.3       7 UNK         0.1400 
     38 CB          3.0020  -16.9245  -44.7932 C.3       7 UNK        -0.1800 
     39 N           1.0516  -17.1639  -43.3066 N.am      7 UNK        -0.5000 
     40 C           0.1748  -17.7825  -42.5014 C.2       6 UNK         0.5000 
     41 O           0.0245  -19.0037  -42.4663 O.2       6 UNK        -0.5000 
     42 CA         -0.7085  -16.8856  -41.6140 C.3       6 UNK         0.1400 
     43 CB          0.0379  -16.4884  -40.3318 C.3       6 UNK        -0.1800 
     44 N          -1.1636  -15.6781  -42.3046 N.am      6 UNK        -0.5000 
     45 C          -2.0101  -15.6728  -43.3444 C.2       5 UNK         0.5000 
     46 O          -2.5317  -16.6877  -43.8035 O.2       5 UNK        -0.5000 
     47 CA         -2.2818  -14.3115  -44.0147 C.3       5 UNK         0.1400 
     48 CB         -3.4630  -13.6025  -43.3366 C.3       5 UNK        -0.1800 
     49 N          -1.1211  -13.4161  -44.0247 N.am      5 UNK        -0.5000 
     50 C           0.0655  -13.6989  -44.5767 C.2       4 UNK         0.5000 
     51 O           0.3117  -14.7600  -45.1527 O.2       4 UNK        -0.5000 
     52 CA          1.1450  -12.6106  -44.4521 C.3       4 UNK         0.1400 
     53 CB          2.5682  -13.1770  -44.5883 C.3       4 UNK        -0.1800 
     54 N           0.9430  -11.5682  -45.4545 N.am      4 UNK        -0.5000 
     55 C           0.0817  -10.5477  -45.3380 C.2       3 UNK         0.5000 
     56 O          -0.6633  -10.4070  -44.3662 O.2       3 UNK        -0.5000 
     57 CA          0.0436   -9.5005  -46.4693 C.3       3 UNK         0.1400 
     58 CB          0.4919   -8.1260  -45.9455 C.3       3 UNK        -0.1800 
     59 N           0.9028   -9.8653  -47.5966 N.am      3 UNK        -0.5000 
     60 C           0.4719  -10.3547  -48.7679 C.2       2 UNK         0.5000 
     61 O          -0.7172  -10.5189  -49.0426 O.2       2 UNK        -0.5000 
     62 CA          1.5430  -10.7342  -49.8149 C.3       2 UNK         0.1400 
     63 CB          1.7026   -9.6100  -50.8497 C.3       2 UNK        -0.1800 
     64 N           2.8573  -11.0395  -49.2426 N.am      2 UNK        -0.5000 
     65 C           3.1081  -12.0568  -48.4063 C.2       1 UNK         0.5000 
     66 O           2.2481  -12.8661  -48.0618 O.2       1 UNK        -0.5000 
     67 C          -0.3955  -23.4558  -48.3015 C.2       11 UNK         0.5000 
     68 O          -0.2700  -24.5267  -48.8942 O.2       11 UNK        -0.5000 
     69 N          -1.5790  -22.8808  -48.0540 N.am      12 UNK        -0.5000 
     70 CA         -2.8697  -23.4414  -48.4430 C.3       12 UNK         0.1400 
     71 CB         -3.9649  -22.4149  -48.1637 C.3       12 UNK        -0.1800 
     72 C          -3.1913  -24.7823  -47.7685 C.2       12 UNK         0.5000 
     73 O          -3.7031  -25.6775  -48.4386 O.2       12 UNK        -0.5000 
     74 N          -2.8568  -24.9173  -46.4788 N.am      13 UNK        -0.5000 
     75 CA         -2.9934  -26.1581  -45.7161 C.3       13 UNK         0.1400 
     76 CB         -2.7106  -25.8876  -44.2308 C.3       13 UNK        -0.1800 
     77 C          -2.0885  -27.2828  -46.2510 C.2       13 UNK         0.5000 
     78 O          -2.5322  -28.4287  -46.3288 O.2       13 UNK        -0.5000 
     79 N          -0.8546  -26.9320  -46.6406 N.am      14 UNK        -0.5000 
     80 CA          0.1023  -27.8439  -47.2681 C.3       14 UNK         0.1400 
     81 CB          1.4971  -27.1994  -47.2705 C.3       14 UNK        -0.1800 
     82 C          -0.3188  -28.2549  -48.6925 C.2       14 UNK         0.5000 
     83 O          -0.1984  -29.4281  -49.0475 O.2       14 UNK        -0.5000 
     84 N          -0.8143  -27.2876  -49.4761 N.am      15 UNK        -0.5000 
     85 CA         -1.2820  -27.4791  -50.8508 C.3       15 UNK         0.1400 
     86 CB         -1.3624  -26.1071  -51.5395 C.3       15 UNK        -0.1800 
     87 C          -2.6421  -28.1969  -50.9566 C.2       15 UNK         0.5000 
     88 O          -2.9468  -28.7391  -52.0195 O.2       15 UNK        -0.5000 
     89 N          -3.4363  -28.1564  -49.8762 N.am      16 UNK        -0.5000 
     90 CA         -4.8475  -28.5481  -49.7874 C.3       16 UNK         0.1400 
     91 CB         -5.0341  -30.0600  -50.0339 C.3       16 UNK        -0.1800 
     92 C          -5.7263  -27.6559  -50.6906 C.2       16 UNK         0.5000 
     93 O          -6.5097  -28.1555  -51.5009 O.2       16 UNK        -0.5000 
     94 N          -5.5384  -26.3401  -50.5454 N.am      17 UNK        -0.5000 
     95 CA         -6.1647  -25.2818  -51.3335 C.3       17 UNK         0.1400 
     96 CB         -5.1136  -24.7354  -52.3184 C.3       17 UNK        -0.1800 
     97 C          -6.7250  -24.1856  -50.4059 C.2       17 UNK         0.5000 
     98 O          -6.8174  -24.3907  -49.1933 O.2       17 UNK        -0.5000 
     99 N          -7.1013  -23.0425  -50.9922 N.am      18 UNK        -0.5000 
    100 CA        -7.5503  -21.8420  -50.2863 C.3       18 UNK         0.1400 
    101 CB        -8.6847  -21.1915  -51.0936 C.3       18 UNK        -0.1800 
    102 C         -6.3856  -20.8502  -50.1395 C.2       18 UNK         0.5000 
    103 O         -5.5149  -20.8007  -51.0128 O.2       18 UNK        -0.5000 
    104 N         -6.4082  -20.0454  -49.0671 N.am      19 UNK        -0.5000 
    105 CA        -5.4060  -19.0114  -48.7732 C.3       19 UNK         0.1400 
    106 CB        -5.6409  -18.4490  -47.3636 C.3       19 UNK        -0.1800 
    107 C         -5.3748  -17.8835  -49.8183 C.2       19 UNK         0.5000 
    108 O         -4.2969  -17.3863  -50.1406 O.2       19 UNK        -0.5000 
    109 N         -6.5462  -17.5504  -50.3785 N.am      20 UNK        -0.5000 
    110 CA        -6.7078  -16.5869  -51.4713 C.3       20 UNK         0.1400 
    111 CB        -8.2042  -16.2925  -51.6567 C.3       20 UNK        -0.1800 
    112 C         -6.0831  -17.0589  -52.8008 C.2       20 UNK         0.5000 
    113 O         -5.7222  -16.2239  -53.6304 O.2       20 UNK        -0.5000 
    114 N         -5.9564  -18.3817  -52.9695 N.am      21 UNK        -0.5000 
    115 CA        -5.2967  -19.0302  -54.1022 C.3       21 UNK         0.1400 
    116 CB        -6.0946  -20.2945  -54.4658 C.3       21 UNK        -0.1800 
    117 C         -3.8274  -19.3860  -53.7944 C.2       21 UNK         0.5000 
    118 O         -3.1445  -19.9063  -54.6776 O.2       21 UNK        -0.5000 
    119 N         -3.3739  -19.1254  -52.5588 N.am      22 UNK        -0.5000 
    120 CA        -2.0660  -19.5142  -52.0064 C.3       22 UNK         0.1400 
    121 C         -1.8556  -21.0543  -51.8905 C.2       22 UNK         0.5000 
    122 N         -2.9133  -21.8438  -51.7552 N.am      22 UNK        -0.7600 
    123 O         -0.7290  -21.5424  -51.8908 O.2       22 UNK        -0.5000 
    124 C124       -0.8761  -18.7708  -52.6822 C.3       23 UNK        -0.0398 
    125 S125       -0.8936  -16.9701  -52.3722 S.3       23 UNK        -0.2404 
    126 C126       -0.4031  -16.8649  -50.6173 C.3       23 UNK        -0.0205 
    127 H127        4.9758   -7.6925  -47.2620 H         1 UNK         0.0600 
    128 H128        6.4589   -8.6315  -47.4589 H         1 UNK         0.0600 
    129 H129        5.8248   -8.3116  -45.8418 H         1 UNK         0.0600 
    130 H130        6.0576  -10.7156  -48.1267 H         1 UNK         0.3000 
    131 H131        4.4093  -12.5215  -46.7803 H         1 UNK         0.0600 
    132 H132        5.5297  -12.8543  -49.6079 H         1 UNK         0.0800 
    133 H133        6.4569  -13.0712  -48.1539 H         1 UNK         0.0800 
    134 H134        5.2029  -15.4457  -50.7082 H         1 UNK         0.0800 
    135 H135        3.8855  -14.3182  -50.4964 H         1 UNK         0.0800 
    136 H136        1.6500  -15.0872  -50.4331 H         1 UNK         0.1150 
    137 H137        0.8178  -19.2854  -50.2758 H         1 UNK         0.1150 
    138 H138        4.8409  -17.8808  -49.8183 H         1 UNK         0.1150 
    139 H139        2.9772  -20.7694  -50.7545 H         1 UNK         0.0800 
    140 H140        4.4575  -20.2125  -50.0307 H         1 UNK         0.0800 
    141 H141        1.1869  -21.8481  -49.7164 H         1 UNK         0.0800 
    142 H142        0.5478  -20.7296  -48.5325 H         1 UNK         0.0800 
    143 H143        1.6676  -23.4699  -47.7704 H         1 UNK         0.0600 
    144 H144        0.7211  -21.3267  -46.1769 H         1 UNK         0.3000 
    145 H145       -0.3710  -23.2621  -43.3533 H         1 UNK         0.0600 
    146 H146        1.1489  -21.6271  -42.2837 H         1 UNK         0.0600 
    147 H147        2.0762  -22.8480  -43.1424 H         1 UNK         0.0600 
    148 H148        1.8835  -21.2450  -43.8388 H         1 UNK         0.0600 
    149 H149       -0.5075  -20.4671  -43.8631 H         1 UNK         0.3000 
    150 H150       -3.7986  -20.4839  -45.3390 H         1 UNK         0.0600 
    151 H151       -4.0899  -20.5906  -42.8575 H         1 UNK         0.0600 
    152 H152       -4.1994  -18.9429  -43.4577 H         1 UNK         0.0600 
    153 H153       -2.7331  -19.4895  -42.6468 H         1 UNK         0.0600 
    154 H154       -2.0788  -18.3188  -44.7368 H         1 UNK         0.3000 
    155 H155       -0.2927  -18.2561  -47.8538 H         1 UNK         0.0600 
    156 H156       -2.3278  -16.4175  -46.4784 H         1 UNK         0.0600 
    157 H157       -1.1259  -15.9107  -47.6624 H         1 UNK         0.0600 
    158 H158       -2.4296  -16.9951  -48.1311 H         1 UNK         0.0600 
    159 H159        0.0600  -16.6332  -45.5890 H         1 UNK         0.3000 
    160 H160        2.3668  -18.7039  -43.7855 H         1 UNK         0.0600 
    161 H161        2.6009  -16.0881  -45.3646 H         1 UNK         0.0600 
    162 H162        3.6856  -17.4630  -45.4507 H         1 UNK         0.0600 
    163 H163        3.5912  -16.5211  -43.9699 H         1 UNK         0.0600 
    164 H164        1.0647  -16.1551  -43.3317 H         1 UNK         0.3000 
    165 H165       -1.5895  -17.4652  -41.3297 H         1 UNK         0.0600 
    166 H166       -0.6063  -15.9200  -39.6607 H         1 UNK         0.0600 
    167 H167        0.3739  -17.3718  -39.7871 H         1 UNK         0.0600 
    168 H168        0.9180  -15.8813  -40.5477 H         1 UNK         0.0600 
    169 H169       -0.7841  -14.7980  -41.9888 H         1 UNK         0.3000 
    170 H170       -2.5534  -14.5047  -45.0538 H         1 UNK         0.0600 
    171 H171       -4.3509  -14.2364  -43.3361 H         1 UNK         0.0600 
    172 H172       -3.2393  -13.3489  -42.2997 H         1 UNK         0.0600 
    173 H173       -3.7230  -12.6816  -43.8591 H         1 UNK         0.0600 
    174 H174       -1.2524  -12.4939  -43.6283 H         1 UNK         0.3000 
    175 H175        1.0673  -12.1692  -43.4561 H         1 UNK         0.0600 
    176 H176        2.7188  -13.6682  -45.5494 H         1 UNK         0.0600 
    177 H177        3.3162  -12.3898  -44.4916 H         1 UNK         0.0600 
    178 H178        2.7690  -13.9140  -43.8102 H         1 UNK         0.0600 
    179 H179        1.4692  -11.6657  -46.3126 H         1 UNK         0.3000 
    180 H180       -0.9956   -9.4150  -46.7928 H         1 UNK         0.0600 
    181 H181        1.5176   -8.1514  -45.5754 H         1 UNK         0.0600 
    182 H182       -0.1449   -7.7905  -45.1259 H         1 UNK         0.0600 
    183 H183        0.4367   -7.3693  -46.7283 H         1 UNK         0.0600 
    184 H184        1.9004   -9.7875  -47.4285 H         1 UNK         0.3000 
    185 H185        1.1892  -11.6285  -50.3323 H         1 UNK         0.0600 
    186 H186        2.3923   -9.8981  -51.6432 H         1 UNK         0.0600 
    187 H187        0.7477   -9.3740  -51.3214 H         1 UNK         0.0600 
    188 H188        2.0782   -8.6936  -50.3926 H         1 UNK         0.0600 
    189 H189        3.6072  -10.3993  -49.4601 H         1 UNK         0.3000 
    190 H190       -1.6041  -21.9749  -47.5936 H         1 UNK         0.3000 
    191 H191       -2.8429  -23.6206  -49.5187 H         1 UNK         0.0600 
    192 H192       -3.9662  -22.0875  -47.1252 H         1 UNK         0.0600 
    193 H193       -4.9528  -22.8142  -48.3813 H         1 UNK         0.0600 
    194 H194       -3.8128  -21.5455  -48.7972 H         1 UNK         0.0600 
    195 H195       -2.5089  -24.1065  -45.9738 H         1 UNK         0.3000 
    196 H196       -4.0285  -26.4932  -45.8085 H         1 UNK         0.0600 
    197 H197       -2.8178  -26.7981  -43.6400 H         1 UNK         0.0600 
    198 H198       -3.4066  -25.1531  -43.8255 H         1 UNK         0.0600 
    199 H199       -1.6995  -25.5108  -44.0747 H         1 UNK         0.0600 
    200 H200       -0.5549  -25.9721  -46.5084 H         1 UNK         0.3000 
    201 H201        0.1527  -28.7509  -46.6619 H         1 UNK         0.0600 
    202 H202        1.8249  -26.9678  -46.2569 H         1 UNK         0.0600 
    203 H203        1.5147  -26.2731  -47.8451 H         1 UNK         0.0600 
    204 H204        2.2369  -27.8713  -47.7073 H         1 UNK         0.0600 
    205 H205       -0.8080  -26.3309  -49.1306 H         1 UNK         0.3000 
    206 H206       -0.5467  -28.0859  -51.3832 H         1 UNK         0.0600 
    207 H207       -0.3924  -25.6096  -51.5450 H         1 UNK         0.0600 
    208 H208       -1.6838  -26.2048  -52.5773 H         1 UNK         0.0600 
    209 H209       -2.0723  -25.4501  -51.0364 H         1 UNK         0.0600 
    210 H210       -3.1004  -27.6143  -49.0892 H         1 UNK         0.3000 
    211 H211       -5.1548  -28.3439  -48.7606 H         1 UNK         0.0600 
    212 H212       -4.8067  -30.3403  -51.0625 H         1 UNK         0.0600 
    213 H213       -6.0639  -30.3594  -49.8366 H         1 UNK         0.0600 
    214 H214       -4.3931  -30.6471  -49.3763 H         1 UNK         0.0600 
    215 H215       -4.9244  -26.0242  -49.7968 H         1 UNK         0.3000 
    216 H216       -7.0085  -25.6804  -51.8998 H         1 UNK         0.0600 
    217 H217       -5.5320  -23.9842  -52.9888 H         1 UNK         0.0600 
    218 H218       -4.7136  -25.5331  -52.9448 H         1 UNK         0.0600 
    219 H219       -4.2766  -24.2823  -51.7887 H         1 UNK         0.0600 
    220 H220       -6.9488  -22.9338  -51.9840 H         1 UNK         0.3000 
    221 H221       -7.9275  -22.1010  -49.2948 H         1 UNK         0.0600 
    222 H222       -8.3542  -20.8925  -52.0895 H         1 UNK         0.0600 
    223 H223       -9.5241  -21.8769  -51.2128 H         1 UNK         0.0600 
    224 H224       -9.0641  -20.3004  -50.5920 H         1 UNK         0.0600 
    225 H225       -7.1592  -20.1421  -48.3988 H         1 UNK         0.3000 
    226 H226       -4.4173  -19.4692  -48.7843 H         1 UNK         0.0600 
    227 H227       -5.5779  -19.2350  -46.6112 H         1 UNK         0.0600 
    228 H228       -4.8880  -17.7010  -47.1108 H         1 UNK         0.0600 
    229 H229       -6.6192  -17.9753  -47.2751 H         1 UNK         0.0600 
    230 H230       -7.3830  -18.0111  -50.0525 H         1 UNK         0.3000 
    231 H231       -6.2073  -15.6600  -51.1833 H         1 UNK         0.0600 
    232 H232       -8.3628  -15.5569  -52.4465 H         1 UNK         0.0600 
    233 H233       -8.6429  -15.8871  -50.7448 H         1 UNK         0.0600 
    234 H234       -8.7605  -17.1906  -51.9281 H         1 UNK         0.0600 
    235 H235       -6.2436  -18.9964  -52.2204 H         1 UNK         0.3000 
    236 H236       -5.2989  -18.3655  -54.9684 H         1 UNK         0.0600 
    237 H237       -7.1340  -20.0545  -54.6901 H         1 UNK         0.0600 
    238 H238       -5.6773  -20.7807  -55.3484 H         1 UNK         0.0600 
    239 H239       -6.0857  -21.0248  -53.6562 H         1 UNK         0.0600 
    240 H240       -3.9956  -18.6688  -51.9057 H         1 UNK         0.3000 
    241 H241       -2.1026  -19.2035  -50.9640 H         1 UNK         0.0600 
    242 H242       -3.8466  -21.4502  -51.6689 H         1 UNK         0.3800 
    243 H243       -2.7697  -22.8362  -51.7046 H         1 UNK         0.3800 
    244 H244        0.0861  -19.1663  -52.3649 H         1 UNK         0.0800 
    245 H245       -0.8943  -18.9287  -53.7605 H         1 UNK         0.0800 
    246 H246       -0.6378  -15.8619  -50.2577 H         1 UNK         0.0800 
    247 H247       -1.0137  -17.5389  -50.0205 H         1 UNK         0.0800 
@<TRIPOS>BOND
     1    1    2 1    
     2    1  127 1    
     3    1  128 1    
     4    1  129 1    
     5    2    3 2    
     6    2    4 am   BACKBONE|DICT|INTERRES
     7    4    5 1    
     8    4  130 1    
     9    5    6 1    
    10    5   65 1    
    11    5  131 1    
    12    6    7 1    
    13    6  132 1    
    14    6  133 1    
    15    7    8 1    
    16    8    9 1    
    17    8  134 1    
    18    8  135 1    
    19    9   10 ar   
    20    9   14 ar   
    21   10   11 ar   
    22   10  136 1    
    23   11   12 ar   
    24   11  126 1    
    25   12   13 ar   
    26   12  137 1    
    27   13   14 ar   
    28   13   15 1    
    29   14  138 1    
    30   15   16 1    
    31   15  139 1    
    32   15  140 1    
    33   16   17 1    
    34   17   18 1    
    35   17  141 1    
    36   17  142 1    
    37   18   19 1    
    38   18   67 1    
    39   18  143 1    
    40   19   20 am   BACKBONE|DICT|INTERRES
    41   19  144 1    
    42   20   21 2    
    43   20   22 1    
    44   22   23 1    
    45   22   24 1    
    46   22  145 1    
    47   23  146 1    
    48   23  147 1    
    49   23  148 1    
    50   24   25 am   BACKBONE|DICT|INTERRES
    51   24  149 1    
    52   25   26 2    
    53   25   27 1    
    54   27   28 1    
    55   27   29 1    
    56   27  150 1    
    57   28  151 1    
    58   28  152 1    
    59   28  153 1    
    60   29   30 am   BACKBONE|DICT|INTERRES
    61   29  154 1    
    62   30   31 2    
    63   30   32 1    
    64   32   33 1    
    65   32   34 1    
    66   32  155 1    
    67   33  156 1    
    68   33  157 1    
    69   33  158 1    
    70   34   35 am   BACKBONE|DICT|INTERRES
    71   34  159 1    
    72   35   36 2    
    73   35   37 1    
    74   37   38 1    
    75   37   39 1    
    76   37  160 1    
    77   38  161 1    
    78   38  162 1    
    79   38  163 1    
    80   39   40 am   BACKBONE|DICT|INTERRES
    81   39  164 1    
    82   40   41 2    
    83   40   42 1    
    84   42   43 1    
    85   42   44 1    
    86   42  165 1    
    87   43  166 1    
    88   43  167 1    
    89   43  168 1    
    90   44   45 am   BACKBONE|DICT|INTERRES
    91   44  169 1    
    92   45   46 2    
    93   45   47 1    
    94   47   48 1    
    95   47   49 1    
    96   47  170 1    
    97   48  171 1    
    98   48  172 1    
    99   48  173 1    
   100   49   50 am   BACKBONE|DICT|INTERRES
   101   49  174 1    
   102   50   51 2    
   103   50   52 1    
   104   52   53 1    
   105   52   54 1    
   106   52  175 1    
   107   53  176 1    
   108   53  177 1    
   109   53  178 1    
   110   54   55 am   BACKBONE|DICT|INTERRES
   111   54  179 1    
   112   55   56 2    
   113   55   57 1    
   114   57   58 1    
   115   57   59 1    
   116   57  180 1    
   117   58  181 1    
   118   58  182 1    
   119   58  183 1    
   120   59   60 am   BACKBONE|DICT|INTERRES
   121   59  184 1    
   122   60   61 2    
   123   60   62 1    
   124   62   63 1    
   125   62   64 1    
   126   62  185 1    
   127   63  186 1    
   128   63  187 1    
   129   63  188 1    
   130   64   65 am   BACKBONE|DICT|INTERRES
   131   64  189 1    
   132   65   66 2    
   133   67   68 2    
   134   67   69 am   BACKBONE|DICT|INTERRES
   135   69   70 1    
   136   69  190 1    
   137   70   71 1    
   138   70   72 1    
   139   70  191 1    
   140   71  192 1    
   141   71  193 1    
   142   71  194 1    
   143   72   73 2    
   144   72   74 am   BACKBONE|DICT|INTERRES
   145   74   75 1    
   146   74  195 1    
   147   75   76 1    
   148   75   77 1    
   149   75  196 1    
   150   76  197 1    
   151   76  198 1    
   152   76  199 1    
   153   77   78 2    
   154   77   79 am   BACKBONE|DICT|INTERRES
   155   79   80 1    
   156   79  200 1    
   157   80   81 1    
   158   80   82 1    
   159   80  201 1    
   160   81  202 1    
   161   81  203 1    
   162   81  204 1    
   163   82   83 2    
   164   82   84 am   BACKBONE|DICT|INTERRES
   165   84   85 1    
   166   84  205 1    
   167   85   86 1    
   168   85   87 1    
   169   85  206 1    
   170   86  207 1    
   171   86  208 1    
   172   86  209 1    
   173   87   88 2    
   174   87   89 am   BACKBONE|DICT|INTERRES
   175   89   90 1    
   176   89  210 1    
   177   90   91 1    
   178   90   92 1    
   179   90  211 1    
   180   91  212 1    
   181   91  213 1    
   182   91  214 1    
   183   92   93 2    
   184   92   94 am   BACKBONE|DICT|INTERRES
   185   94   95 1    
   186   94  215 1    
   187   95   96 1    
   188   95   97 1    
   189   95  216 1    
   190   96  217 1    
   191   96  218 1    
   192   96  219 1    
   193   97   98 2    
   194   97   99 am   BACKBONE|DICT|INTERRES
   195   99  100 1    
   196   99  220 1    
   197  100  101 1    
   198  100  102 1    
   199  100  221 1    
   200  101  222 1    
   201  101  223 1    
   202  101  224 1    
   203  102  103 2    
   204  102  104 am   BACKBONE|DICT|INTERRES
   205  104  105 1    
   206  104  225 1    
   207  105  106 1    
   208  105  107 1    
   209  105  226 1    
   210  106  227 1    
   211  106  228 1    
   212  106  229 1    
   213  107  108 2    
   214  107  109 am   BACKBONE|DICT|INTERRES
   215  109  110 1    
   216  109  230 1    
   217  110  111 1    
   218  110  112 1    
   219  110  231 1    
   220  111  232 1    
   221  111  233 1    
   222  111  234 1    
   223  112  113 2    
   224  112  114 am   BACKBONE|DICT|INTERRES
   225  114  115 1    
   226  114  235 1    
   227  115  116 1    
   228  115  117 1    
   229  115  236 1    
   230  116  237 1    
   231  116  238 1    
   232  116  239 1    
   233  117  118 2    
   234  117  119 am   BACKBONE|DICT|INTERRES
   235  119  120 1    
   236  119  240 1    
   237  120  121 1    
   238  120  124 1    
   239  120  241 1    
   240  121  122 am   BACKBONE|DICT|INTERRES
   241  121  123 2    
   242  122  242 1    
   243  122  243 1    
   244  124  125 1    
   245  124  244 1    
   246  124  245 1    
   247  125  126 1    
   248  126  246 1    
   249  126  247 1    
@<TRIPOS>SUBSTRUCTURE
     1 UNK         1 GROUP             0       ****    0 ROOT    
