@<TRIPOS>MOLECULE
3R540
247   249    1
SMALL
USER_CHARGES


@<TRIPOS>ATOM
      1 CA          3.1974  -13.0817  -49.0223 C.3       0 UNK        -0.1800 
      2 C           2.0953  -13.1337  -47.9751 C.2       0 UNK         0.5000 
      3 O           2.0310  -14.0895  -47.2050 O.2       0 UNK        -0.5000 
      4 N           1.2236  -12.1212  -47.9493 N.am      1 UNK        -0.5000 
      5 CA          0.0913  -12.0320  -47.0204 C.3       1 UNK         0.1400 
      6 C6         -1.1628  -12.7710  -47.5718 C.3       23 UNK        -0.0398 
      7 S7         -1.9171  -13.9050  -46.3555 S.3       23 UNK        -0.2404 
      8 C8         -3.5758  -14.1573  -47.0707 C.3       23 UNK        -0.0205 
      9 C9         -3.5712  -15.1428  -48.2337 C.ar      23 UNK        -0.0193 
     10 C10        -3.1843  -14.7230  -49.5082 C.ar      23 UNK        -0.1150 
     11 C11        -3.1797  -15.6145  -50.5831 C.ar      23 UNK        -0.0193 
     12 C12        -3.6065  -16.9333  -50.3850 C.ar      23 UNK        -0.1150 
     13 C13        -4.0186  -17.3666  -49.1193 C.ar      23 UNK        -0.0193 
     14 C14        -3.9893  -16.4650  -48.0484 C.ar      23 UNK        -0.1150 
     15 C15        -4.5508  -18.7840  -48.9140 C.3       23 UNK        -0.0205 
     16 S16        -3.2991  -20.0709  -49.2335 S.3       23 UNK        -0.2404 
     17 C17        -3.7370  -21.3385  -47.9976 C.3       23 UNK        -0.0398 
     18 CA         -2.7392  -22.5276  -47.9238 C.3       11 UNK         0.1400 
     19 N          -1.3562  -22.1201  -47.6321 N.am      11 UNK        -0.5000 
     20 C          -0.3039  -22.9515  -47.5534 C.2       10 UNK         0.5000 
     21 O          -0.3715  -24.1613  -47.7698 O.2       10 UNK        -0.5000 
     22 CA          1.0410  -22.3543  -47.0961 C.3       10 UNK         0.1400 
     23 CB          1.7755  -21.6667  -48.2577 C.3       10 UNK        -0.1800 
     24 N           0.8928  -21.4326  -45.9680 N.am      10 UNK        -0.5000 
     25 C           0.5029  -21.8036  -44.7393 C.2       9 UNK         0.5000 
     26 O           0.2851  -22.9705  -44.4180 O.2       9 UNK        -0.5000 
     27 CA          0.2549  -20.6871  -43.7074 C.3       9 UNK         0.1400 
     28 CB          1.5645  -20.2420  -43.0403 C.3       9 UNK        -0.1800 
     29 N          -0.4247  -19.5319  -44.2893 N.am      9 UNK        -0.5000 
     30 C          -1.6540  -19.5721  -44.8225 C.2       8 UNK         0.5000 
     31 O          -2.3798  -20.5664  -44.8007 O.2       8 UNK        -0.5000 
     32 CA         -2.1320  -18.3049  -45.5501 C.3       8 UNK         0.1400 
     33 CB         -2.7459  -17.3194  -44.5481 C.3       8 UNK        -0.1800 
     34 N          -1.0663  -17.6521  -46.3166 N.am      8 UNK        -0.5000 
     35 C          -0.4227  -18.2309  -47.3422 C.2       7 UNK         0.5000 
     36 O          -0.6453  -19.3747  -47.7243 O.2       7 UNK        -0.5000 
     37 CA          0.7164  -17.4415  -48.0020 C.3       7 UNK         0.1400 
     38 CB          0.1627  -16.3600  -48.9352 C.3       7 UNK        -0.1800 
     39 N           1.6084  -16.8464  -47.0113 N.am      7 UNK        -0.5000 
     40 C           2.3679  -17.5483  -46.1603 C.2       6 UNK         0.5000 
     41 O           2.4476  -18.7771  -46.1687 O.2       6 UNK        -0.5000 
     42 CA          3.1300  -16.7440  -45.0927 C.3       6 UNK         0.1400 
     43 CB          4.4615  -16.2172  -45.6484 C.3       6 UNK        -0.1800 
     44 N           2.3518  -15.6258  -44.5564 N.am      6 UNK        -0.5000 
     45 C           1.2189  -15.7425  -43.8522 C.2       5 UNK         0.5000 
     46 O           0.6938  -16.8264  -43.5902 O.2       5 UNK        -0.5000 
     47 CA          0.5913  -14.4277  -43.3459 C.3       5 UNK         0.1400 
     48 CB         -0.6098  -14.6490  -42.4106 C.3       5 UNK        -0.1800 
     49 N           1.5724  -13.5996  -42.6435 N.am      5 UNK        -0.5000 
     50 C           2.3523  -12.6830  -43.2233 C.2       4 UNK         0.5000 
     51 O           2.3871  -12.4809  -44.4379 O.2       4 UNK        -0.5000 
     52 CA          3.2332  -11.8290  -42.2994 C.3       4 UNK         0.1400 
     53 CB          4.7212  -12.1488  -42.5109 C.3       4 UNK        -0.1800 
     54 N           2.9899  -10.4203  -42.5985 N.am      4 UNK        -0.5000 
     55 C           1.8974   -9.7513  -42.2057 C.2       3 UNK         0.5000 
     56 O           1.0714  -10.1903  -41.4047 O.2       3 UNK        -0.5000 
     57 CA          1.6567   -8.3991  -42.8815 C.3       3 UNK         0.1400 
     58 CB          2.7976   -7.3985  -42.6145 C.3       3 UNK        -0.1800 
     59 N           1.4802   -8.6235  -44.3143 N.am      3 UNK        -0.5000 
     60 C           0.8168   -7.8094  -45.1424 C.2       2 UNK         0.5000 
     61 O           0.2968   -6.7504  -44.7881 O.2       2 UNK        -0.5000 
     62 CA          0.7189   -8.2385  -46.6184 C.3       2 UNK         0.1400 
     63 CB          1.8105   -7.5440  -47.4477 C.3       2 UNK        -0.1800 
     64 N           0.8214   -9.6863  -46.8229 N.am      2 UNK        -0.5000 
     65 C          -0.1719  -10.5646  -46.6115 C.2       1 UNK         0.5000 
     66 O          -1.2628  -10.2437  -46.1385 O.2       1 UNK        -0.5000 
     67 C          -3.2455  -23.5667  -46.8993 C.2       11 UNK         0.5000 
     68 O          -3.8059  -24.5918  -47.2929 O.2       11 UNK        -0.5000 
     69 N          -3.0085  -23.2903  -45.6081 N.am      12 UNK        -0.5000 
     70 CA         -3.3520  -24.1595  -44.4848 C.3       12 UNK         0.1400 
     71 CB         -3.1620  -23.3962  -43.1654 C.3       12 UNK        -0.1800 
     72 C          -2.5525  -25.4736  -44.4789 C.2       12 UNK         0.5000 
     73 O          -3.1506  -26.5372  -44.3172 O.2       12 UNK        -0.5000 
     74 N          -1.2301  -25.3909  -44.6888 N.am      13 UNK        -0.5000 
     75 CA         -0.3216  -26.5410  -44.7560 C.3       13 UNK         0.1400 
     76 CB          1.1314  -26.0506  -44.8401 C.3       13 UNK        -0.1800 
     77 C          -0.6356  -27.4944  -45.9232 C.2       13 UNK         0.5000 
     78 O          -0.5165  -28.7100  -45.7664 O.2       13 UNK        -0.5000 
     79 N          -1.0718  -26.9284  -47.0554 N.am      14 UNK        -0.5000 
     80 CA         -1.5526  -27.6601  -48.2260 C.3       14 UNK         0.1400 
     81 CB         -1.4647  -26.7380  -49.4519 C.3       14 UNK        -0.1800 
     82 C          -2.9883  -28.2003  -48.0685 C.2       14 UNK         0.5000 
     83 O          -3.4673  -28.8717  -48.9808 O.2       14 UNK        -0.5000 
     84 N          -3.6733  -27.8734  -46.9610 N.am      15 UNK        -0.5000 
     85 CA         -5.0695  -28.2102  -46.6558 C.3       15 UNK         0.1400 
     86 CB         -5.2152  -29.7215  -46.3832 C.3       15 UNK        -0.1800 
     87 C          -6.0498  -27.6901  -47.7296 C.2       15 UNK         0.5000 
     88 O          -6.9954  -28.3867  -48.1017 O.2       15 UNK        -0.5000 
     89 N          -5.7673  -26.4783  -48.2298 N.am      16 UNK        -0.5000 
     90 CA         -6.4550  -25.7607  -49.3055 C.3       16 UNK         0.1400 
     91 CB         -7.9268  -25.4772  -48.9407 C.3       16 UNK        -0.1800 
     92 C          -6.3045  -26.3887  -50.7096 C.2       16 UNK         0.5000 
     93 O          -6.9551  -25.9165  -51.6426 O.2       16 UNK        -0.5000 
     94 N          -5.4248  -27.3899  -50.8788 N.am      17 UNK        -0.5000 
     95 CA         -5.1095  -27.9815  -52.1867 C.3       17 UNK         0.1400 
     96 CB         -4.3950  -29.3267  -51.9921 C.3       17 UNK        -0.1800 
     97 C          -4.2614  -27.0483  -53.0749 C.2       17 UNK         0.5000 
     98 O          -4.2848  -27.1874  -54.2981 O.2       17 UNK        -0.5000 
     99 N          -3.5491  -26.1073  -52.4431 N.am      18 UNK        -0.5000 
    100 CA        -2.7633  -25.0530  -53.0780 C.3       18 UNK         0.1400 
    101 CB        -1.2627  -25.3449  -52.8956 C.3       18 UNK        -0.1800 
    102 C         -3.1877  -23.6934  -52.4966 C.2       18 UNK         0.5000 
    103 O         -2.3394  -22.8861  -52.1186 O.2       18 UNK        -0.5000 
    104 N         -4.5087  -23.4662  -52.4320 N.am      19 UNK        -0.5000 
    105 CA        -5.1389  -22.2494  -51.9050 C.3       19 UNK         0.1400 
    106 CB        -6.6482  -22.4925  -51.7465 C.3       19 UNK        -0.1800 
    107 C         -4.8872  -20.9741  -52.7375 C.2       19 UNK         0.5000 
    108 O         -5.2150  -19.8830  -52.2713 O.2       19 UNK        -0.5000 
    109 N         -4.3330  -21.1219  -53.9501 N.am      20 UNK        -0.5000 
    110 CA        -3.8904  -20.0173  -54.7988 C.3       20 UNK         0.1400 
    111 CB        -3.5097  -20.5504  -56.1897 C.3       20 UNK        -0.1800 
    112 C         -2.7282  -19.2423  -54.1521 C.2       20 UNK         0.5000 
    113 O         -2.8672  -18.0420  -53.9288 O.2       20 UNK        -0.5000 
    114 N         -1.6379  -19.9629  -53.8410 N.am      21 UNK        -0.5000 
    115 CA        -0.4123  -19.5864  -53.1153 C.3       21 UNK         0.1400 
    116 CB        -0.7090  -19.3971  -51.6183 C.3       21 UNK        -0.1800 
    117 C          0.3916  -18.3851  -53.6585 C.2       21 UNK         0.5000 
    118 O          1.6063  -18.4970  -53.8282 O.2       21 UNK        -0.5000 
    119 N         -0.2840  -17.2592  -53.8915 N.am      22 UNK        -0.5000 
    120 CA         0.2841  -15.9601  -54.2796 C.3       22 UNK         0.1400 
    121 C          0.6253  -15.8296  -55.7931 C.2       22 UNK         0.5000 
    122 N          0.2958  -16.7978  -56.6395 N.am      22 UNK        -0.7600 
    123 O          1.2103  -14.8326  -56.2079 O.2       22 UNK        -0.5000 
    124 C124       -0.6164  -14.7869  -53.8069 C.3       23 UNK        -0.0398 
    125 S125       -0.9360  -14.8233  -52.0072 S.3       23 UNK        -0.2404 
    126 C126       -2.7309  -15.1364  -51.9562 C.3       23 UNK        -0.0205 
    127 H127        3.1239  -13.9452  -49.6833 H         1 UNK         0.0600 
    128 H128        4.1737  -13.1035  -48.5380 H         1 UNK         0.0600 
    129 H129        3.1378  -12.1794  -49.6311 H         1 UNK         0.0600 
    130 H130        1.2937  -11.3781  -48.6306 H         1 UNK         0.3000 
    131 H131        0.3943  -12.5098  -46.0892 H         1 UNK         0.0600 
    132 H132       -0.8929  -13.3727  -48.4394 H         1 UNK         0.0800 
    133 H133       -1.9163  -12.0715  -47.9375 H         1 UNK         0.0800 
    134 H134       -3.9904  -13.2012  -47.3931 H         1 UNK         0.0800 
    135 H135       -4.2387  -14.5175  -46.2829 H         1 UNK         0.0800 
    136 H136       -2.8771  -13.7000  -49.6689 H         1 UNK         0.1150 
    137 H137       -3.6302  -17.6247  -51.2165 H         1 UNK         0.1150 
    138 H138       -4.3165  -16.7857  -47.0703 H         1 UNK         0.1150 
    139 H139       -4.9381  -18.8944  -47.9005 H         1 UNK         0.0800 
    140 H140       -5.3975  -18.9468  -49.5821 H         1 UNK         0.0800 
    141 H141       -4.7379  -21.7008  -48.2399 H         1 UNK         0.0800 
    142 H142       -3.8162  -20.8503  -47.0257 H         1 UNK         0.0800 
    143 H143       -2.7254  -23.0151  -48.9011 H         1 UNK         0.0600 
    144 H144       -1.1932  -21.1215  -47.5141 H         1 UNK         0.3000 
    145 H145        1.6685  -23.1816  -46.7586 H         1 UNK         0.0600 
    146 H146        2.7324  -21.2579  -47.9325 H         1 UNK         0.0600 
    147 H147        1.9795  -22.3777  -49.0590 H         1 UNK         0.0600 
    148 H148        1.1943  -20.8531  -48.6893 H         1 UNK         0.0600 
    149 H149        1.0585  -20.4503  -46.1552 H         1 UNK         0.3000 
    150 H150       -0.3957  -21.0941  -42.9307 H         1 UNK         0.0600 
    151 H151        2.0562  -21.0834  -42.5506 H         1 UNK         0.0600 
    152 H152        1.3810  -19.4831  -42.2794 H         1 UNK         0.0600 
    153 H153        2.2676  -19.8275  -43.7617 H         1 UNK         0.0600 
    154 H154        0.0854  -18.6547  -44.3048 H         1 UNK         0.3000 
    155 H155       -2.9065  -18.6026  -46.2584 H         1 UNK         0.0600 
    156 H156       -2.0502  -17.0935  -43.7417 H         1 UNK         0.0600 
    157 H157       -3.6422  -17.7416  -44.0923 H         1 UNK         0.0600 
    158 H158       -3.0326  -16.3828  -45.0233 H         1 UNK         0.0600 
    159 H159       -0.8029  -16.7187  -46.0387 H         1 UNK         0.3000 
    160 H160        1.3021  -18.1385  -48.6050 H         1 UNK         0.0600 
    161 H161       -0.4271  -15.6267  -48.3885 H         1 UNK         0.0600 
    162 H162       -0.4868  -16.8001  -49.6930 H         1 UNK         0.0600 
    163 H163        0.9622  -15.8325  -49.4550 H         1 UNK         0.0600 
    164 H164        1.6466  -15.8284  -46.9714 H         1 UNK         0.3000 
    165 H165        3.3508  -17.4218  -44.2655 H         1 UNK         0.0600 
    166 H166        4.3062  -15.5098  -46.4640 H         1 UNK         0.0600 
    167 H167        5.0403  -15.7136  -44.8740 H         1 UNK         0.0600 
    168 H168        5.0737  -17.0336  -46.0336 H         1 UNK         0.0600 
    169 H169        2.6671  -14.6931  -44.7957 H         1 UNK         0.3000 
    170 H170        0.2252  -13.8902  -44.2211 H         1 UNK         0.0600 
    171 H171       -1.4388  -15.1082  -42.9457 H         1 UNK         0.0600 
    172 H172       -0.9791  -13.7033  -42.0131 H         1 UNK         0.0600 
    173 H173       -0.3564  -15.2917  -41.5666 H         1 UNK         0.0600 
    174 H174        1.6238  -13.7256  -41.6427 H         1 UNK         0.3000 
    175 H175        2.9793  -12.0287  -41.2561 H         1 UNK         0.0600 
    176 H176        5.0330  -11.9657  -43.5401 H         1 UNK         0.0600 
    177 H177        5.3505  -11.5444  -41.8574 H         1 UNK         0.0600 
    178 H178        4.9295  -13.1957  -42.2866 H         1 UNK         0.0600 
    179 H179        3.6093   -9.9948  -43.2722 H         1 UNK         0.3000 
    180 H180        0.7324   -7.9896  -42.4677 H         1 UNK         0.0600 
    181 H181        2.9782   -7.2893  -41.5445 H         1 UNK         0.0600 
    182 H182        2.5522   -6.4099  -43.0027 H         1 UNK         0.0600 
    183 H183        3.7333   -7.7127  -43.0775 H         1 UNK         0.0600 
    184 H184        1.8261   -9.5020  -44.6754 H         1 UNK         0.3000 
    185 H185       -0.2517   -7.9044  -46.9919 H         1 UNK         0.0600 
    186 H186        1.7073   -7.7741  -48.5083 H         1 UNK         0.0600 
    187 H187        1.7491   -6.4597  -47.3451 H         1 UNK         0.0600 
    188 H188        2.8100   -7.8469  -47.1329 H         1 UNK         0.0600 
    189 H189        1.7058  -10.0333  -47.1647 H         1 UNK         0.3000 
    190 H190       -2.5737  -22.4019  -45.3724 H         1 UNK         0.3000 
    191 H191       -4.4094  -24.4163  -44.5761 H         1 UNK         0.0600 
    192 H192       -3.4299  -24.0188  -42.3109 H         1 UNK         0.0600 
    193 H193       -3.7924  -22.5074  -43.1313 H         1 UNK         0.0600 
    194 H194       -2.1287  -23.0763  -43.0290 H         1 UNK         0.0600 
    195 H195       -0.7994  -24.4729  -44.7706 H         1 UNK         0.3000 
    196 H196       -0.4357  -27.1071  -43.8294 H         1 UNK         0.0600 
    197 H197        1.2961  -25.4367  -45.7261 H         1 UNK         0.0600 
    198 H198        1.3983  -25.4570  -43.9657 H         1 UNK         0.0600 
    199 H199        1.8266  -26.8897  -44.8867 H         1 UNK         0.0600 
    200 H200       -1.0758  -25.9146  -47.1247 H         1 UNK         0.3000 
    201 H201       -0.8990  -28.5176  -48.3977 H         1 UNK         0.0600 
    202 H202       -1.7515  -27.2660  -50.3620 H         1 UNK         0.0600 
    203 H203       -2.1171  -25.8697  -49.3498 H         1 UNK         0.0600 
    204 H204       -0.4471  -26.3751  -49.5973 H         1 UNK         0.0600 
    205 H205       -3.2083  -27.3080  -46.2603 H         1 UNK         0.3000 
    206 H206       -5.3192  -27.6821  -45.7346 H         1 UNK         0.0600 
    207 H207       -4.5177  -30.0505  -45.6128 H         1 UNK         0.0600 
    208 H208       -6.2201  -29.9608  -46.0337 H         1 UNK         0.0600 
    209 H209       -5.0303  -30.3153  -47.2789 H         1 UNK         0.0600 
    210 H210       -4.9676  -25.9822  -47.8402 H         1 UNK         0.3000 
    211 H211       -5.9482  -24.7968  -49.3655 H         1 UNK         0.0600 
    212 H212       -8.3858  -24.7971  -49.6590 H         1 UNK         0.0600 
    213 H213       -8.0067  -25.0101  -47.9591 H         1 UNK         0.0600 
    214 H214       -8.5264  -26.3876  -48.9303 H         1 UNK         0.0600 
    215 H215       -4.9297  -27.7671  -50.0783 H         1 UNK         0.3000 
    216 H216       -6.0489  -28.1740  -52.7093 H         1 UNK         0.0600 
    217 H217       -3.3958  -29.1961  -51.5755 H         1 UNK         0.0600 
    218 H218       -4.2827  -29.8468  -52.9441 H         1 UNK         0.0600 
    219 H219       -4.9559  -29.9829  -51.3262 H         1 UNK         0.0600 
    220 H220       -3.6158  -26.0639  -51.4370 H         1 UNK         0.3000 
    221 H221       -2.9739  -25.0138  -54.1486 H         1 UNK         0.0600 
    222 H222       -1.0037  -26.3342  -53.2728 H         1 UNK         0.0600 
    223 H223       -0.9656  -25.2953  -51.8483 H         1 UNK         0.0600 
    224 H224       -0.6566  -24.6203  -53.4406 H         1 UNK         0.0600 
    225 H225       -5.1371  -24.1857  -52.7624 H         1 UNK         0.3000 
    226 H226       -4.7223  -22.0660  -50.9137 H         1 UNK         0.0600 
    227 H227       -7.1132  -22.7680  -52.6937 H         1 UNK         0.0600 
    228 H228       -6.8481  -23.2862  -51.0299 H         1 UNK         0.0600 
    229 H229       -7.1563  -21.6002  -51.3782 H         1 UNK         0.0600 
    230 H230       -4.1201  -22.0560  -54.2637 H         1 UNK         0.3000 
    231 H231       -4.7274  -19.3262  -54.9198 H         1 UNK         0.0600 
    232 H232       -2.7141  -21.2945  -56.1403 H         1 UNK         0.0600 
    233 H233       -3.1641  -19.7417  -56.8350 H         1 UNK         0.0600 
    234 H234       -4.3671  -21.0113  -56.6806 H         1 UNK         0.0600 
    235 H235       -1.6793  -20.9451  -54.0720 H         1 UNK         0.3000 
    236 H236        0.2461  -20.4523  -53.2003 H         1 UNK         0.0600 
    237 H237       -1.4286  -18.5972  -51.4455 H         1 UNK         0.0600 
    238 H238       -1.1116  -20.3126  -51.1853 H         1 UNK         0.0600 
    239 H239        0.1952  -19.1487  -51.0611 H         1 UNK         0.0600 
    240 H240       -1.2954  -17.2959  -53.7762 H         1 UNK         0.3000 
    241 H241        1.2386  -15.8588  -53.7597 H         1 UNK         0.0600 
    242 H242        0.5261  -16.7062  -57.6166 H         1 UNK         0.3800 
    243 H243       -0.1764  -17.6232  -56.3078 H         1 UNK         0.3800 
    244 H244       -1.5626  -14.7910  -54.3506 H         1 UNK         0.0800 
    245 H245       -0.1427  -13.8302  -54.0332 H         1 UNK         0.0800 
    246 H246       -3.2620  -14.2194  -52.2150 H         1 UNK         0.0800 
    247 H247       -3.0014  -15.8683  -52.7142 H         1 UNK         0.0800 
@<TRIPOS>BOND
     1    1    2 1    
     2    1  127 1    
     3    1  128 1    
     4    1  129 1    
     5    2    3 2    
     6    2    4 am   BACKBONE|DICT|INTERRES
     7    4    5 1    
     8    4  130 1    
     9    5    6 1    
    10    5   65 1    
    11    5  131 1    
    12    6    7 1    
    13    6  132 1    
    14    6  133 1    
    15    7    8 1    
    16    8    9 1    
    17    8  134 1    
    18    8  135 1    
    19    9   10 ar   
    20    9   14 ar   
    21   10   11 ar   
    22   10  136 1    
    23   11   12 ar   
    24   11  126 1    
    25   12   13 ar   
    26   12  137 1    
    27   13   14 ar   
    28   13   15 1    
    29   14  138 1    
    30   15   16 1    
    31   15  139 1    
    32   15  140 1    
    33   16   17 1    
    34   17   18 1    
    35   17  141 1    
    36   17  142 1    
    37   18   19 1    
    38   18   67 1    
    39   18  143 1    
    40   19   20 am   BACKBONE|DICT|INTERRES
    41   19  144 1    
    42   20   21 2    
    43   20   22 1    
    44   22   23 1    
    45   22   24 1    
    46   22  145 1    
    47   23  146 1    
    48   23  147 1    
    49   23  148 1    
    50   24   25 am   BACKBONE|DICT|INTERRES
    51   24  149 1    
    52   25   26 2    
    53   25   27 1    
    54   27   28 1    
    55   27   29 1    
    56   27  150 1    
    57   28  151 1    
    58   28  152 1    
    59   28  153 1    
    60   29   30 am   BACKBONE|DICT|INTERRES
    61   29  154 1    
    62   30   31 2    
    63   30   32 1    
    64   32   33 1    
    65   32   34 1    
    66   32  155 1    
    67   33  156 1    
    68   33  157 1    
    69   33  158 1    
    70   34   35 am   BACKBONE|DICT|INTERRES
    71   34  159 1    
    72   35   36 2    
    73   35   37 1    
    74   37   38 1    
    75   37   39 1    
    76   37  160 1    
    77   38  161 1    
    78   38  162 1    
    79   38  163 1    
    80   39   40 am   BACKBONE|DICT|INTERRES
    81   39  164 1    
    82   40   41 2    
    83   40   42 1    
    84   42   43 1    
    85   42   44 1    
    86   42  165 1    
    87   43  166 1    
    88   43  167 1    
    89   43  168 1    
    90   44   45 am   BACKBONE|DICT|INTERRES
    91   44  169 1    
    92   45   46 2    
    93   45   47 1    
    94   47   48 1    
    95   47   49 1    
    96   47  170 1    
    97   48  171 1    
    98   48  172 1    
    99   48  173 1    
   100   49   50 am   BACKBONE|DICT|INTERRES
   101   49  174 1    
   102   50   51 2    
   103   50   52 1    
   104   52   53 1    
   105   52   54 1    
   106   52  175 1    
   107   53  176 1    
   108   53  177 1    
   109   53  178 1    
   110   54   55 am   BACKBONE|DICT|INTERRES
   111   54  179 1    
   112   55   56 2    
   113   55   57 1    
   114   57   58 1    
   115   57   59 1    
   116   57  180 1    
   117   58  181 1    
   118   58  182 1    
   119   58  183 1    
   120   59   60 am   BACKBONE|DICT|INTERRES
   121   59  184 1    
   122   60   61 2    
   123   60   62 1    
   124   62   63 1    
   125   62   64 1    
   126   62  185 1    
   127   63  186 1    
   128   63  187 1    
   129   63  188 1    
   130   64   65 am   BACKBONE|DICT|INTERRES
   131   64  189 1    
   132   65   66 2    
   133   67   68 2    
   134   67   69 am   BACKBONE|DICT|INTERRES
   135   69   70 1    
   136   69  190 1    
   137   70   71 1    
   138   70   72 1    
   139   70  191 1    
   140   71  192 1    
   141   71  193 1    
   142   71  194 1    
   143   72   73 2    
   144   72   74 am   BACKBONE|DICT|INTERRES
   145   74   75 1    
   146   74  195 1    
   147   75   76 1    
   148   75   77 1    
   149   75  196 1    
   150   76  197 1    
   151   76  198 1    
   152   76  199 1    
   153   77   78 2    
   154   77   79 am   BACKBONE|DICT|INTERRES
   155   79   80 1    
   156   79  200 1    
   157   80   81 1    
   158   80   82 1    
   159   80  201 1    
   160   81  202 1    
   161   81  203 1    
   162   81  204 1    
   163   82   83 2    
   164   82   84 am   BACKBONE|DICT|INTERRES
   165   84   85 1    
   166   84  205 1    
   167   85   86 1    
   168   85   87 1    
   169   85  206 1    
   170   86  207 1    
   171   86  208 1    
   172   86  209 1    
   173   87   88 2    
   174   87   89 am   BACKBONE|DICT|INTERRES
   175   89   90 1    
   176   89  210 1    
   177   90   91 1    
   178   90   92 1    
   179   90  211 1    
   180   91  212 1    
   181   91  213 1    
   182   91  214 1    
   183   92   93 2    
   184   92   94 am   BACKBONE|DICT|INTERRES
   185   94   95 1    
   186   94  215 1    
   187   95   96 1    
   188   95   97 1    
   189   95  216 1    
   190   96  217 1    
   191   96  218 1    
   192   96  219 1    
   193   97   98 2    
   194   97   99 am   BACKBONE|DICT|INTERRES
   195   99  100 1    
   196   99  220 1    
   197  100  101 1    
   198  100  102 1    
   199  100  221 1    
   200  101  222 1    
   201  101  223 1    
   202  101  224 1    
   203  102  103 2    
   204  102  104 am   BACKBONE|DICT|INTERRES
   205  104  105 1    
   206  104  225 1    
   207  105  106 1    
   208  105  107 1    
   209  105  226 1    
   210  106  227 1    
   211  106  228 1    
   212  106  229 1    
   213  107  108 2    
   214  107  109 am   BACKBONE|DICT|INTERRES
   215  109  110 1    
   216  109  230 1    
   217  110  111 1    
   218  110  112 1    
   219  110  231 1    
   220  111  232 1    
   221  111  233 1    
   222  111  234 1    
   223  112  113 2    
   224  112  114 am   BACKBONE|DICT|INTERRES
   225  114  115 1    
   226  114  235 1    
   227  115  116 1    
   228  115  117 1    
   229  115  236 1    
   230  116  237 1    
   231  116  238 1    
   232  116  239 1    
   233  117  118 2    
   234  117  119 am   BACKBONE|DICT|INTERRES
   235  119  120 1    
   236  119  240 1    
   237  120  121 1    
   238  120  124 1    
   239  120  241 1    
   240  121  122 am   BACKBONE|DICT|INTERRES
   241  121  123 2    
   242  122  242 1    
   243  122  243 1    
   244  124  125 1    
   245  124  244 1    
   246  124  245 1    
   247  125  126 1    
   248  126  246 1    
   249  126  247 1    
@<TRIPOS>SUBSTRUCTURE
     1 UNK         1 GROUP             0       ****    0 ROOT    
