@<TRIPOS>MOLECULE
3R540
247   249    1
SMALL
USER_CHARGES


@<TRIPOS>ATOM
      1 CA         -2.2841  -15.6989  -47.1465 C.3       0 UNK        -0.1800 
      2 C          -1.2440  -14.8499  -47.8601 C.2       0 UNK         0.5000 
      3 O          -0.9280  -13.7533  -47.3996 O.2       0 UNK        -0.5000 
      4 N          -0.7025  -15.3459  -48.9809 N.am      1 UNK        -0.5000 
      5 CA          0.2413  -14.6296  -49.8527 C.3       1 UNK         0.1400 
      6 C6          0.3343  -15.2610  -51.2643 C.3       23 UNK        -0.0398 
      7 S7          0.7895  -17.0283  -51.2699 S.3       23 UNK        -0.2404 
      8 C8          2.3883  -16.9727  -52.1330 C.3       23 UNK        -0.0205 
      9 C9          3.0851  -18.3249  -52.1133 C.ar      23 UNK        -0.0193 
     10 C10         2.6729  -19.3468  -52.9730 C.ar      23 UNK        -0.1150 
     11 C11         3.3197  -20.5870  -52.9684 C.ar      23 UNK        -0.0193 
     12 C12         4.3966  -20.7967  -52.0992 C.ar      23 UNK        -0.1150 
     13 C13         4.8309  -19.7748  -51.2471 C.ar      23 UNK        -0.0193 
     14 C14         4.1658  -18.5449  -51.2564 C.ar      23 UNK        -0.1150 
     15 C15         6.0538  -19.9720  -50.3584 C.3       23 UNK        -0.0205 
     16 S16         5.6893  -20.8697  -48.8152 S.3       23 UNK        -0.2404 
     17 C17         4.5134  -19.7495  -47.9811 C.3       23 UNK        -0.0398 
     18 CA          3.0996  -20.3728  -47.9464 C.3       11 UNK         0.1400 
     19 N           3.0594  -21.5526  -47.0763 N.am      11 UNK        -0.5000 
     20 C           2.1632  -22.5432  -47.1601 C.2       10 UNK         0.5000 
     21 O           1.2732  -22.5864  -48.0053 O.2       10 UNK        -0.5000 
     22 CA          2.2389  -23.6330  -46.0720 C.3       10 UNK         0.1400 
     23 CB          3.1740  -24.7685  -46.5130 C.3       10 UNK        -0.1800 
     24 N           2.6798  -23.1170  -44.7711 N.am      10 UNK        -0.5000 
     25 C           2.0346  -22.1783  -44.0662 C.2       9 UNK         0.5000 
     26 O           0.9748  -21.6609  -44.4271 O.2       9 UNK        -0.5000 
     27 CA          2.7434  -21.6676  -42.8081 C.3       9 UNK         0.1400 
     28 CB          3.8436  -20.6619  -43.2070 C.3       9 UNK        -0.1800 
     29 N           1.7758  -21.0245  -41.9232 N.am      9 UNK        -0.5000 
     30 C           2.0072  -20.7040  -40.6445 C.2       8 UNK         0.5000 
     31 O           3.0514  -20.9788  -40.0508 O.2       8 UNK        -0.5000 
     32 CA          0.9050  -19.9337  -39.8971 C.3       8 UNK         0.1400 
     33 CB          1.0919  -18.4215  -40.0971 C.3       8 UNK        -0.1800 
     34 N          -0.4561  -20.3156  -40.2811 N.am      8 UNK        -0.5000 
     35 C          -1.0357  -21.4758  -39.9350 C.2       7 UNK         0.5000 
     36 O          -0.4395  -22.3757  -39.3413 O.2       7 UNK        -0.5000 
     37 CA         -2.5350  -21.6674  -40.2517 C.3       7 UNK         0.1400 
     38 CB         -3.3680  -21.5772  -38.9629 C.3       7 UNK        -0.1800 
     39 N          -3.0671  -20.7020  -41.2122 N.am      7 UNK        -0.5000 
     40 C          -2.8704  -20.7600  -42.5343 C.2       6 UNK         0.5000 
     41 O          -2.2555  -21.6689  -43.0881 O.2       6 UNK        -0.5000 
     42 CA         -3.4382  -19.6027  -43.3825 C.3       6 UNK         0.1400 
     43 CB         -4.7769  -20.0084  -44.0177 C.3       6 UNK        -0.1800 
     44 N          -3.6082  -18.3220  -42.6820 N.am      6 UNK        -0.5000 
     45 C          -2.6376  -17.6530  -42.0457 C.2       5 UNK         0.5000 
     46 O          -1.5129  -18.1122  -41.8456 O.2       5 UNK        -0.5000 
     47 CA         -2.9856  -16.2529  -41.5100 C.3       5 UNK         0.1400 
     48 CB         -3.4798  -16.3478  -40.0586 C.3       5 UNK        -0.1800 
     49 N          -1.8224  -15.3641  -41.5599 N.am      5 UNK        -0.5000 
     50 C          -1.2467  -14.9378  -42.6909 C.2       4 UNK         0.5000 
     51 O          -1.7049  -15.1525  -43.8167 O.2       4 UNK        -0.5000 
     52 CA          0.0657  -14.1548  -42.5392 C.3       4 UNK         0.1400 
     53 CB          1.2254  -15.0833  -42.1348 C.3       4 UNK        -0.1800 
     54 N           0.3754  -13.5189  -43.8139 N.am      4 UNK        -0.5000 
     55 C           1.0688  -12.3899  -43.9873 C.2       3 UNK         0.5000 
     56 O           1.5694  -11.7429  -43.0652 O.2       3 UNK        -0.5000 
     57 CA          1.2217  -11.9294  -45.4500 C.3       3 UNK         0.1400 
     58 CB          2.0898  -10.6639  -45.6184 C.3       3 UNK        -0.1800 
     59 N           1.6800  -13.0240  -46.3128 N.am      3 UNK        -0.5000 
     60 C           2.8747  -13.6383  -46.2956 C.2       2 UNK         0.5000 
     61 O           3.8043  -13.3000  -45.5622 O.2       2 UNK        -0.5000 
     62 CA          3.0795  -14.8474  -47.2384 C.3       2 UNK         0.1400 
     63 CB          3.3700  -16.1189  -46.4240 C.3       2 UNK        -0.1800 
     64 N           1.9459  -15.1059  -48.1308 N.am      2 UNK        -0.5000 
     65 C           1.6254  -14.3762  -49.2089 C.2       1 UNK         0.5000 
     66 O           2.3448  -13.4841  -49.6596 O.2       1 UNK        -0.5000 
     67 C           2.0245  -19.3250  -47.5812 C.2       11 UNK         0.5000 
     68 O           1.7975  -18.4091  -48.3684 O.2       11 UNK        -0.5000 
     69 N           1.3656  -19.4629  -46.4219 N.am      12 UNK        -0.5000 
     70 CA          0.1592  -18.7064  -46.0918 C.3       12 UNK         0.1400 
     71 CB          0.1188  -18.4095  -44.5878 C.3       12 UNK        -0.1800 
     72 C          -1.0817  -19.4876  -46.5563 C.2       12 UNK         0.5000 
     73 O          -1.9682  -18.9047  -47.1803 O.2       12 UNK        -0.5000 
     74 N          -1.0949  -20.8081  -46.3072 N.am      13 UNK        -0.5000 
     75 CA         -2.1258  -21.7473  -46.7686 C.3       13 UNK         0.1400 
     76 CB         -1.8097  -23.1575  -46.2497 C.3       13 UNK        -0.1800 
     77 C          -2.2962  -21.7734  -48.3016 C.2       13 UNK         0.5000 
     78 O          -3.3997  -22.0156  -48.7878 O.2       13 UNK        -0.5000 
     79 N          -1.2084  -21.4641  -49.0191 N.am      14 UNK        -0.5000 
     80 CA         -1.0856  -21.2754  -50.4641 C.3       14 UNK         0.1400 
     81 CB          0.2982  -20.6814  -50.7425 C.3       14 UNK        -0.1800 
     82 C          -2.1552  -20.3831  -51.1225 C.2       14 UNK         0.5000 
     83 O          -2.4364  -20.5805  -52.3044 O.2       14 UNK        -0.5000 
     84 N          -2.7182  -19.4318  -50.3655 N.am      15 UNK        -0.5000 
     85 CA         -3.7743  -18.5274  -50.8140 C.3       15 UNK         0.1400 
     86 CB         -3.1746  -17.1387  -51.0942 C.3       15 UNK        -0.1800 
     87 C          -4.9406  -18.4837  -49.8092 C.2       15 UNK         0.5000 
     88 O          -5.6126  -17.4544  -49.7082 O.2       15 UNK        -0.5000 
     89 N          -5.1769  -19.5861  -49.0793 N.am      16 UNK        -0.5000 
     90 CA         -6.2928  -19.7425  -48.1412 C.3       16 UNK         0.1400 
     91 CB         -6.2115  -21.1143  -47.4566 C.3       16 UNK        -0.1800 
     92 C          -7.6499  -19.5727  -48.8476 C.2       16 UNK         0.5000 
     93 O          -7.9331  -20.2985  -49.8020 O.2       16 UNK        -0.5000 
     94 N          -8.4311  -18.5763  -48.4054 N.am      17 UNK        -0.5000 
     95 CA         -9.7033  -18.1321  -48.9953 C.3       17 UNK         0.1400 
     96 CB        -10.7979  -19.1996  -48.7860 C.3       17 UNK        -0.1800 
     97 C          -9.5775  -17.6912  -50.4739 C.2       17 UNK         0.5000 
     98 O         -10.5509  -17.7747  -51.2241 O.2       17 UNK        -0.5000 
     99 N          -8.3698  -17.2518  -50.8635 N.am      18 UNK        -0.5000 
    100 CA        -7.9296  -16.8861  -52.2133 C.3       18 UNK         0.1400 
    101 CB        -8.7421  -15.6958  -52.7650 C.3       18 UNK        -0.1800 
    102 C         -7.8617  -18.0685  -53.2068 C.2       18 UNK         0.5000 
    103 O         -7.6858  -17.8320  -54.4034 O.2       18 UNK        -0.5000 
    104 N         -7.9684  -19.3141  -52.7206 N.am      19 UNK        -0.5000 
    105 CA        -7.7834  -20.5223  -53.5211 C.3       19 UNK         0.1400 
    106 CB        -8.5432  -21.6900  -52.8734 C.3       19 UNK        -0.1800 
    107 C         -6.2837  -20.8367  -53.6263 C.2       19 UNK         0.5000 
    108 O         -5.5964  -20.8446  -52.6040 O.2       19 UNK        -0.5000 
    109 N         -5.8054  -21.0891  -54.8504 N.am      20 UNK        -0.5000 
    110 CA        -4.4074  -21.3843  -55.1659 C.3       20 UNK         0.1400 
    111 CB        -4.1674  -21.1037  -56.6600 C.3       20 UNK        -0.1800 
    112 C         -4.0361  -22.8282  -54.7748 C.2       20 UNK         0.5000 
    113 O         -3.9470  -23.7049  -55.6378 O.2       20 UNK        -0.5000 
    114 N         -3.8383  -23.0564  -53.4713 N.am      21 UNK        -0.5000 
    115 CA        -3.5542  -24.3636  -52.8716 C.3       21 UNK         0.1400 
    116 CB        -3.6770  -24.2600  -51.3450 C.3       21 UNK        -0.1800 
    117 C         -2.2004  -24.9787  -53.2865 C.2       21 UNK         0.5000 
    118 O         -2.0181  -26.1856  -53.1202 O.2       21 UNK        -0.5000 
    119 N         -1.2957  -24.1661  -53.8517 N.am      22 UNK        -0.5000 
    120 CA        -0.0835  -24.6314  -54.5497 C.3       22 UNK         0.1400 
    121 C         -0.3681  -25.3801  -55.8888 C.2       22 UNK         0.5000 
    122 N         -1.5599  -25.2965  -56.4717 N.am      22 UNK        -0.7600 
    123 O          0.5147  -26.0565  -56.4094 O.2       22 UNK        -0.5000 
    124 C124        0.9333  -23.4863  -54.7953 C.3       23 UNK        -0.0398 
    125 S125        1.5282  -22.6947  -53.2658 S.3       23 UNK        -0.2404 
    126 C126        2.8787  -21.6751  -53.9384 C.3       23 UNK        -0.0205 
    127 H127       -2.7304  -16.4358  -47.8133 H         1 UNK         0.0600 
    128 H128       -3.0852  -15.0689  -46.7605 H         1 UNK         0.0600 
    129 H129       -1.8312  -16.2227  -46.3057 H         1 UNK         0.0600 
    130 H130       -0.9516  -16.2740  -49.2925 H         1 UNK         0.3000 
    131 H131       -0.1832  -13.6338  -49.9989 H         1 UNK         0.0600 
    132 H132       -0.6360  -15.1771  -51.7552 H         1 UNK         0.0800 
    133 H133        1.0219  -14.6931  -51.8936 H         1 UNK         0.0800 
    134 H134        2.2318  -16.6562  -53.1652 H         1 UNK         0.0800 
    135 H135        3.0214  -16.2151  -51.6680 H         1 UNK         0.0800 
    136 H136        1.8429  -19.1764  -53.6443 H         1 UNK         0.1150 
    137 H137        4.9106  -21.7476  -52.1000 H         1 UNK         0.1150 
    138 H138        4.4989  -17.7481  -50.6066 H         1 UNK         0.1150 
    139 H139        6.8134  -20.5262  -50.9116 H         1 UNK         0.0800 
    140 H140        6.5062  -19.0097  -50.1135 H         1 UNK         0.0800 
    141 H141        4.5117  -18.7865  -48.4916 H         1 UNK         0.0800 
    142 H142        4.8725  -19.5488  -46.9704 H         1 UNK         0.0800 
    143 H143        2.8590  -20.6938  -48.9624 H         1 UNK         0.0600 
    144 H144        3.7702  -21.6080  -46.3626 H         1 UNK         0.3000 
    145 H145        1.2375  -24.0467  -45.9429 H         1 UNK         0.0600 
    146 H146        3.1764  -25.5825  -45.7879 H         1 UNK         0.0600 
    147 H147        2.8547  -25.1871  -47.4685 H         1 UNK         0.0600 
    148 H148        4.2011  -24.4216  -46.6338 H         1 UNK         0.0600 
    149 H149        3.5504  -23.4856  -44.4152 H         1 UNK         0.3000 
    150 H150        3.1878  -22.5207  -42.2914 H         1 UNK         0.0600 
    151 H151        4.5646  -21.1119  -43.8903 H         1 UNK         0.0600 
    152 H152        4.4050  -20.3152  -42.3396 H         1 UNK         0.0600 
    153 H153        3.4234  -19.7852  -43.7023 H         1 UNK         0.0600 
    154 H154        0.8792  -20.8176  -42.3455 H         1 UNK         0.3000 
    155 H155        1.0217  -20.1437  -38.8317 H         1 UNK         0.0600 
    156 H156        1.0429  -18.1478  -41.1518 H         1 UNK         0.0600 
    157 H157        0.3284  -17.8524  -39.5664 H         1 UNK         0.0600 
    158 H158        2.0623  -18.0952  -39.7214 H         1 UNK         0.0600 
    159 H159       -0.9872  -19.6213  -40.8003 H         1 UNK         0.3000 
    160 H160       -2.6547  -22.6721  -40.6627 H         1 UNK         0.0600 
    161 H161       -3.2921  -20.5908  -38.5035 H         1 UNK         0.0600 
    162 H162       -3.0326  -22.3088  -38.2266 H         1 UNK         0.0600 
    163 H163       -4.4216  -21.7771  -39.1590 H         1 UNK         0.0600 
    164 H164       -3.5739  -19.9147  -40.8360 H         1 UNK         0.3000 
    165 H165       -2.7248  -19.4303  -44.1882 H         1 UNK         0.0600 
    166 H166       -5.0942  -19.2831  -44.7672 H         1 UNK         0.0600 
    167 H167       -4.6985  -20.9752  -44.5159 H         1 UNK         0.0600 
    168 H168       -5.5667  -20.0912  -43.2703 H         1 UNK         0.0600 
    169 H169       -4.5139  -17.8854  -42.7750 H         1 UNK         0.3000 
    170 H170       -3.7766  -15.8221  -42.1275 H         1 UNK         0.0600 
    171 H171       -2.7196  -16.7729  -39.4016 H         1 UNK         0.0600 
    172 H172       -3.7501  -15.3663  -39.6686 H         1 UNK         0.0600 
    173 H173       -4.3661  -16.9796  -39.9867 H         1 UNK         0.0600 
    174 H174       -1.3676  -15.1760  -40.6789 H         1 UNK         0.3000 
    175 H175       -0.0804  -13.3898  -41.7738 H         1 UNK         0.0600 
    176 H176        2.1609  -14.5314  -42.0424 H         1 UNK         0.0600 
    177 H177        1.3771  -15.8769  -42.8673 H         1 UNK         0.0600 
    178 H178        1.0334  -15.5567  -41.1716 H         1 UNK         0.0600 
    179 H179       -0.0688  -13.9598  -44.6104 H         1 UNK         0.3000 
    180 H180        0.2176  -11.6764  -45.7937 H         1 UNK         0.0600 
    181 H181        3.0983  -10.8009  -45.2280 H         1 UNK         0.0600 
    182 H182        1.6495   -9.8202  -45.0860 H         1 UNK         0.0600 
    183 H183        2.1711  -10.3790  -46.6673 H         1 UNK         0.0600 
    184 H184        0.9617  -13.3964  -46.9258 H         1 UNK         0.3000 
    185 H185        3.9581  -14.6293  -47.8487 H         1 UNK         0.0600 
    186 H186        4.1794  -15.9601  -45.7102 H         1 UNK         0.0600 
    187 H187        2.4957  -16.4477  -45.8613 H         1 UNK         0.0600 
    188 H188        3.6818  -16.9320  -47.0765 H         1 UNK         0.0600 
    189 H189        1.3283  -15.8621  -47.8725 H         1 UNK         0.3000 
    190 H190        1.5757  -20.2514  -45.8236 H         1 UNK         0.3000 
    191 H191        0.1670  -17.7456  -46.6102 H         1 UNK         0.0600 
    192 H192        1.0461  -17.9495  -44.2473 H         1 UNK         0.0600 
    193 H193       -0.6882  -17.7120  -44.3657 H         1 UNK         0.0600 
    194 H194       -0.0497  -19.3047  -43.9898 H         1 UNK         0.0600 
    195 H195       -0.3564  -21.2015  -45.7310 H         1 UNK         0.3000 
    196 H196       -3.0694  -21.4238  -46.3297 H         1 UNK         0.0600 
    197 H197       -2.6400  -23.8363  -46.4475 H         1 UNK         0.0600 
    198 H198       -1.6343  -23.1617  -45.1745 H         1 UNK         0.0600 
    199 H199       -0.9278  -23.5745  -46.7342 H         1 UNK         0.0600 
    200 H200       -0.3366  -21.4041  -48.5063 H         1 UNK         0.3000 
    201 H201       -1.1306  -22.2565  -50.9365 H         1 UNK         0.0600 
    202 H202        1.0932  -21.3824  -50.4901 H         1 UNK         0.0600 
    203 H203        0.4082  -20.4284  -51.7964 H         1 UNK         0.0600 
    204 H204        0.4597  -19.7659  -50.1762 H         1 UNK         0.0600 
    205 H205       -2.4432  -19.3533  -49.3932 H         1 UNK         0.3000 
    206 H206       -4.2042  -18.8863  -51.7490 H         1 UNK         0.0600 
    207 H207       -2.3510  -17.2019  -51.8054 H         1 UNK         0.0600 
    208 H208       -3.9197  -16.4673  -51.5224 H         1 UNK         0.0600 
    209 H209       -2.8008  -16.6756  -50.1836 H         1 UNK         0.0600 
    210 H210       -4.5999  -20.4071  -49.2307 H         1 UNK         0.3000 
    211 H211       -6.1898  -18.9732  -47.3732 H         1 UNK         0.0600 
    212 H212       -6.2404  -21.9281  -48.1826 H         1 UNK         0.0600 
    213 H213       -7.0432  -21.2581  -46.7658 H         1 UNK         0.0600 
    214 H214       -5.2938  -21.2127  -46.8811 H         1 UNK         0.0600 
    215 H215       -8.0975  -18.0153  -47.6336 H         1 UNK         0.3000 
    216 H216      -10.0021  -17.2409  -48.4417 H         1 UNK         0.0600 
    217 H217      -11.7768  -18.8213  -49.0827 H         1 UNK         0.0600 
    218 H218      -10.8694  -19.4911  -47.7381 H         1 UNK         0.0600 
    219 H219      -10.6044  -20.0986  -49.3720 H         1 UNK         0.0600 
    220 H220       -7.6249  -17.2531  -50.1737 H         1 UNK         0.3000 
    221 H221       -6.8996  -16.5457  -52.0981 H         1 UNK         0.0600 
    222 H222       -9.7688  -15.9769  -52.9996 H         1 UNK         0.0600 
    223 H223       -8.7727  -14.8734  -52.0504 H         1 UNK         0.0600 
    224 H224       -8.2954  -15.3092  -53.6818 H         1 UNK         0.0600 
    225 H225       -8.0467  -19.4547  -51.7191 H         1 UNK         0.3000 
    226 H226       -8.1961  -20.3630  -54.5197 H         1 UNK         0.0600 
    227 H227       -9.6006  -21.4547  -52.7521 H         1 UNK         0.0600 
    228 H228       -8.4758  -22.5865  -53.4908 H         1 UNK         0.0600 
    229 H229       -8.1408  -21.9403  -51.8912 H         1 UNK         0.0600 
    230 H230       -6.4441  -21.0887  -55.6325 H         1 UNK         0.3000 
    231 H231       -3.7671  -20.7064  -54.5984 H         1 UNK         0.0600 
    232 H232       -4.8059  -21.7179  -57.2963 H         1 UNK         0.0600 
    233 H233       -3.1323  -21.3117  -56.9342 H         1 UNK         0.0600 
    234 H234       -4.3618  -20.0582  -56.9000 H         1 UNK         0.0600 
    235 H235       -3.9441  -22.2701  -52.8373 H         1 UNK         0.3000 
    236 H236       -4.3289  -25.0503  -53.2187 H         1 UNK         0.0600 
    237 H237       -4.6518  -23.8705  -51.0500 H         1 UNK         0.0600 
    238 H238       -3.5613  -25.2374  -50.8754 H         1 UNK         0.0600 
    239 H239       -2.9171  -23.6058  -50.9249 H         1 UNK         0.0600 
    240 H240       -1.5136  -23.1840  -53.9299 H         1 UNK         0.3000 
    241 H241        0.4018  -25.3612  -53.8987 H         1 UNK         0.0600 
    242 H242       -1.7187  -25.7925  -57.3343 H         1 UNK         0.3800 
    243 H243       -2.3124  -24.7447  -56.0724 H         1 UNK         0.3800 
    244 H244        1.8076  -23.8647  -55.3288 H         1 UNK         0.0800 
    245 H245        0.4927  -22.7190  -55.4343 H         1 UNK         0.0800 
    246 H246        3.7220  -22.3190  -54.1928 H         1 UNK         0.0800 
    247 H247        2.5545  -21.2137  -54.8726 H         1 UNK         0.0800 
@<TRIPOS>BOND
     1    1    2 1    
     2    1  127 1    
     3    1  128 1    
     4    1  129 1    
     5    2    3 2    
     6    2    4 am   BACKBONE|DICT|INTERRES
     7    4    5 1    
     8    4  130 1    
     9    5    6 1    
    10    5   65 1    
    11    5  131 1    
    12    6    7 1    
    13    6  132 1    
    14    6  133 1    
    15    7    8 1    
    16    8    9 1    
    17    8  134 1    
    18    8  135 1    
    19    9   10 ar   
    20    9   14 ar   
    21   10   11 ar   
    22   10  136 1    
    23   11   12 ar   
    24   11  126 1    
    25   12   13 ar   
    26   12  137 1    
    27   13   14 ar   
    28   13   15 1    
    29   14  138 1    
    30   15   16 1    
    31   15  139 1    
    32   15  140 1    
    33   16   17 1    
    34   17   18 1    
    35   17  141 1    
    36   17  142 1    
    37   18   19 1    
    38   18   67 1    
    39   18  143 1    
    40   19   20 am   BACKBONE|DICT|INTERRES
    41   19  144 1    
    42   20   21 2    
    43   20   22 1    
    44   22   23 1    
    45   22   24 1    
    46   22  145 1    
    47   23  146 1    
    48   23  147 1    
    49   23  148 1    
    50   24   25 am   BACKBONE|DICT|INTERRES
    51   24  149 1    
    52   25   26 2    
    53   25   27 1    
    54   27   28 1    
    55   27   29 1    
    56   27  150 1    
    57   28  151 1    
    58   28  152 1    
    59   28  153 1    
    60   29   30 am   BACKBONE|DICT|INTERRES
    61   29  154 1    
    62   30   31 2    
    63   30   32 1    
    64   32   33 1    
    65   32   34 1    
    66   32  155 1    
    67   33  156 1    
    68   33  157 1    
    69   33  158 1    
    70   34   35 am   BACKBONE|DICT|INTERRES
    71   34  159 1    
    72   35   36 2    
    73   35   37 1    
    74   37   38 1    
    75   37   39 1    
    76   37  160 1    
    77   38  161 1    
    78   38  162 1    
    79   38  163 1    
    80   39   40 am   BACKBONE|DICT|INTERRES
    81   39  164 1    
    82   40   41 2    
    83   40   42 1    
    84   42   43 1    
    85   42   44 1    
    86   42  165 1    
    87   43  166 1    
    88   43  167 1    
    89   43  168 1    
    90   44   45 am   BACKBONE|DICT|INTERRES
    91   44  169 1    
    92   45   46 2    
    93   45   47 1    
    94   47   48 1    
    95   47   49 1    
    96   47  170 1    
    97   48  171 1    
    98   48  172 1    
    99   48  173 1    
   100   49   50 am   BACKBONE|DICT|INTERRES
   101   49  174 1    
   102   50   51 2    
   103   50   52 1    
   104   52   53 1    
   105   52   54 1    
   106   52  175 1    
   107   53  176 1    
   108   53  177 1    
   109   53  178 1    
   110   54   55 am   BACKBONE|DICT|INTERRES
   111   54  179 1    
   112   55   56 2    
   113   55   57 1    
   114   57   58 1    
   115   57   59 1    
   116   57  180 1    
   117   58  181 1    
   118   58  182 1    
   119   58  183 1    
   120   59   60 am   BACKBONE|DICT|INTERRES
   121   59  184 1    
   122   60   61 2    
   123   60   62 1    
   124   62   63 1    
   125   62   64 1    
   126   62  185 1    
   127   63  186 1    
   128   63  187 1    
   129   63  188 1    
   130   64   65 am   BACKBONE|DICT|INTERRES
   131   64  189 1    
   132   65   66 2    
   133   67   68 2    
   134   67   69 am   BACKBONE|DICT|INTERRES
   135   69   70 1    
   136   69  190 1    
   137   70   71 1    
   138   70   72 1    
   139   70  191 1    
   140   71  192 1    
   141   71  193 1    
   142   71  194 1    
   143   72   73 2    
   144   72   74 am   BACKBONE|DICT|INTERRES
   145   74   75 1    
   146   74  195 1    
   147   75   76 1    
   148   75   77 1    
   149   75  196 1    
   150   76  197 1    
   151   76  198 1    
   152   76  199 1    
   153   77   78 2    
   154   77   79 am   BACKBONE|DICT|INTERRES
   155   79   80 1    
   156   79  200 1    
   157   80   81 1    
   158   80   82 1    
   159   80  201 1    
   160   81  202 1    
   161   81  203 1    
   162   81  204 1    
   163   82   83 2    
   164   82   84 am   BACKBONE|DICT|INTERRES
   165   84   85 1    
   166   84  205 1    
   167   85   86 1    
   168   85   87 1    
   169   85  206 1    
   170   86  207 1    
   171   86  208 1    
   172   86  209 1    
   173   87   88 2    
   174   87   89 am   BACKBONE|DICT|INTERRES
   175   89   90 1    
   176   89  210 1    
   177   90   91 1    
   178   90   92 1    
   179   90  211 1    
   180   91  212 1    
   181   91  213 1    
   182   91  214 1    
   183   92   93 2    
   184   92   94 am   BACKBONE|DICT|INTERRES
   185   94   95 1    
   186   94  215 1    
   187   95   96 1    
   188   95   97 1    
   189   95  216 1    
   190   96  217 1    
   191   96  218 1    
   192   96  219 1    
   193   97   98 2    
   194   97   99 am   BACKBONE|DICT|INTERRES
   195   99  100 1    
   196   99  220 1    
   197  100  101 1    
   198  100  102 1    
   199  100  221 1    
   200  101  222 1    
   201  101  223 1    
   202  101  224 1    
   203  102  103 2    
   204  102  104 am   BACKBONE|DICT|INTERRES
   205  104  105 1    
   206  104  225 1    
   207  105  106 1    
   208  105  107 1    
   209  105  226 1    
   210  106  227 1    
   211  106  228 1    
   212  106  229 1    
   213  107  108 2    
   214  107  109 am   BACKBONE|DICT|INTERRES
   215  109  110 1    
   216  109  230 1    
   217  110  111 1    
   218  110  112 1    
   219  110  231 1    
   220  111  232 1    
   221  111  233 1    
   222  111  234 1    
   223  112  113 2    
   224  112  114 am   BACKBONE|DICT|INTERRES
   225  114  115 1    
   226  114  235 1    
   227  115  116 1    
   228  115  117 1    
   229  115  236 1    
   230  116  237 1    
   231  116  238 1    
   232  116  239 1    
   233  117  118 2    
   234  117  119 am   BACKBONE|DICT|INTERRES
   235  119  120 1    
   236  119  240 1    
   237  120  121 1    
   238  120  124 1    
   239  120  241 1    
   240  121  122 am   BACKBONE|DICT|INTERRES
   241  121  123 2    
   242  122  242 1    
   243  122  243 1    
   244  124  125 1    
   245  124  244 1    
   246  124  245 1    
   247  125  126 1    
   248  126  246 1    
   249  126  247 1    
@<TRIPOS>SUBSTRUCTURE
     1 UNK         1 GROUP             0       ****    0 ROOT    
