@<TRIPOS>MOLECULE
3R540
247   249    1
SMALL
USER_CHARGES


@<TRIPOS>ATOM
      1 CA          5.5946  -18.0907  -46.7045 C.3       0 UNK        -0.1800 
      2 C           4.6935  -16.9711  -46.2087 C.2       0 UNK         0.5000 
      3 O           4.2070  -17.0278  -45.0801 O.2       0 UNK        -0.5000 
      4 N           4.4917  -15.9358  -47.0331 N.am      1 UNK        -0.5000 
      5 CA          3.7156  -14.7285  -46.7193 C.3       1 UNK         0.1400 
      6 C6          3.2146  -14.0125  -48.0013 C.3       23 UNK        -0.0398 
      7 S7          2.0448  -15.0421  -48.9461 S.3       23 UNK        -0.2404 
      8 C8          3.0672  -15.6133  -50.3369 C.3       23 UNK        -0.0205 
      9 C9          2.5674  -16.9613  -50.8247 C.ar      23 UNK        -0.0193 
     10 C10         1.5407  -17.0397  -51.7693 C.ar      23 UNK        -0.1150 
     11 C11         1.0397  -18.2824  -52.1675 C.ar      23 UNK        -0.0193 
     12 C12         1.5719  -19.4496  -51.6116 C.ar      23 UNK        -0.1150 
     13 C13         2.6090  -19.3852  -50.6758 C.ar      23 UNK        -0.0193 
     14 C14         3.1115  -18.1354  -50.2994 C.ar      23 UNK        -0.1150 
     15 C15         3.1802  -20.6760  -50.0970 C.3       23 UNK        -0.0205 
     16 S16         3.5785  -20.6107  -48.3141 S.3       23 UNK        -0.2404 
     17 C17         2.0420  -19.9926  -47.5423 C.3       23 UNK        -0.0398 
     18 CA          1.0580  -21.1311  -47.1803 C.3       11 UNK         0.1400 
     19 N           0.3158  -20.8552  -45.9454 N.am      11 UNK        -0.5000 
     20 C          -0.4580  -21.7495  -45.3129 C.2       10 UNK         0.5000 
     21 O          -0.6025  -22.9125  -45.6855 O.2       10 UNK        -0.5000 
     22 CA         -1.2544  -21.2506  -44.0958 C.3       10 UNK         0.1400 
     23 CB         -0.3633  -21.1655  -42.8479 C.3       10 UNK        -0.1800 
     24 N          -1.8968  -19.9613  -44.3481 N.am      10 UNK        -0.5000 
     25 C          -2.8436  -19.7644  -45.2769 C.2       9 UNK         0.5000 
     26 O          -3.3194  -20.6668  -45.9664 O.2       9 UNK        -0.5000 
     27 CA         -3.3116  -18.3160  -45.5036 C.3       9 UNK         0.1400 
     28 CB         -4.3901  -17.9320  -44.4804 C.3       9 UNK        -0.1800 
     29 N          -2.2185  -17.3425  -45.4608 N.am      9 UNK        -0.5000 
     30 C          -1.1801  -17.3152  -46.3097 C.2       8 UNK         0.5000 
     31 O          -1.0339  -18.1104  -47.2367 O.2       8 UNK        -0.5000 
     32 CA         -0.0901  -16.2604  -46.0428 C.3       8 UNK         0.1400 
     33 CB         -0.5500  -14.8608  -46.4778 C.3       8 UNK        -0.1800 
     34 N           0.3235  -16.2257  -44.6411 N.am      8 UNK        -0.5000 
     35 C           0.8728  -17.2606  -43.9884 C.2       7 UNK         0.5000 
     36 O           1.1297  -18.3464  -44.5104 O.2       7 UNK        -0.5000 
     37 CA          1.0971  -17.0674  -42.4791 C.3       7 UNK         0.1400 
     38 CB          2.3660  -16.2452  -42.2013 C.3       7 UNK        -0.1800 
     39 N          -0.0568  -16.4281  -41.8437 N.am      7 UNK        -0.5000 
     40 C          -1.2543  -17.0142  -41.6935 C.2       6 UNK         0.5000 
     41 O          -1.4996  -18.1672  -42.0447 O.2       6 UNK        -0.5000 
     42 CA         -2.3784  -16.1562  -41.0849 C.3       6 UNK         0.1400 
     43 CB         -2.3033  -16.1755  -39.5510 C.3       6 UNK        -0.1800 
     44 N          -2.3493  -14.7709  -41.5538 N.am      6 UNK        -0.5000 
     45 C          -2.5601  -14.3899  -42.8221 C.2       5 UNK         0.5000 
     46 O          -2.8466  -15.1674  -43.7299 O.2       5 UNK        -0.5000 
     47 CA         -2.3693  -12.8954  -43.1381 C.3       5 UNK         0.1400 
     48 CB         -3.6919  -12.1341  -42.9680 C.3       5 UNK        -0.1800 
     49 N          -1.3368  -12.2705  -42.3084 N.am      5 UNK        -0.5000 
     50 C          -0.0377  -12.5921  -42.3490 C.2       4 UNK         0.5000 
     51 O           0.4366  -13.4422  -43.1083 O.2       4 UNK        -0.5000 
     52 CA          0.8611  -11.9005  -41.3114 C.3       4 UNK         0.1400 
     53 CB          1.1332  -12.8466  -40.1315 C.3       4 UNK        -0.1800 
     54 N           2.1346  -11.4872  -41.8885 N.am      4 UNK        -0.5000 
     55 C           2.3038  -10.5012  -42.7747 C.2       3 UNK         0.5000 
     56 O           1.3851   -9.7887  -43.1821 O.2       3 UNK        -0.5000 
     57 CA          3.7343  -10.2588  -43.2969 C.3       3 UNK         0.1400 
     58 CB          4.5349   -9.3692  -42.3270 C.3       3 UNK        -0.1800 
     59 N           4.4810  -11.4753  -43.6458 N.am      3 UNK        -0.5000 
     60 C           4.9247  -12.4686  -42.8641 C.2       2 UNK         0.5000 
     61 O           4.7373  -12.5190  -41.6469 O.2       2 UNK        -0.5000 
     62 CA          5.6777  -13.6086  -43.5821 C.3       2 UNK         0.1400 
     63 CB          6.1942  -14.6833  -42.6085 C.3       2 UNK        -0.1800 
     64 N           4.8591  -14.2674  -44.6007 N.am      2 UNK        -0.5000 
     65 C           4.5343  -13.7873  -45.8071 C.2       1 UNK         0.5000 
     66 O           4.8803  -12.6732  -46.2062 O.2       1 UNK        -0.5000 
     67 C           0.1158  -21.4564  -48.3593 C.2       11 UNK         0.5000 
     68 O           0.3595  -22.4162  -49.0902 O.2       11 UNK        -0.5000 
     69 N          -0.9665  -20.6779  -48.4913 N.am      12 UNK        -0.5000 
     70 CA         -2.0182  -20.8559  -49.4911 C.3       12 UNK         0.1400 
     71 CB         -3.0166  -19.6966  -49.3699 C.3       12 UNK        -0.1800 
     72 C          -2.7370  -22.2144  -49.3803 C.2       12 UNK         0.5000 
     73 O          -3.0346  -22.8240  -50.4054 O.2       12 UNK        -0.5000 
     74 N          -2.9765  -22.6788  -48.1461 N.am      13 UNK        -0.5000 
     75 CA         -3.5182  -24.0068  -47.8576 C.3       13 UNK         0.1400 
     76 CB         -4.0320  -24.0428  -46.4108 C.3       13 UNK        -0.1800 
     77 C          -2.4866  -25.1255  -48.1046 C.2       13 UNK         0.5000 
     78 O          -2.8272  -26.1491  -48.7006 O.2       13 UNK        -0.5000 
     79 N          -1.2340  -24.9024  -47.6761 N.am      14 UNK        -0.5000 
     80 CA         -0.1023  -25.8281  -47.8204 C.3       14 UNK         0.1400 
     81 CB          1.0987  -25.3041  -47.0189 C.3       14 UNK        -0.1800 
     82 C           0.3090  -26.1178  -49.2783 C.2       14 UNK         0.5000 
     83 O           1.0038  -27.1048  -49.5226 O.2       14 UNK        -0.5000 
     84 N          -0.1576  -25.2908  -50.2236 N.am      15 UNK        -0.5000 
     85 CA         -0.0501  -25.4962  -51.6689 C.3       15 UNK         0.1400 
     86 CB         -0.4864  -24.2063  -52.3822 C.3       15 UNK        -0.1800 
     87 C          -0.8564  -26.7077  -52.1940 C.2       15 UNK         0.5000 
     88 O          -0.6716  -27.0817  -53.3528 O.2       15 UNK        -0.5000 
     89 N          -1.7203  -27.2956  -51.3480 N.am      16 UNK        -0.5000 
     90 CA         -2.5813  -28.4550  -51.6089 C.3       16 UNK         0.1400 
     91 CB         -1.7510  -29.7151  -51.9329 C.3       16 UNK        -0.1800 
     92 C          -3.6632  -28.1403  -52.6591 C.2       16 UNK         0.5000 
     93 O          -3.9006  -28.9222  -53.5820 O.2       16 UNK        -0.5000 
     94 N          -4.2963  -26.9790  -52.4834 N.am      17 UNK        -0.5000 
     95 CA         -5.3707  -26.4362  -53.3015 C.3       17 UNK         0.1400 
     96 CB         -4.7678  -25.7081  -54.5177 C.3       17 UNK        -0.1800 
     97 C          -6.2115  -25.4998  -52.4187 C.2       17 UNK         0.5000 
     98 O          -5.9024  -25.3302  -51.2347 O.2       17 UNK        -0.5000 
     99 N          -7.2638  -24.9102  -52.9997 N.am      18 UNK        -0.5000 
    100 CA        -8.1119  -23.9131  -52.3474 C.3       18 UNK         0.1400 
    101 CB        -9.2931  -23.5684  -53.2679 C.3       18 UNK        -0.1800 
    102 C         -7.3085  -22.6467  -52.0062 C.2       18 UNK         0.5000 
    103 O         -6.7049  -22.0529  -52.9040 O.2       18 UNK        -0.5000 
    104 N         -7.3228  -22.2473  -50.7281 N.am      19 UNK        -0.5000 
    105 CA        -6.5640  -21.1027  -50.2176 C.3       19 UNK         0.1400 
    106 CB        -6.6125  -21.0919  -48.6826 C.3       19 UNK        -0.1800 
    107 C         -7.0267  -19.7526  -50.7983 C.2       19 UNK         0.5000 
    108 O         -6.2094  -18.8451  -50.9407 O.2       19 UNK        -0.5000 
    109 N         -8.3064  -19.6649  -51.1890 N.am      20 UNK        -0.5000 
    110 CA        -8.8938  -18.5208  -51.8926 C.3       20 UNK         0.1400 
    111 CB       -10.4177  -18.7040  -51.9565 C.3       20 UNK        -0.1800 
    112 C         -8.3168  -18.3095  -53.3086 C.2       20 UNK         0.5000 
    113 O         -8.2922  -17.1757  -53.7881 O.2       20 UNK        -0.5000 
    114 N         -7.8471  -19.3950  -53.9387 N.am      21 UNK        -0.5000 
    115 CA        -7.1518  -19.3901  -55.2279 C.3       21 UNK         0.1400 
    116 CB        -7.6135  -20.6189  -56.0296 C.3       21 UNK        -0.1800 
    117 C         -5.6177  -19.3999  -55.0575 C.2       21 UNK         0.5000 
    118 O         -4.8988  -19.3604  -56.0567 O.2       21 UNK        -0.5000 
    119 N         -5.1445  -19.4676  -53.8060 N.am      22 UNK        -0.5000 
    120 CA        -3.7441  -19.6594  -53.4068 C.3       22 UNK         0.1400 
    121 C         -3.1601  -21.0538  -53.7902 C.2       22 UNK         0.5000 
    122 N         -3.9800  -22.0937  -53.8796 N.am      22 UNK        -0.7600 
    123 O         -1.9614  -21.2080  -54.0026 O.2       22 UNK        -0.5000 
    124 C124       -2.8387  -18.4498  -53.7807 C.3       23 UNK        -0.0398 
    125 S125       -1.6900  -18.0178  -52.4296 S.3       23 UNK        -0.2404 
    126 C126       -0.0788  -18.3644  -53.1936 C.3       23 UNK        -0.0205 
    127 H127        5.2212  -19.0545  -46.3596 H         1 UNK         0.0600 
    128 H128        6.6034  -17.9590  -46.3138 H         1 UNK         0.0600 
    129 H129        5.6462  -18.1146  -47.7931 H         1 UNK         0.0600 
    130 H130        4.9510  -15.9322  -47.9313 H         1 UNK         0.3000 
    131 H131        2.8345  -15.0246  -46.1453 H         1 UNK         0.0600 
    132 H132        2.6868  -13.0938  -47.7390 H         1 UNK         0.0800 
    133 H133        4.0486  -13.7107  -48.6371 H         1 UNK         0.0800 
    134 H134        4.1117  -15.6950  -50.0340 H         1 UNK         0.0800 
    135 H135        3.0333  -14.8774  -51.1416 H         1 UNK         0.0800 
    136 H136        1.1153  -16.1337  -52.1778 H         1 UNK         0.1150 
    137 H137        1.1769  -20.4108  -51.9105 H         1 UNK         0.1150 
    138 H138        3.9091  -18.0732  -49.5737 H         1 UNK         0.1150 
    139 H139        2.4979  -21.5079  -50.2715 H         1 UNK         0.0800 
    140 H140        4.0929  -20.9188  -50.6422 H         1 UNK         0.0800 
    141 H141        1.5722  -19.2183  -48.1512 H         1 UNK         0.0800 
    142 H142        2.3609  -19.4788  -46.6344 H         1 UNK         0.0800 
    143 H143        1.6414  -22.0307  -46.9757 H         1 UNK         0.0600 
    144 H144        0.3974  -19.9191  -45.5598 H         1 UNK         0.3000 
    145 H145       -2.0423  -21.9798  -43.8959 H         1 UNK         0.0600 
    146 H146       -0.9470  -20.9028  -41.9656 H         1 UNK         0.0600 
    147 H147        0.1171  -22.1236  -42.6458 H         1 UNK         0.0600 
    148 H148        0.4242  -20.4208  -42.9611 H         1 UNK         0.0600 
    149 H149       -1.5945  -19.1804  -43.7745 H         1 UNK         0.3000 
    150 H150       -3.7583  -18.2634  -46.4978 H         1 UNK         0.0600 
    151 H151       -5.2217  -18.6374  -44.5050 H         1 UNK         0.0600 
    152 H152       -4.7972  -16.9426  -44.6896 H         1 UNK         0.0600 
    153 H153       -3.9949  -17.9237  -43.4642 H         1 UNK         0.0600 
    154 H154       -2.2876  -16.6211  -44.7468 H         1 UNK         0.3000 
    155 H155        0.7847  -16.5344  -46.6358 H         1 UNK         0.0600 
    156 H156       -1.4232  -14.5269  -45.9186 H         1 UNK         0.0600 
    157 H157        0.2405  -14.1238  -46.3353 H         1 UNK         0.0600 
    158 H158       -0.8163  -14.8522  -47.5354 H         1 UNK         0.0600 
    159 H159        0.1534  -15.3665  -44.1317 H         1 UNK         0.3000 
    160 H160        1.2287  -18.0541  -42.0299 H         1 UNK         0.0600 
    161 H161        2.3292  -15.2609  -42.6687 H         1 UNK         0.0600 
    162 H162        3.2478  -16.7567  -42.5876 H         1 UNK         0.0600 
    163 H163        2.5200  -16.1039  -41.1316 H         1 UNK         0.0600 
    164 H164        0.0484  -15.4606  -41.5786 H         1 UNK         0.3000 
    165 H165       -3.3321  -16.5945  -41.3860 H         1 UNK         0.0600 
    166 H166       -3.1410  -15.6363  -39.1084 H         1 UNK         0.0600 
    167 H167       -2.3397  -17.1977  -39.1719 H         1 UNK         0.0600 
    168 H168       -1.3808  -15.7224  -39.1854 H         1 UNK         0.0600 
    169 H169       -2.1282  -14.0623  -40.8705 H         1 UNK         0.3000 
    170 H170       -2.0588  -12.8140  -44.1818 H         1 UNK         0.0600 
    171 H171       -4.4741  -12.5675  -43.5928 H         1 UNK         0.0600 
    172 H172       -4.0437  -12.1607  -41.9359 H         1 UNK         0.0600 
    173 H173       -3.5862  -11.0893  -43.2607 H         1 UNK         0.0600 
    174 H174       -1.6493  -11.5646  -41.6571 H         1 UNK         0.3000 
    175 H175        0.3537  -11.0105  -40.9334 H         1 UNK         0.0600 
    176 H176        1.6749  -13.7388  -40.4479 H         1 UNK         0.0600 
    177 H177        1.7267  -12.3533  -39.3615 H         1 UNK         0.0600 
    178 H178        0.2031  -13.1727  -39.6645 H         1 UNK         0.0600 
    179 H179        2.9588  -12.0214  -41.6260 H         1 UNK         0.3000 
    180 H180        3.6310   -9.7063  -44.2322 H         1 UNK         0.0600 
    181 H181        4.6733   -9.8446  -41.3555 H         1 UNK         0.0600 
    182 H182        4.0209   -8.4229  -42.1545 H         1 UNK         0.0600 
    183 H183        5.5204   -9.1349  -42.7294 H         1 UNK         0.0600 
    184 H184        4.6474  -11.5986  -44.6415 H         1 UNK         0.3000 
    185 H185        6.5446  -13.1613  -44.0726 H         1 UNK         0.0600 
    186 H186        6.8479  -14.2465  -41.8525 H         1 UNK         0.0600 
    187 H187        5.3753  -15.1821  -42.0885 H         1 UNK         0.0600 
    188 H188        6.7705  -15.4459  -43.1328 H         1 UNK         0.0600 
    189 H189        4.5565  -15.2140  -44.3907 H         1 UNK         0.3000 
    190 H190       -1.0627  -19.8707  -47.8793 H         1 UNK         0.3000 
    191 H191       -1.5499  -20.8049  -50.4766 H         1 UNK         0.0600 
    192 H192       -3.5070  -19.6855  -48.3985 H         1 UNK         0.0600 
    193 H193       -3.7983  -19.7695  -50.1203 H         1 UNK         0.0600 
    194 H194       -2.5247  -18.7338  -49.5083 H         1 UNK         0.0600 
    195 H195       -2.7618  -22.0865  -47.3505 H         1 UNK         0.3000 
    196 H196       -4.3672  -24.1834  -48.5220 H         1 UNK         0.0600 
    197 H197       -4.4599  -25.0172  -46.1721 H         1 UNK         0.0600 
    198 H198       -4.8108  -23.2964  -46.2523 H         1 UNK         0.0600 
    199 H199       -3.2341  -23.8478  -45.6935 H         1 UNK         0.0600 
    200 H200       -1.0426  -24.0488  -47.1580 H         1 UNK         0.3000 
    201 H201       -0.4071  -26.7809  -47.3833 H         1 UNK         0.0600 
    202 H202        0.8495  -25.1831  -45.9648 H         1 UNK         0.0600 
    203 H203        1.4430  -24.3430  -47.3988 H         1 UNK         0.0600 
    204 H204        1.9393  -25.9970  -47.0733 H         1 UNK         0.0600 
    205 H205       -0.6658  -24.4704  -49.9203 H         1 UNK         0.3000 
    206 H206        1.0008  -25.6777  -51.9019 H         1 UNK         0.0600 
    207 H207        0.0649  -23.3401  -52.0149 H         1 UNK         0.0600 
    208 H208       -0.3084  -24.2731  -53.4561 H         1 UNK         0.0600 
    209 H209       -1.5496  -24.0103  -52.2422 H         1 UNK         0.0600 
    210 H210       -1.8340  -26.8776  -50.4311 H         1 UNK         0.3000 
    211 H211       -3.1127  -28.6495  -50.6761 H         1 UNK         0.0600 
    212 H212       -1.2380  -29.6327  -52.8913 H         1 UNK         0.0600 
    213 H213       -2.3893  -30.5979  -51.9818 H         1 UNK         0.0600 
    214 H214       -1.0000  -29.8998  -51.1648 H         1 UNK         0.0600 
    215 H215       -4.0942  -26.4243  -51.6600 H         1 UNK         0.3000 
    216 H216       -6.0192  -27.2467  -53.6403 H         1 UNK         0.0600 
    217 H217       -5.5391  -25.2586  -55.1435 H         1 UNK         0.0600 
    218 H218       -4.2054  -26.3973  -55.1479 H         1 UNK         0.0600 
    219 H219       -4.0871  -24.9162  -54.2071 H         1 UNK         0.0600 
    220 H220       -7.4452  -25.0817  -53.9776 H         1 UNK         0.3000 
    221 H221       -8.5064  -24.3493  -51.4273 H         1 UNK         0.0600 
    222 H222       -8.9570  -23.1534  -54.2192 H         1 UNK         0.0600 
    223 H223       -9.8967  -24.4506  -53.4819 H         1 UNK         0.0600 
    224 H224       -9.9494  -22.8317  -52.8027 H         1 UNK         0.0600 
    225 H225       -7.8317  -22.7925  -50.0472 H         1 UNK         0.3000 
    226 H226       -5.5260  -21.2476  -50.5219 H         1 UNK         0.0600 
    227 H227       -6.1842  -22.0053  -48.2691 H         1 UNK         0.0600 
    228 H228       -6.0379  -20.2572  -48.2786 H         1 UNK         0.0600 
    229 H229       -7.6338  -20.9986  -48.3118 H         1 UNK         0.0600 
    230 H230       -8.9094  -20.4589  -51.0316 H         1 UNK         0.3000 
    231 H231       -8.6796  -17.6211  -51.3120 H         1 UNK         0.0600 
    232 H232      -10.8926  -17.8561  -52.4521 H         1 UNK         0.0600 
    233 H233      -10.8489  -18.7776  -50.9580 H         1 UNK         0.0600 
    234 H234      -10.6924  -19.6033  -52.5094 H         1 UNK         0.0600 
    235 H235       -7.8713  -20.2871  -53.4611 H         1 UNK         0.3000 
    236 H236       -7.4143  -18.4945  -55.7946 H         1 UNK         0.0600 
    237 H237       -8.6957  -20.6215  -56.1599 H         1 UNK         0.0600 
    238 H238       -7.1674  -20.6277  -57.0248 H         1 UNK         0.0600 
    239 H239       -7.3324  -21.5505  -55.5371 H         1 UNK         0.0600 
    240 H240       -5.8106  -19.4632  -53.0463 H         1 UNK         0.3000 
    241 H241       -3.8050  -19.6990  -52.3222 H         1 UNK         0.0600 
    242 H242       -4.9664  -22.0049  -53.6504 H         1 UNK         0.3800 
    243 H243       -3.5975  -22.9902  -54.1238 H         1 UNK         0.3800 
    244 H244       -2.3021  -18.6222  -54.7152 H         1 UNK         0.0800 
    245 H245       -3.4476  -17.5619  -53.9560 H         1 UNK         0.0800 
    246 H246       -0.0944  -19.3534  -53.6532 H         1 UNK         0.0800 
    247 H247        0.1029  -17.6510  -53.9987 H         1 UNK         0.0800 
@<TRIPOS>BOND
     1    1    2 1    
     2    1  127 1    
     3    1  128 1    
     4    1  129 1    
     5    2    3 2    
     6    2    4 am   BACKBONE|DICT|INTERRES
     7    4    5 1    
     8    4  130 1    
     9    5    6 1    
    10    5   65 1    
    11    5  131 1    
    12    6    7 1    
    13    6  132 1    
    14    6  133 1    
    15    7    8 1    
    16    8    9 1    
    17    8  134 1    
    18    8  135 1    
    19    9   10 ar   
    20    9   14 ar   
    21   10   11 ar   
    22   10  136 1    
    23   11   12 ar   
    24   11  126 1    
    25   12   13 ar   
    26   12  137 1    
    27   13   14 ar   
    28   13   15 1    
    29   14  138 1    
    30   15   16 1    
    31   15  139 1    
    32   15  140 1    
    33   16   17 1    
    34   17   18 1    
    35   17  141 1    
    36   17  142 1    
    37   18   19 1    
    38   18   67 1    
    39   18  143 1    
    40   19   20 am   BACKBONE|DICT|INTERRES
    41   19  144 1    
    42   20   21 2    
    43   20   22 1    
    44   22   23 1    
    45   22   24 1    
    46   22  145 1    
    47   23  146 1    
    48   23  147 1    
    49   23  148 1    
    50   24   25 am   BACKBONE|DICT|INTERRES
    51   24  149 1    
    52   25   26 2    
    53   25   27 1    
    54   27   28 1    
    55   27   29 1    
    56   27  150 1    
    57   28  151 1    
    58   28  152 1    
    59   28  153 1    
    60   29   30 am   BACKBONE|DICT|INTERRES
    61   29  154 1    
    62   30   31 2    
    63   30   32 1    
    64   32   33 1    
    65   32   34 1    
    66   32  155 1    
    67   33  156 1    
    68   33  157 1    
    69   33  158 1    
    70   34   35 am   BACKBONE|DICT|INTERRES
    71   34  159 1    
    72   35   36 2    
    73   35   37 1    
    74   37   38 1    
    75   37   39 1    
    76   37  160 1    
    77   38  161 1    
    78   38  162 1    
    79   38  163 1    
    80   39   40 am   BACKBONE|DICT|INTERRES
    81   39  164 1    
    82   40   41 2    
    83   40   42 1    
    84   42   43 1    
    85   42   44 1    
    86   42  165 1    
    87   43  166 1    
    88   43  167 1    
    89   43  168 1    
    90   44   45 am   BACKBONE|DICT|INTERRES
    91   44  169 1    
    92   45   46 2    
    93   45   47 1    
    94   47   48 1    
    95   47   49 1    
    96   47  170 1    
    97   48  171 1    
    98   48  172 1    
    99   48  173 1    
   100   49   50 am   BACKBONE|DICT|INTERRES
   101   49  174 1    
   102   50   51 2    
   103   50   52 1    
   104   52   53 1    
   105   52   54 1    
   106   52  175 1    
   107   53  176 1    
   108   53  177 1    
   109   53  178 1    
   110   54   55 am   BACKBONE|DICT|INTERRES
   111   54  179 1    
   112   55   56 2    
   113   55   57 1    
   114   57   58 1    
   115   57   59 1    
   116   57  180 1    
   117   58  181 1    
   118   58  182 1    
   119   58  183 1    
   120   59   60 am   BACKBONE|DICT|INTERRES
   121   59  184 1    
   122   60   61 2    
   123   60   62 1    
   124   62   63 1    
   125   62   64 1    
   126   62  185 1    
   127   63  186 1    
   128   63  187 1    
   129   63  188 1    
   130   64   65 am   BACKBONE|DICT|INTERRES
   131   64  189 1    
   132   65   66 2    
   133   67   68 2    
   134   67   69 am   BACKBONE|DICT|INTERRES
   135   69   70 1    
   136   69  190 1    
   137   70   71 1    
   138   70   72 1    
   139   70  191 1    
   140   71  192 1    
   141   71  193 1    
   142   71  194 1    
   143   72   73 2    
   144   72   74 am   BACKBONE|DICT|INTERRES
   145   74   75 1    
   146   74  195 1    
   147   75   76 1    
   148   75   77 1    
   149   75  196 1    
   150   76  197 1    
   151   76  198 1    
   152   76  199 1    
   153   77   78 2    
   154   77   79 am   BACKBONE|DICT|INTERRES
   155   79   80 1    
   156   79  200 1    
   157   80   81 1    
   158   80   82 1    
   159   80  201 1    
   160   81  202 1    
   161   81  203 1    
   162   81  204 1    
   163   82   83 2    
   164   82   84 am   BACKBONE|DICT|INTERRES
   165   84   85 1    
   166   84  205 1    
   167   85   86 1    
   168   85   87 1    
   169   85  206 1    
   170   86  207 1    
   171   86  208 1    
   172   86  209 1    
   173   87   88 2    
   174   87   89 am   BACKBONE|DICT|INTERRES
   175   89   90 1    
   176   89  210 1    
   177   90   91 1    
   178   90   92 1    
   179   90  211 1    
   180   91  212 1    
   181   91  213 1    
   182   91  214 1    
   183   92   93 2    
   184   92   94 am   BACKBONE|DICT|INTERRES
   185   94   95 1    
   186   94  215 1    
   187   95   96 1    
   188   95   97 1    
   189   95  216 1    
   190   96  217 1    
   191   96  218 1    
   192   96  219 1    
   193   97   98 2    
   194   97   99 am   BACKBONE|DICT|INTERRES
   195   99  100 1    
   196   99  220 1    
   197  100  101 1    
   198  100  102 1    
   199  100  221 1    
   200  101  222 1    
   201  101  223 1    
   202  101  224 1    
   203  102  103 2    
   204  102  104 am   BACKBONE|DICT|INTERRES
   205  104  105 1    
   206  104  225 1    
   207  105  106 1    
   208  105  107 1    
   209  105  226 1    
   210  106  227 1    
   211  106  228 1    
   212  106  229 1    
   213  107  108 2    
   214  107  109 am   BACKBONE|DICT|INTERRES
   215  109  110 1    
   216  109  230 1    
   217  110  111 1    
   218  110  112 1    
   219  110  231 1    
   220  111  232 1    
   221  111  233 1    
   222  111  234 1    
   223  112  113 2    
   224  112  114 am   BACKBONE|DICT|INTERRES
   225  114  115 1    
   226  114  235 1    
   227  115  116 1    
   228  115  117 1    
   229  115  236 1    
   230  116  237 1    
   231  116  238 1    
   232  116  239 1    
   233  117  118 2    
   234  117  119 am   BACKBONE|DICT|INTERRES
   235  119  120 1    
   236  119  240 1    
   237  120  121 1    
   238  120  124 1    
   239  120  241 1    
   240  121  122 am   BACKBONE|DICT|INTERRES
   241  121  123 2    
   242  122  242 1    
   243  122  243 1    
   244  124  125 1    
   245  124  244 1    
   246  124  245 1    
   247  125  126 1    
   248  126  246 1    
   249  126  247 1    
@<TRIPOS>SUBSTRUCTURE
     1 UNK         1 GROUP             0       ****    0 ROOT    
