@<TRIPOS>MOLECULE
3R540
247   249    1
SMALL
USER_CHARGES


@<TRIPOS>ATOM
      1 CA          3.4188  -14.3356  -42.9353 C.3       0 UNK        -0.1800 
      2 C           2.0866  -13.6013  -42.9897 C.2       0 UNK         0.5000 
      3 O           1.9449  -12.5444  -42.3740 O.2       0 UNK        -0.5000 
      4 N           1.1108  -14.1549  -43.7169 N.am      1 UNK        -0.5000 
      5 CA         -0.2046  -13.5592  -43.9536 C.3       1 UNK         0.1400 
      6 C6         -1.2365  -14.5895  -44.4703 C.3       23 UNK        -0.0398 
      7 S7         -1.5567  -15.9347  -43.2820 S.3       23 UNK        -0.2404 
      8 C8         -3.2845  -16.3572  -43.6711 C.3       23 UNK        -0.0205 
      9 C9         -3.4355  -16.9211  -45.0769 C.ar      23 UNK        -0.0193 
     10 C10        -3.9036  -16.1123  -46.1178 C.ar      23 UNK        -0.1150 
     11 C11        -4.0485  -16.6304  -47.4081 C.ar      23 UNK        -0.0193 
     12 C12        -3.7281  -17.9685  -47.6536 C.ar      23 UNK        -0.1150 
     13 C13        -3.2490  -18.7823  -46.6239 C.ar      23 UNK        -0.0193 
     14 C14        -3.1116  -18.2561  -45.3362 C.ar      23 UNK        -0.1150 
     15 C15        -2.8682  -20.2235  -46.9076 C.3       23 UNK        -0.0205 
     16 S16        -1.0894  -20.3748  -47.2608 S.3       23 UNK        -0.2404 
     17 C17        -0.9834  -22.0351  -48.0010 C.3       23 UNK        -0.0398 
     18 CA         -0.9127  -23.2332  -47.0229 C.3       11 UNK         0.1400 
     19 N           0.1366  -23.1178  -46.0022 N.am      11 UNK        -0.5000 
     20 C           0.6994  -24.1813  -45.4077 C.2       10 UNK         0.5000 
     21 O           0.3794  -25.3428  -45.6563 O.2       10 UNK        -0.5000 
     22 CA          1.7544  -23.9128  -44.3191 C.3       10 UNK         0.1400 
     23 CB          3.0937  -23.5021  -44.9492 C.3       10 UNK        -0.1800 
     24 N           1.3418  -22.8962  -43.3530 N.am      10 UNK        -0.5000 
     25 C           0.2478  -22.9557  -42.5796 C.2       9 UNK         0.5000 
     26 O          -0.5275  -23.9112  -42.5739 O.2       9 UNK        -0.5000 
     27 CA         -0.0542  -21.7275  -41.6930 C.3       9 UNK         0.1400 
     28 CB          0.4097  -21.9807  -40.2513 C.3       9 UNK        -0.1800 
     29 N           0.5478  -20.4799  -42.1799 N.am      9 UNK        -0.5000 
     30 C           0.2754  -19.9198  -43.3662 C.2       8 UNK         0.5000 
     31 O          -0.5554  -20.3866  -44.1464 O.2       8 UNK        -0.5000 
     32 CA          1.1020  -18.6857  -43.7684 C.3       8 UNK         0.1400 
     33 CB          2.6057  -18.8765  -43.4634 C.3       8 UNK        -0.1800 
     34 N           0.9047  -18.4332  -45.1943 N.am      8 UNK        -0.5000 
     35 C           1.2847  -17.3359  -45.8531 C.2       7 UNK         0.5000 
     36 O           1.7747  -16.3479  -45.3057 O.2       7 UNK        -0.5000 
     37 CA          1.0751  -17.3280  -47.3776 C.3       7 UNK         0.1400 
     38 CB         -0.2604  -16.6687  -47.7425 C.3       7 UNK        -0.1800 
     39 N           2.1493  -16.6040  -48.0522 N.am      7 UNK        -0.5000 
     40 C           3.4140  -17.0305  -48.1673 C.2       6 UNK         0.5000 
     41 O           3.7937  -18.1505  -47.8236 O.2       6 UNK        -0.5000 
     42 CA          4.4266  -16.0361  -48.7709 C.3       6 UNK         0.1400 
     43 CB          4.6140  -16.3051  -50.2716 C.3       6 UNK        -0.1800 
     44 N           4.0201  -14.6419  -48.5899 N.am      6 UNK        -0.5000 
     45 C           4.0720  -13.9617  -47.4387 C.2       5 UNK         0.5000 
     46 O           4.5865  -14.4033  -46.4118 O.2       5 UNK        -0.5000 
     47 CA          3.4137  -12.5675  -47.4146 C.3       5 UNK         0.1400 
     48 CB          4.4043  -11.4638  -47.8314 C.3       5 UNK        -0.1800 
     49 N           2.1490  -12.4831  -48.1623 N.am      5 UNK        -0.5000 
     50 C           1.9426  -12.5378  -49.4869 C.2       4 UNK         0.5000 
     51 O           2.8546  -12.6663  -50.3042 O.2       4 UNK        -0.5000 
     52 CA          0.4953  -12.4911  -50.0075 C.3       4 UNK         0.1400 
     53 CB          0.0814  -13.8583  -50.5800 C.3       4 UNK        -0.1800 
     54 N          -0.4884  -12.0418  -49.0152 N.am      4 UNK        -0.5000 
     55 C          -1.6069  -11.3686  -49.3276 C.2       3 UNK         0.5000 
     56 O          -1.9323  -11.0882  -50.4820 O.2       3 UNK        -0.5000 
     57 CA         -2.5235  -10.9113  -48.1714 C.3       3 UNK         0.1400 
     58 CB         -3.6713  -11.9107  -47.9646 C.3       3 UNK        -0.1800 
     59 N          -1.8313  -10.7311  -46.8972 N.am      3 UNK        -0.5000 
     60 C          -0.8686   -9.8339  -46.6480 C.2       2 UNK         0.5000 
     61 O          -0.5154   -8.9722  -47.4537 O.2       2 UNK        -0.5000 
     62 CA         -0.1621   -9.9234  -45.2777 C.3       2 UNK         0.1400 
     63 CB         -0.5854   -8.7500  -44.3798 C.3       2 UNK        -0.1800 
     64 N          -0.3597  -11.1769  -44.5344 N.am      2 UNK        -0.5000 
     65 C          -0.0504  -12.4084  -44.9630 C.2       1 UNK         0.5000 
     66 O           0.3279  -12.6585  -46.1100 O.2       1 UNK        -0.5000 
     67 C          -2.2930  -23.5850  -46.4333 C.2       11 UNK         0.5000 
     68 O          -3.1498  -24.0647  -47.1736 O.2       11 UNK        -0.5000 
     69 N          -2.4890  -23.3531  -45.1274 N.am      12 UNK        -0.5000 
     70 CA         -3.6863  -23.7725  -44.3998 C.3       12 UNK         0.1400 
     71 CB         -3.8346  -22.9337  -43.1210 C.3       12 UNK        -0.1800 
     72 C          -3.6521  -25.2799  -44.0825 C.2       12 UNK         0.5000 
     73 O          -4.6957  -25.9321  -44.1258 O.2       12 UNK        -0.5000 
     74 N          -2.4557  -25.8053  -43.7812 N.am      13 UNK        -0.5000 
     75 CA         -2.1990  -27.2291  -43.5685 C.3       13 UNK         0.1400 
     76 CB         -0.8544  -27.3970  -42.8436 C.3       13 UNK        -0.1800 
     77 C          -2.2167  -28.0319  -44.8837 C.2       13 UNK         0.5000 
     78 O          -2.7595  -29.1378  -44.9128 O.2       13 UNK        -0.5000 
     79 N          -1.6216  -27.4651  -45.9418 N.am      14 UNK        -0.5000 
     80 CA         -1.5900  -28.0242  -47.2940 C.3       14 UNK         0.1400 
     81 CB         -0.4414  -27.3579  -48.0725 C.3       14 UNK        -0.1800 
     82 C          -2.9332  -27.8686  -48.0405 C.2       14 UNK         0.5000 
     83 O          -3.8973  -27.3147  -47.5071 O.2       14 UNK        -0.5000 
     84 N          -2.9668  -28.3734  -49.2802 N.am      15 UNK        -0.5000 
     85 CA         -4.0869  -28.2408  -50.2115 C.3       15 UNK         0.1400 
     86 CB         -3.8420  -29.1796  -51.4038 C.3       15 UNK        -0.1800 
     87 C          -4.2721  -26.7926  -50.7061 C.2       15 UNK         0.5000 
     88 O          -3.3267  -26.0000  -50.6830 O.2       15 UNK        -0.5000 
     89 N          -5.4767  -26.4968  -51.2148 N.am      16 UNK        -0.5000 
     90 CA         -5.9002  -25.1863  -51.7259 C.3       16 UNK         0.1400 
     91 CB         -7.3757  -25.2676  -52.1451 C.3       16 UNK        -0.1800 
     92 C          -5.0450  -24.6248  -52.8813 C.2       16 UNK         0.5000 
     93 O          -5.0370  -23.4122  -53.0892 O.2       16 UNK        -0.5000 
     94 N          -4.3035  -25.4964  -53.5790 N.am      17 UNK        -0.5000 
     95 CA         -3.3049  -25.1348  -54.5864 C.3       17 UNK         0.1400 
     96 CB         -2.7739  -26.4162  -55.2457 C.3       17 UNK        -0.1800 
     97 C          -2.1391  -24.2954  -54.0223 C.2       17 UNK         0.5000 
     98 O          -1.5861  -23.4723  -54.7512 O.2       17 UNK        -0.5000 
     99 N          -1.8024  -24.4874  -52.7374 N.am      18 UNK        -0.5000 
    100 CA        -0.7981  -23.6910  -52.0285 C.3       18 UNK         0.1400 
    101 CB        -0.3108  -24.4709  -50.7972 C.3       18 UNK        -0.1800 
    102 C         -1.3426  -22.3131  -51.6069 C.2       18 UNK         0.5000 
    103 O         -0.5746  -21.3549  -51.5187 O.2       18 UNK        -0.5000 
    104 N         -2.6572  -22.2387  -51.3509 N.am      19 UNK        -0.5000 
    105 CA        -3.3677  -21.0306  -50.9252 C.3       19 UNK         0.1400 
    106 CB        -4.6487  -21.4464  -50.1845 C.3       19 UNK        -0.1800 
    107 C         -3.7032  -20.0804  -52.0896 C.2       19 UNK         0.5000 
    108 O         -4.1118  -18.9456  -51.8390 O.2       19 UNK        -0.5000 
    109 N         -3.5157  -20.5395  -53.3362 N.am      20 UNK        -0.5000 
    110 CA        -3.8343  -19.8471  -54.5905 C.3       20 UNK         0.1400 
    111 CB        -3.5302  -20.7957  -55.7612 C.3       20 UNK        -0.1800 
    112 C         -3.1369  -18.4838  -54.7996 C.2       20 UNK         0.5000 
    113 O         -3.5373  -17.7362  -55.6927 O.2       20 UNK        -0.5000 
    114 N         -2.1324  -18.1688  -53.9693 N.am      21 UNK        -0.5000 
    115 CA        -1.4841  -16.8599  -53.8763 C.3       21 UNK         0.1400 
    116 CB        -0.2845  -16.9697  -52.9216 C.3       21 UNK        -0.1800 
    117 C         -2.4315  -15.7306  -53.4148 C.2       21 UNK         0.5000 
    118 O         -2.1897  -14.5727  -53.7590 O.2       21 UNK        -0.5000 
    119 N         -3.4853  -16.0756  -52.6627 N.am      22 UNK        -0.5000 
    120 CA        -4.4865  -15.1284  -52.1451 C.3       22 UNK         0.1400 
    121 C         -5.9026  -15.7273  -51.9156 C.2       22 UNK         0.5000 
    122 N         -6.1022  -17.0388  -51.9171 N.am      22 UNK        -0.7600 
    123 O         -6.8602  -14.9754  -51.7551 O.2       22 UNK        -0.5000 
    124 C124       -3.9863  -14.3085  -50.9218 C.3       23 UNK        -0.0398 
    125 S125       -3.1499  -15.2957  -49.6324 S.3       23 UNK        -0.2404 
    126 C126       -4.5334  -15.7480  -48.5457 C.3       23 UNK        -0.0205 
    127 H127        4.1934  -13.7410  -43.4194 H         1 UNK         0.0600 
    128 H128        3.3711  -15.3014  -43.4379 H         1 UNK         0.0600 
    129 H129        3.7131  -14.5073  -41.9001 H         1 UNK         0.0600 
    130 H130        1.3131  -15.0002  -44.2511 H         1 UNK         0.3000 
    131 H131       -0.5761  -13.1554  -43.0092 H         1 UNK         0.0600 
    132 H132       -2.1811  -14.0892  -44.6886 H         1 UNK         0.0800 
    133 H133       -0.9041  -15.0383  -45.4061 H         1 UNK         0.0800 
    134 H134       -3.6366  -17.0936  -42.9474 H         1 UNK         0.0800 
    135 H135       -3.9150  -15.4770  -43.5381 H         1 UNK         0.0800 
    136 H136       -4.1503  -15.0778  -45.9259 H         1 UNK         0.1150 
    137 H137       -3.8273  -18.3658  -48.6544 H         1 UNK         0.1150 
    138 H138       -2.7372  -18.8824  -44.5385 H         1 UNK         0.1150 
    139 H139       -3.1237  -20.8360  -46.0434 H         1 UNK         0.0800 
    140 H140       -3.4507  -20.6057  -47.7444 H         1 UNK         0.0800 
    141 H141       -0.0862  -22.0389  -48.6210 H         1 UNK         0.0800 
    142 H142       -1.8115  -22.1649  -48.6965 H         1 UNK         0.0800 
    143 H143       -0.6502  -24.0894  -47.6459 H         1 UNK         0.0600 
    144 H144        0.3883  -22.1829  -45.7122 H         1 UNK         0.3000 
    145 H145        1.9067  -24.8451  -43.7712 H         1 UNK         0.0600 
    146 H146        3.8727  -23.4073  -44.1925 H         1 UNK         0.0600 
    147 H147        3.4316  -24.2488  -45.6691 H         1 UNK         0.0600 
    148 H148        3.0187  -22.5492  -45.4747 H         1 UNK         0.0600 
    149 H149        1.9228  -22.0747  -43.2859 H         1 UNK         0.3000 
    150 H150       -1.1375  -21.5921  -41.6853 H         1 UNK         0.0600 
    151 H151        1.4923  -22.0989  -40.1916 H         1 UNK         0.0600 
    152 H152       -0.0424  -22.8885  -39.8494 H         1 UNK         0.0600 
    153 H153        0.1235  -21.1592  -39.5942 H         1 UNK         0.0600 
    154 H154        1.2400  -20.0520  -41.5826 H         1 UNK         0.3000 
    155 H155        0.7235  -17.8336  -43.2030 H         1 UNK         0.0600 
    156 H156        3.0113  -19.7458  -43.9819 H         1 UNK         0.0600 
    157 H157        2.7880  -19.0099  -42.3970 H         1 UNK         0.0600 
    158 H158        3.1919  -18.0098  -43.7676 H         1 UNK         0.0600 
    159 H159        0.3957  -19.1665  -45.6756 H         1 UNK         0.3000 
    160 H160        1.0709  -18.3584  -47.7372 H         1 UNK         0.0600 
    161 H161       -0.2458  -15.5929  -47.5669 H         1 UNK         0.0600 
    162 H162       -1.0726  -17.0833  -47.1484 H         1 UNK         0.0600 
    163 H163       -0.5085  -16.8366  -48.7904 H         1 UNK         0.0600 
    164 H164        1.9507  -15.6522  -48.3158 H         1 UNK         0.3000 
    165 H165        5.3843  -16.1890  -48.2699 H         1 UNK         0.0600 
    166 H166        4.9391  -17.3313  -50.4468 H         1 UNK         0.0600 
    167 H167        3.6872  -16.1541  -50.8260 H         1 UNK         0.0600 
    168 H168        5.3710  -15.6470  -50.6987 H         1 UNK         0.0600 
    169 H169        3.6293  -14.1612  -49.3949 H         1 UNK         0.3000 
    170 H170        3.1418  -12.3784  -46.3747 H         1 UNK         0.0600 
    171 H171        3.9447  -10.4776  -47.7682 H         1 UNK         0.0600 
    172 H172        4.7687  -11.6011  -48.8495 H         1 UNK         0.0600 
    173 H173        5.2751  -11.4594  -47.1751 H         1 UNK         0.0600 
    174 H174        1.3417  -12.4630  -47.5443 H         1 UNK         0.3000 
    175 H175        0.5148  -11.7739  -50.8309 H         1 UNK         0.0600 
    176 H176       -0.8580  -13.7884  -51.1268 H         1 UNK         0.0600 
    177 H177        0.8275  -14.2388  -51.2782 H         1 UNK         0.0600 
    178 H178       -0.0432  -14.6013  -49.7939 H         1 UNK         0.0600 
    179 H179       -0.2979  -12.2399  -48.0404 H         1 UNK         0.3000 
    180 H180       -2.9537   -9.9486  -48.4552 H         1 UNK         0.0600 
    181 H181       -3.2995  -12.8934  -47.6716 H         1 UNK         0.0600 
    182 H182       -4.2483  -12.0342  -48.8809 H         1 UNK         0.0600 
    183 H183       -4.3617  -11.5683  -47.1935 H         1 UNK         0.0600 
    184 H184       -2.0515  -11.3933  -46.1692 H         1 UNK         0.3000 
    185 H185        0.9083   -9.8327  -45.4729 H         1 UNK         0.0600 
    186 H186       -0.4200   -7.7934  -44.8778 H         1 UNK         0.0600 
    187 H187       -1.6432   -8.8060  -44.1194 H         1 UNK         0.0600 
    188 H188       -0.0107   -8.7334  -43.4536 H         1 UNK         0.0600 
    189 H189       -0.6643  -11.0687  -43.5773 H         1 UNK         0.3000 
    190 H190       -1.7404  -22.9431  -44.5870 H         1 UNK         0.3000 
    191 H191       -4.5605  -23.5808  -45.0259 H         1 UNK         0.0600 
    192 H192       -3.8369  -21.8668  -43.3460 H         1 UNK         0.0600 
    193 H193       -4.7740  -23.1628  -42.6167 H         1 UNK         0.0600 
    194 H194       -3.0311  -23.1258  -42.4110 H         1 UNK         0.0600 
    195 H195       -1.6617  -25.1817  -43.6842 H         1 UNK         0.3000 
    196 H196       -2.9835  -27.6278  -42.9217 H         1 UNK         0.0600 
    197 H197       -0.6425  -28.4495  -42.6517 H         1 UNK         0.0600 
    198 H198       -0.8596  -26.8843  -41.8814 H         1 UNK         0.0600 
    199 H199       -0.0268  -26.9955  -43.4296 H         1 UNK         0.0600 
    200 H200       -1.1530  -26.5740  -45.8149 H         1 UNK         0.3000 
    201 H201       -1.3762  -29.0922  -47.2170 H         1 UNK         0.0600 
    202 H202       -0.2862  -27.8289  -49.0432 H         1 UNK         0.0600 
    203 H203       -0.6426  -26.3028  -48.2511 H         1 UNK         0.0600 
    204 H204        0.5006  -27.4319  -47.5288 H         1 UNK         0.0600 
    205 H205       -2.1286  -28.7915  -49.6552 H         1 UNK         0.3000 
    206 H206       -4.9990  -28.5514  -49.6978 H         1 UNK         0.0600 
    207 H207       -3.7325  -30.2135  -51.0758 H         1 UNK         0.0600 
    208 H208       -4.6757  -29.1527  -52.1064 H         1 UNK         0.0600 
    209 H209       -2.9408  -28.9052  -51.9540 H         1 UNK         0.0600 
    210 H210       -6.1843  -27.2176  -51.2212 H         1 UNK         0.3000 
    211 H211       -5.8198  -24.4773  -50.8994 H         1 UNK         0.0600 
    212 H212       -7.5257  -25.9908  -52.9478 H         1 UNK         0.0600 
    213 H213       -7.7356  -24.3015  -52.5021 H         1 UNK         0.0600 
    214 H214       -8.0097  -25.5576  -51.3069 H         1 UNK         0.0600 
    215 H215       -4.3738  -26.4744  -53.3415 H         1 UNK         0.3000 
    216 H216       -3.8028  -24.5345  -55.3508 H         1 UNK         0.0600 
    217 H217       -2.0415  -26.1826  -56.0198 H         1 UNK         0.0600 
    218 H218       -3.5783  -26.9785  -55.7204 H         1 UNK         0.0600 
    219 H219       -2.2883  -27.0702  -54.5203 H         1 UNK         0.0600 
    220 H220       -2.3172  -25.1634  -52.1804 H         1 UNK         0.3000 
    221 H221        0.0568  -23.5288  -52.6888 H         1 UNK         0.0600 
    222 H222       -1.1135  -24.6241  -50.0751 H         1 UNK         0.0600 
    223 H223        0.0781  -25.4502  -51.0770 H         1 UNK         0.0600 
    224 H224        0.4917  -23.9358  -50.2883 H         1 UNK         0.0600 
    225 H225       -3.2217  -23.0667  -51.4862 H         1 UNK         0.3000 
    226 H226       -2.7347  -20.4758  -50.2296 H         1 UNK         0.0600 
    227 H227       -5.1462  -20.5777  -49.7503 H         1 UNK         0.0600 
    228 H228       -5.3630  -21.9294  -50.8520 H         1 UNK         0.0600 
    229 H229       -4.4315  -22.1396  -49.3709 H         1 UNK         0.0600 
    230 H230       -3.1923  -21.4918  -53.4308 H         1 UNK         0.3000 
    231 H231       -4.9088  -19.6517  -54.5821 H         1 UNK         0.0600 
    232 H232       -2.4664  -21.0326  -55.8170 H         1 UNK         0.0600 
    233 H233       -3.8180  -20.3506  -56.7150 H         1 UNK         0.0600 
    234 H234       -4.0789  -21.7333  -55.6631 H         1 UNK         0.0600 
    235 H235       -1.8724  -18.8497  -53.2711 H         1 UNK         0.3000 
    236 H236       -1.1133  -16.5980  -54.8693 H         1 UNK         0.0600 
    237 H237        0.2639  -16.0282  -52.8776 H         1 UNK         0.0600 
    238 H238       -0.5995  -17.2139  -51.9058 H         1 UNK         0.0600 
    239 H239        0.4163  -17.7370  -53.2511 H         1 UNK         0.0600 
    240 H240       -3.6129  -17.0474  -52.4067 H         1 UNK         0.3000 
    241 H241       -4.6604  -14.4071  -52.9462 H         1 UNK         0.0600 
    242 H242       -5.3375  -17.7094  -51.9604 H         1 UNK         0.3800 
    243 H243       -7.0396  -17.3807  -51.7819 H         1 UNK         0.3800 
    244 H244       -4.7944  -13.7280  -50.4747 H         1 UNK         0.0800 
    245 H245       -3.2652  -13.5676  -51.2684 H         1 UNK         0.0800 
    246 H246       -5.0082  -14.8442  -48.1612 H         1 UNK         0.0800 
    247 H247       -5.2926  -16.2838  -49.1158 H         1 UNK         0.0800 
@<TRIPOS>BOND
     1    1    2 1    
     2    1  127 1    
     3    1  128 1    
     4    1  129 1    
     5    2    3 2    
     6    2    4 am   BACKBONE|DICT|INTERRES
     7    4    5 1    
     8    4  130 1    
     9    5    6 1    
    10    5   65 1    
    11    5  131 1    
    12    6    7 1    
    13    6  132 1    
    14    6  133 1    
    15    7    8 1    
    16    8    9 1    
    17    8  134 1    
    18    8  135 1    
    19    9   10 ar   
    20    9   14 ar   
    21   10   11 ar   
    22   10  136 1    
    23   11   12 ar   
    24   11  126 1    
    25   12   13 ar   
    26   12  137 1    
    27   13   14 ar   
    28   13   15 1    
    29   14  138 1    
    30   15   16 1    
    31   15  139 1    
    32   15  140 1    
    33   16   17 1    
    34   17   18 1    
    35   17  141 1    
    36   17  142 1    
    37   18   19 1    
    38   18   67 1    
    39   18  143 1    
    40   19   20 am   BACKBONE|DICT|INTERRES
    41   19  144 1    
    42   20   21 2    
    43   20   22 1    
    44   22   23 1    
    45   22   24 1    
    46   22  145 1    
    47   23  146 1    
    48   23  147 1    
    49   23  148 1    
    50   24   25 am   BACKBONE|DICT|INTERRES
    51   24  149 1    
    52   25   26 2    
    53   25   27 1    
    54   27   28 1    
    55   27   29 1    
    56   27  150 1    
    57   28  151 1    
    58   28  152 1    
    59   28  153 1    
    60   29   30 am   BACKBONE|DICT|INTERRES
    61   29  154 1    
    62   30   31 2    
    63   30   32 1    
    64   32   33 1    
    65   32   34 1    
    66   32  155 1    
    67   33  156 1    
    68   33  157 1    
    69   33  158 1    
    70   34   35 am   BACKBONE|DICT|INTERRES
    71   34  159 1    
    72   35   36 2    
    73   35   37 1    
    74   37   38 1    
    75   37   39 1    
    76   37  160 1    
    77   38  161 1    
    78   38  162 1    
    79   38  163 1    
    80   39   40 am   BACKBONE|DICT|INTERRES
    81   39  164 1    
    82   40   41 2    
    83   40   42 1    
    84   42   43 1    
    85   42   44 1    
    86   42  165 1    
    87   43  166 1    
    88   43  167 1    
    89   43  168 1    
    90   44   45 am   BACKBONE|DICT|INTERRES
    91   44  169 1    
    92   45   46 2    
    93   45   47 1    
    94   47   48 1    
    95   47   49 1    
    96   47  170 1    
    97   48  171 1    
    98   48  172 1    
    99   48  173 1    
   100   49   50 am   BACKBONE|DICT|INTERRES
   101   49  174 1    
   102   50   51 2    
   103   50   52 1    
   104   52   53 1    
   105   52   54 1    
   106   52  175 1    
   107   53  176 1    
   108   53  177 1    
   109   53  178 1    
   110   54   55 am   BACKBONE|DICT|INTERRES
   111   54  179 1    
   112   55   56 2    
   113   55   57 1    
   114   57   58 1    
   115   57   59 1    
   116   57  180 1    
   117   58  181 1    
   118   58  182 1    
   119   58  183 1    
   120   59   60 am   BACKBONE|DICT|INTERRES
   121   59  184 1    
   122   60   61 2    
   123   60   62 1    
   124   62   63 1    
   125   62   64 1    
   126   62  185 1    
   127   63  186 1    
   128   63  187 1    
   129   63  188 1    
   130   64   65 am   BACKBONE|DICT|INTERRES
   131   64  189 1    
   132   65   66 2    
   133   67   68 2    
   134   67   69 am   BACKBONE|DICT|INTERRES
   135   69   70 1    
   136   69  190 1    
   137   70   71 1    
   138   70   72 1    
   139   70  191 1    
   140   71  192 1    
   141   71  193 1    
   142   71  194 1    
   143   72   73 2    
   144   72   74 am   BACKBONE|DICT|INTERRES
   145   74   75 1    
   146   74  195 1    
   147   75   76 1    
   148   75   77 1    
   149   75  196 1    
   150   76  197 1    
   151   76  198 1    
   152   76  199 1    
   153   77   78 2    
   154   77   79 am   BACKBONE|DICT|INTERRES
   155   79   80 1    
   156   79  200 1    
   157   80   81 1    
   158   80   82 1    
   159   80  201 1    
   160   81  202 1    
   161   81  203 1    
   162   81  204 1    
   163   82   83 2    
   164   82   84 am   BACKBONE|DICT|INTERRES
   165   84   85 1    
   166   84  205 1    
   167   85   86 1    
   168   85   87 1    
   169   85  206 1    
   170   86  207 1    
   171   86  208 1    
   172   86  209 1    
   173   87   88 2    
   174   87   89 am   BACKBONE|DICT|INTERRES
   175   89   90 1    
   176   89  210 1    
   177   90   91 1    
   178   90   92 1    
   179   90  211 1    
   180   91  212 1    
   181   91  213 1    
   182   91  214 1    
   183   92   93 2    
   184   92   94 am   BACKBONE|DICT|INTERRES
   185   94   95 1    
   186   94  215 1    
   187   95   96 1    
   188   95   97 1    
   189   95  216 1    
   190   96  217 1    
   191   96  218 1    
   192   96  219 1    
   193   97   98 2    
   194   97   99 am   BACKBONE|DICT|INTERRES
   195   99  100 1    
   196   99  220 1    
   197  100  101 1    
   198  100  102 1    
   199  100  221 1    
   200  101  222 1    
   201  101  223 1    
   202  101  224 1    
   203  102  103 2    
   204  102  104 am   BACKBONE|DICT|INTERRES
   205  104  105 1    
   206  104  225 1    
   207  105  106 1    
   208  105  107 1    
   209  105  226 1    
   210  106  227 1    
   211  106  228 1    
   212  106  229 1    
   213  107  108 2    
   214  107  109 am   BACKBONE|DICT|INTERRES
   215  109  110 1    
   216  109  230 1    
   217  110  111 1    
   218  110  112 1    
   219  110  231 1    
   220  111  232 1    
   221  111  233 1    
   222  111  234 1    
   223  112  113 2    
   224  112  114 am   BACKBONE|DICT|INTERRES
   225  114  115 1    
   226  114  235 1    
   227  115  116 1    
   228  115  117 1    
   229  115  236 1    
   230  116  237 1    
   231  116  238 1    
   232  116  239 1    
   233  117  118 2    
   234  117  119 am   BACKBONE|DICT|INTERRES
   235  119  120 1    
   236  119  240 1    
   237  120  121 1    
   238  120  124 1    
   239  120  241 1    
   240  121  122 am   BACKBONE|DICT|INTERRES
   241  121  123 2    
   242  122  242 1    
   243  122  243 1    
   244  124  125 1    
   245  124  244 1    
   246  124  245 1    
   247  125  126 1    
   248  126  246 1    
   249  126  247 1    
@<TRIPOS>SUBSTRUCTURE
     1 UNK         1 GROUP             0       ****    0 ROOT    
