@<TRIPOS>MOLECULE
3R540
247   249    1
SMALL
USER_CHARGES


@<TRIPOS>ATOM
      1 CA          4.6549  -16.2653  -46.1295 C.3       0 UNK        -0.1800 
      2 C           4.1529  -15.7115  -47.4551 C.2       0 UNK         0.5000 
      3 O           4.9437  -15.1680  -48.2255 O.2       0 UNK        -0.5000 
      4 N           2.8515  -15.8720  -47.7273 N.am      1 UNK        -0.5000 
      5 CA          2.1552  -15.4541  -48.9491 C.3       1 UNK         0.1400 
      6 C6          2.6398  -16.1938  -50.2319 C.3       23 UNK        -0.0398 
      7 S7          2.2178  -17.9659  -50.2023 S.3       23 UNK        -0.2404 
      8 C8          3.7758  -18.7306  -49.6638 C.3       23 UNK        -0.0205 
      9 C9          3.5165  -19.9488  -48.7917 C.ar      23 UNK        -0.0193 
     10 C10         3.2355  -19.7883  -47.4310 C.ar      23 UNK        -0.1150 
     11 C11         3.0373  -20.9010  -46.6087 C.ar      23 UNK        -0.0193 
     12 C12         3.1264  -22.1824  -47.1584 C.ar      23 UNK        -0.1150 
     13 C13         3.3798  -22.3569  -48.5224 C.ar      23 UNK        -0.0193 
     14 C14         3.5733  -21.2355  -49.3347 C.ar      23 UNK        -0.1150 
     15 C15         3.4745  -23.7557  -49.1141 C.3       23 UNK        -0.0205 
     16 S16         1.9208  -24.2817  -49.9056 S.3       23 UNK        -0.2404 
     17 C17         0.8162  -24.5326  -48.4659 C.3       23 UNK        -0.0398 
     18 CA         -0.4322  -23.6117  -48.4470 C.3       11 UNK         0.1400 
     19 N          -0.0642  -22.1964  -48.5141 N.am      11 UNK        -0.5000 
     20 C          -0.7780  -21.1802  -48.0182 C.2       10 UNK         0.5000 
     21 O          -1.7106  -21.3250  -47.2270 O.2       10 UNK        -0.5000 
     22 CA         -0.3817  -19.7908  -48.5436 C.3       10 UNK         0.1400 
     23 CB         -1.0596  -19.5134  -49.9022 C.3       10 UNK        -0.1800 
     24 N          -0.5945  -18.6738  -47.6159 N.am      10 UNK        -0.5000 
     25 C          -1.7489  -18.1164  -47.2284 C.2       9 UNK         0.5000 
     26 O          -2.8629  -18.5643  -47.4991 O.2       9 UNK        -0.5000 
     27 CA         -1.6222  -16.7989  -46.4343 C.3       9 UNK         0.1400 
     28 CB         -2.9720  -16.0844  -46.2467 C.3       9 UNK        -0.1800 
     29 N          -1.0126  -16.9920  -45.1224 N.am      9 UNK        -0.5000 
     30 C           0.2959  -17.1388  -44.8785 C.2       8 UNK         0.5000 
     31 O           1.1482  -17.1563  -45.7709 O.2       8 UNK        -0.5000 
     32 CA          0.7229  -17.2732  -43.4009 C.3       8 UNK         0.1400 
     33 CB          1.9296  -16.3786  -43.0768 C.3       8 UNK        -0.1800 
     34 N          -0.3626  -16.9147  -42.4877 N.am      8 UNK        -0.5000 
     35 C          -1.0418  -17.7594  -41.7010 C.2       7 UNK         0.5000 
     36 O          -0.8417  -18.9729  -41.6699 O.2       7 UNK        -0.5000 
     37 CA         -2.1222  -17.1535  -40.7787 C.3       7 UNK         0.1400 
     38 CB         -1.6276  -17.1245  -39.3241 C.3       7 UNK        -0.1800 
     39 N          -2.5266  -15.7981  -41.1598 N.am      7 UNK        -0.5000 
     40 C          -3.2986  -15.4987  -42.2129 C.2       6 UNK         0.5000 
     41 O          -3.8025  -16.3456  -42.9475 O.2       6 UNK        -0.5000 
     42 CA         -3.5078  -14.0028  -42.5249 C.3       6 UNK         0.1400 
     43 CB         -4.7981  -13.4934  -41.8655 C.3       6 UNK        -0.1800 
     44 N          -2.3900  -13.1373  -42.1271 N.am      6 UNK        -0.5000 
     45 C          -1.1317  -13.2532  -42.5725 C.2       5 UNK         0.5000 
     46 O          -0.7570  -14.1573  -43.3216 O.2       5 UNK        -0.5000 
     47 CA         -0.1155  -12.2245  -42.0397 C.3       5 UNK         0.1400 
     48 CB          0.3489  -12.6237  -40.6298 C.3       5 UNK        -0.1800 
     49 N           1.0624  -12.1130  -42.9021 N.am      5 UNK        -0.5000 
     50 C           1.0550  -11.6370  -44.1534 C.2       4 UNK         0.5000 
     51 O           0.0617  -11.1369  -44.6900 O.2       4 UNK        -0.5000 
     52 CA          2.3847  -11.7575  -44.9213 C.3       4 UNK         0.1400 
     53 CB          2.7336  -13.2265  -45.2021 C.3       4 UNK        -0.1800 
     54 N           2.3299  -11.0471  -46.1963 N.am      4 UNK        -0.5000 
     55 C           2.6218   -9.7505  -46.3580 C.2       3 UNK         0.5000 
     56 O           2.9990   -9.0248  -45.4355 O.2       3 UNK        -0.5000 
     57 CA          2.4550   -9.1535  -47.7746 C.3       3 UNK         0.1400 
     58 CB          3.5273   -8.0907  -48.0951 C.3       3 UNK        -0.1800 
     59 N           2.3717  -10.1475  -48.8536 N.am      3 UNK        -0.5000 
     60 C           3.3118  -11.0238  -49.2364 C.2       2 UNK         0.5000 
     61 O           4.4239  -11.1292  -48.7158 O.2       2 UNK        -0.5000 
     62 CA          2.9263  -11.9469  -50.4074 C.3       2 UNK         0.1400 
     63 CB          3.8809  -11.7556  -51.5968 C.3       2 UNK        -0.1800 
     64 N           2.9027  -13.3621  -50.0361 N.am      2 UNK        -0.5000 
     65 C           2.1378  -13.9131  -49.0818 C.2       1 UNK         0.5000 
     66 O           1.3991  -13.2595  -48.3417 O.2       1 UNK        -0.5000 
     67 C          -1.3883  -23.9446  -49.6098 C.2       11 UNK         0.5000 
     68 O          -1.5028  -23.1567  -50.5511 O.2       11 UNK        -0.5000 
     69 N          -2.0299  -25.1206  -49.5583 N.am      12 UNK        -0.5000 
     70 CA         -2.9641  -25.6048  -50.5822 C.3       12 UNK         0.1400 
     71 CB         -3.5198  -26.9735  -50.1654 C.3       12 UNK        -0.1800 
     72 C          -2.3691  -25.6681  -52.0015 C.2       12 UNK         0.5000 
     73 O          -3.0705  -25.3445  -52.9593 O.2       12 UNK        -0.5000 
     74 N          -1.0840  -26.0315  -52.1057 N.am      13 UNK        -0.5000 
     75 CA         -0.3378  -26.0772  -53.3640 C.3       13 UNK         0.1400 
     76 CB          0.9914  -26.8123  -53.1339 C.3       13 UNK        -0.1800 
     77 C          -0.0857  -24.6839  -53.9725 C.2       13 UNK         0.5000 
     78 O          -0.1095  -24.5457  -55.1958 O.2       13 UNK        -0.5000 
     79 N           0.1441  -23.6816  -53.1142 N.am      14 UNK        -0.5000 
     80 CA          0.3760  -22.2922  -53.5082 C.3       14 UNK         0.1400 
     81 CB          1.2112  -21.5919  -52.4238 C.3       14 UNK        -0.1800 
     82 C          -0.9412  -21.5415  -53.7743 C.2       14 UNK         0.5000 
     83 O          -1.0131  -20.7538  -54.7180 O.2       14 UNK        -0.5000 
     84 N          -1.9614  -21.8089  -52.9488 N.am      15 UNK        -0.5000 
     85 CA         -3.2946  -21.2122  -53.0343 C.3       15 UNK         0.1400 
     86 CB         -4.0302  -21.4705  -51.7103 C.3       15 UNK        -0.1800 
     87 C          -4.1436  -21.7582  -54.1968 C.2       15 UNK         0.5000 
     88 O          -5.0768  -21.0775  -54.6226 O.2       15 UNK        -0.5000 
     89 N          -3.8291  -22.9823  -54.6489 N.am      16 UNK        -0.5000 
     90 CA         -4.6393  -23.8395  -55.5225 C.3       16 UNK         0.1400 
     91 CB         -4.8572  -23.2056  -56.9129 C.3       16 UNK        -0.1800 
     92 C          -5.9451  -24.2682  -54.8170 C.2       16 UNK         0.5000 
     93 O          -7.0257  -24.2092  -55.4074 O.2       16 UNK        -0.5000 
     94 N          -5.7853  -24.6914  -53.5530 N.am      17 UNK        -0.5000 
     95 CA         -6.7978  -25.0932  -52.5709 C.3       17 UNK         0.1400 
     96 CB         -7.5932  -26.3129  -53.0814 C.3       17 UNK        -0.1800 
     97 C          -7.7305  -23.9474  -52.1169 C.2       17 UNK         0.5000 
     98 O          -7.6761  -22.8354  -52.6458 O.2       17 UNK        -0.5000 
     99 N          -8.5642  -24.2531  -51.1112 N.am      18 UNK        -0.5000 
    100 CA        -9.6542  -23.4595  -50.5212 C.3       18 UNK         0.1400 
    101 CB       -10.7455  -23.1590  -51.5666 C.3       18 UNK        -0.1800 
    102 C         -9.2343  -22.1719  -49.7824 C.2       18 UNK         0.5000 
    103 O         -9.6789  -21.9522  -48.6556 O.2       18 UNK        -0.5000 
    104 N         -8.4043  -21.3415  -50.4206 N.am      19 UNK        -0.5000 
    105 CA        -7.9703  -20.0311  -49.9284 C.3       19 UNK         0.1400 
    106 CB        -7.6672  -19.1356  -51.1416 C.3       19 UNK        -0.1800 
    107 C         -6.7600  -20.0943  -48.9737 C.2       19 UNK         0.5000 
    108 O         -6.3771  -19.0609  -48.4248 O.2       19 UNK        -0.5000 
    109 N         -6.1694  -21.2854  -48.8145 N.am      20 UNK        -0.5000 
    110 CA        -4.9871  -21.5531  -47.9967 C.3       20 UNK         0.1400 
    111 CB        -4.5584  -23.0063  -48.2408 C.3       20 UNK        -0.1800 
    112 C         -5.2036  -21.3264  -46.4888 C.2       20 UNK         0.5000 
    113 O         -6.3179  -21.4969  -45.9871 O.2       20 UNK        -0.5000 
    114 N         -4.1049  -21.0158  -45.7964 N.am      21 UNK        -0.5000 
    115 CA        -4.0200  -20.8655  -44.3452 C.3       21 UNK         0.1400 
    116 CB        -3.7351  -19.3957  -44.0108 C.3       21 UNK        -0.1800 
    117 C         -2.9291  -21.7659  -43.7387 C.2       21 UNK         0.5000 
    118 O         -3.0715  -22.1787  -42.5871 O.2       21 UNK        -0.5000 
    119 N         -1.8720  -22.0676  -44.5061 N.am      22 UNK        -0.5000 
    120 CA        -0.7250  -22.8840  -44.0691 C.3       22 UNK         0.1400 
    121 C         -0.9729  -24.4198  -44.1414 C.2       22 UNK         0.5000 
    122 N         -2.0912  -24.8925  -44.6792 N.am      22 UNK        -0.7600 
    123 O         -0.1341  -25.1994  -43.6988 O.2       22 UNK        -0.5000 
    124 C124        0.5814  -22.5108  -44.8194 C.3       23 UNK        -0.0398 
    125 S125        0.9767  -20.7320  -44.7501 S.3       23 UNK        -0.2404 
    126 C126        2.7583  -20.7182  -45.1234 C.3       23 UNK        -0.0205 
    127 H127        5.5745  -16.8299  -46.2826 H         1 UNK         0.0600 
    128 H128        3.9262  -16.9342  -45.6740 H         1 UNK         0.0600 
    129 H129        4.8630  -15.4540  -45.4326 H         1 UNK         0.0600 
    130 H130        2.2569  -16.3083  -47.0258 H         1 UNK         0.3000 
    131 H131        1.1115  -15.7338  -48.7953 H         1 UNK         0.0600 
    132 H132        2.1485  -15.7810  -51.1148 H         1 UNK         0.0800 
    133 H133        3.7110  -16.0712  -50.3954 H         1 UNK         0.0800 
    134 H134        4.3821  -18.0173  -49.1070 H         1 UNK         0.0800 
    135 H135        4.3611  -19.0032  -50.5431 H         1 UNK         0.0800 
    136 H136        3.1746  -18.7946  -47.0116 H         1 UNK         0.1150 
    137 H137        2.9969  -23.0448  -46.5208 H         1 UNK         0.1150 
    138 H138        3.7819  -21.3662  -50.3874 H         1 UNK         0.1150 
    139 H139        4.2702  -23.7790  -49.8600 H         1 UNK         0.0800 
    140 H140        3.7588  -24.4798  -48.3490 H         1 UNK         0.0800 
    141 H141        1.3807  -24.3909  -47.5458 H         1 UNK         0.0800 
    142 H142        0.5212  -25.5829  -48.4470 H         1 UNK         0.0800 
    143 H143       -0.9773  -23.7951  -47.5188 H         1 UNK         0.0600 
    144 H144        0.6887  -21.9917  -49.1548 H         1 UNK         0.3000 
    145 H145        0.6928  -19.8245  -48.7075 H         1 UNK         0.0600 
    146 H146       -0.7218  -18.5706  -50.3309 H         1 UNK         0.0600 
    147 H147       -0.8369  -20.2964  -50.6247 H         1 UNK         0.0600 
    148 H148       -2.1444  -19.4668  -49.8143 H         1 UNK         0.0600 
    149 H149        0.2519  -18.2604  -47.2400 H         1 UNK         0.3000 
    150 H150       -0.9830  -16.1317  -47.0170 H         1 UNK         0.0600 
    151 H151       -3.4391  -15.8726  -47.2091 H         1 UNK         0.0600 
    152 H152       -2.8448  -15.1328  -45.7303 H         1 UNK         0.0600 
    153 H153       -3.6715  -16.6893  -45.6690 H         1 UNK         0.0600 
    154 H154       -1.6444  -16.9968  -44.3345 H         1 UNK         0.3000 
    155 H155        1.0249  -18.3081  -43.2420 H         1 UNK         0.0600 
    156 H156        1.6961  -15.3267  -43.2360 H         1 UNK         0.0600 
    157 H157        2.7889  -16.6288  -43.6969 H         1 UNK         0.0600 
    158 H158        2.2381  -16.4973  -42.0381 H         1 UNK         0.0600 
    159 H159       -0.6247  -15.9337  -42.5058 H         1 UNK         0.3000 
    160 H160       -2.9980  -17.8040  -40.8290 H         1 UNK         0.0600 
    161 H161       -0.7537  -16.4819  -39.2092 H         1 UNK         0.0600 
    162 H162       -1.3474  -18.1231  -38.9859 H         1 UNK         0.0600 
    163 H163       -2.4037  -16.7614  -38.6501 H         1 UNK         0.0600 
    164 H164       -2.1537  -15.0399  -40.6079 H         1 UNK         0.3000 
    165 H165       -3.6206  -13.9129  -43.6072 H         1 UNK         0.0600 
    166 H166       -5.0143  -12.4665  -42.1608 H         1 UNK         0.0600 
    167 H167       -5.6544  -14.1014  -42.1611 H         1 UNK         0.0600 
    168 H168       -4.7333  -13.5248  -40.7772 H         1 UNK         0.0600 
    169 H169       -2.6157  -12.3811  -41.4967 H         1 UNK         0.3000 
    170 H170       -0.6007  -11.2474  -41.9925 H         1 UNK         0.0600 
    171 H171       -0.4918  -12.6763  -39.9370 H         1 UNK         0.0600 
    172 H172        0.8368  -13.5996  -40.6282 H         1 UNK         0.0600 
    173 H173        1.0529  -11.8960  -40.2254 H         1 UNK         0.0600 
    174 H174        1.9118  -12.5244  -42.5453 H         1 UNK         0.3000 
    175 H175        3.1783  -11.3306  -44.3044 H         1 UNK         0.0600 
    176 H176        1.9001  -13.7648  -45.6561 H         1 UNK         0.0600 
    177 H177        3.5882  -13.2990  -45.8742 H         1 UNK         0.0600 
    178 H178        3.0056  -13.7463  -44.2844 H         1 UNK         0.0600 
    179 H179        1.9835  -11.5751  -46.9883 H         1 UNK         0.3000 
    180 H180        1.4892   -8.6464  -47.7646 H         1 UNK         0.0600 
    181 H181        4.5348   -8.5050  -48.0497 H         1 UNK         0.0600 
    182 H182        3.4839   -7.2625  -47.3868 H         1 UNK         0.0600 
    183 H183        3.3815   -7.6702  -49.0901 H         1 UNK         0.0600 
    184 H184        1.4825  -10.1747  -49.3337 H         1 UNK         0.3000 
    185 H185        1.9211  -11.6847  -50.7439 H         1 UNK         0.0600 
    186 H186        3.5602  -12.3398  -52.4596 H         1 UNK         0.0600 
    187 H187        3.9132  -10.7103  -51.9069 H         1 UNK         0.0600 
    188 H188        4.8997  -12.0554  -51.3476 H         1 UNK         0.0600 
    189 H189        3.5374  -13.9583  -50.5453 H         1 UNK         0.3000 
    190 H190       -1.8909  -25.7269  -48.7630 H         1 UNK         0.3000 
    191 H191       -3.8005  -24.9069  -50.6251 H         1 UNK         0.0600 
    192 H192       -2.7276  -27.7163  -50.0643 H         1 UNK         0.0600 
    193 H193       -4.2301  -27.3489  -50.9035 H         1 UNK         0.0600 
    194 H194       -4.0467  -26.9115  -49.2130 H         1 UNK         0.0600 
    195 H195       -0.5783  -26.2703  -51.2658 H         1 UNK         0.3000 
    196 H196       -0.9242  -26.6516  -54.0845 H         1 UNK         0.0600 
    197 H197        1.5629  -26.8846  -54.0601 H         1 UNK         0.0600 
    198 H198        0.8238  -27.8284  -52.7765 H         1 UNK         0.0600 
    199 H199        1.6158  -26.2973  -52.4026 H         1 UNK         0.0600 
    200 H200        0.0996  -23.8694  -52.1224 H         1 UNK         0.3000 
    201 H201        0.9554  -22.2751  -54.4338 H         1 UNK         0.0600 
    202 H202        2.2134  -22.0172  -52.3704 H         1 UNK         0.0600 
    203 H203        0.7607  -21.6939  -51.4377 H         1 UNK         0.0600 
    204 H204        1.3205  -20.5265  -52.6308 H         1 UNK         0.0600 
    205 H205       -1.7956  -22.4242  -52.1540 H         1 UNK         0.3000 
    206 H206       -3.1853  -20.1341  -53.1684 H         1 UNK         0.0600 
    207 H207       -3.4706  -21.0892  -50.8576 H         1 UNK         0.0600 
    208 H208       -5.0067  -20.9872  -51.7025 H         1 UNK         0.0600 
    209 H209       -4.1945  -22.5365  -51.5527 H         1 UNK         0.0600 
    210 H210       -3.0554  -23.4515  -54.1958 H         1 UNK         0.3000 
    211 H211       -4.0595  -24.7519  -55.6703 H         1 UNK         0.0600 
    212 H212       -5.5079  -22.3322  -56.8696 H         1 UNK         0.0600 
    213 H213       -5.3211  -23.9198  -57.5939 H         1 UNK         0.0600 
    214 H214       -3.9110  -22.8988  -57.3585 H         1 UNK         0.0600 
    215 H215       -4.8257  -24.7417  -53.2225 H         1 UNK         0.3000 
    216 H216       -6.2376  -25.4055  -51.6884 H         1 UNK         0.0600 
    217 H217       -8.2139  -26.7423  -52.2946 H         1 UNK         0.0600 
    218 H218       -6.9250  -27.1020  -53.4265 H         1 UNK         0.0600 
    219 H219       -8.2546  -26.0497  -53.9074 H         1 UNK         0.0600 
    220 H220       -8.4837  -25.1812  -50.7197 H         1 UNK         0.3000 
    221 H221      -10.1051  -24.1079  -49.7681 H         1 UNK         0.0600 
    222 H222      -10.3774  -22.5186  -52.3687 H         1 UNK         0.0600 
    223 H223      -11.1219  -24.0771  -52.0176 H         1 UNK         0.0600 
    224 H224      -11.5947  -22.6505  -51.1084 H         1 UNK         0.0600 
    225 H225       -8.0742  -21.6288  -51.3405 H         1 UNK         0.3000 
    226 H226       -8.7907  -19.5730  -49.3720 H         1 UNK         0.0600 
    227 H227       -8.5501  -19.0144  -51.7695 H         1 UNK         0.0600 
    228 H228       -7.3548  -18.1385  -50.8287 H         1 UNK         0.0600 
    229 H229       -6.8725  -19.5499  -51.7620 H         1 UNK         0.0600 
    230 H230       -6.5865  -22.0760  -49.2798 H         1 UNK         0.3000 
    231 H231       -4.1914  -20.8874  -48.3380 H         1 UNK         0.0600 
    232 H232       -3.6705  -23.2591  -47.6608 H         1 UNK         0.0600 
    233 H233       -4.3176  -23.1628  -49.2887 H         1 UNK         0.0600 
    234 H234       -5.3426  -23.7121  -47.9644 H         1 UNK         0.0600 
    235 H235       -3.2358  -20.9083  -46.3165 H         1 UNK         0.3000 
    236 H236       -4.9666  -21.1469  -43.8797 H         1 UNK         0.0600 
    237 H237       -2.7761  -19.0739  -44.4160 H         1 UNK         0.0600 
    238 H238       -4.5075  -18.7413  -44.4148 H         1 UNK         0.0600 
    239 H239       -3.7054  -19.2386  -42.9321 H         1 UNK         0.0600 
    240 H240       -1.8144  -21.7078  -45.4549 H         1 UNK         0.3000 
    241 H241       -0.5518  -22.6659  -43.0135 H         1 UNK         0.0600 
    242 H242       -2.8012  -24.2625  -45.0140 H         1 UNK         0.3800 
    243 H243       -2.2458  -25.8880  -44.7064 H         1 UNK         0.3800 
    244 H244        0.5181  -22.8040  -45.8645 H         1 UNK         0.0800 
    245 H245        1.4228  -23.0633  -44.3982 H         1 UNK         0.0800 
    246 H246        3.2685  -21.4883  -44.5431 H         1 UNK         0.0800 
    247 H247        3.1710  -19.7657  -44.7871 H         1 UNK         0.0800 
@<TRIPOS>BOND
     1    1    2 1    
     2    1  127 1    
     3    1  128 1    
     4    1  129 1    
     5    2    3 2    
     6    2    4 am   BACKBONE|DICT|INTERRES
     7    4    5 1    
     8    4  130 1    
     9    5    6 1    
    10    5   65 1    
    11    5  131 1    
    12    6    7 1    
    13    6  132 1    
    14    6  133 1    
    15    7    8 1    
    16    8    9 1    
    17    8  134 1    
    18    8  135 1    
    19    9   10 ar   
    20    9   14 ar   
    21   10   11 ar   
    22   10  136 1    
    23   11   12 ar   
    24   11  126 1    
    25   12   13 ar   
    26   12  137 1    
    27   13   14 ar   
    28   13   15 1    
    29   14  138 1    
    30   15   16 1    
    31   15  139 1    
    32   15  140 1    
    33   16   17 1    
    34   17   18 1    
    35   17  141 1    
    36   17  142 1    
    37   18   19 1    
    38   18   67 1    
    39   18  143 1    
    40   19   20 am   BACKBONE|DICT|INTERRES
    41   19  144 1    
    42   20   21 2    
    43   20   22 1    
    44   22   23 1    
    45   22   24 1    
    46   22  145 1    
    47   23  146 1    
    48   23  147 1    
    49   23  148 1    
    50   24   25 am   BACKBONE|DICT|INTERRES
    51   24  149 1    
    52   25   26 2    
    53   25   27 1    
    54   27   28 1    
    55   27   29 1    
    56   27  150 1    
    57   28  151 1    
    58   28  152 1    
    59   28  153 1    
    60   29   30 am   BACKBONE|DICT|INTERRES
    61   29  154 1    
    62   30   31 2    
    63   30   32 1    
    64   32   33 1    
    65   32   34 1    
    66   32  155 1    
    67   33  156 1    
    68   33  157 1    
    69   33  158 1    
    70   34   35 am   BACKBONE|DICT|INTERRES
    71   34  159 1    
    72   35   36 2    
    73   35   37 1    
    74   37   38 1    
    75   37   39 1    
    76   37  160 1    
    77   38  161 1    
    78   38  162 1    
    79   38  163 1    
    80   39   40 am   BACKBONE|DICT|INTERRES
    81   39  164 1    
    82   40   41 2    
    83   40   42 1    
    84   42   43 1    
    85   42   44 1    
    86   42  165 1    
    87   43  166 1    
    88   43  167 1    
    89   43  168 1    
    90   44   45 am   BACKBONE|DICT|INTERRES
    91   44  169 1    
    92   45   46 2    
    93   45   47 1    
    94   47   48 1    
    95   47   49 1    
    96   47  170 1    
    97   48  171 1    
    98   48  172 1    
    99   48  173 1    
   100   49   50 am   BACKBONE|DICT|INTERRES
   101   49  174 1    
   102   50   51 2    
   103   50   52 1    
   104   52   53 1    
   105   52   54 1    
   106   52  175 1    
   107   53  176 1    
   108   53  177 1    
   109   53  178 1    
   110   54   55 am   BACKBONE|DICT|INTERRES
   111   54  179 1    
   112   55   56 2    
   113   55   57 1    
   114   57   58 1    
   115   57   59 1    
   116   57  180 1    
   117   58  181 1    
   118   58  182 1    
   119   58  183 1    
   120   59   60 am   BACKBONE|DICT|INTERRES
   121   59  184 1    
   122   60   61 2    
   123   60   62 1    
   124   62   63 1    
   125   62   64 1    
   126   62  185 1    
   127   63  186 1    
   128   63  187 1    
   129   63  188 1    
   130   64   65 am   BACKBONE|DICT|INTERRES
   131   64  189 1    
   132   65   66 2    
   133   67   68 2    
   134   67   69 am   BACKBONE|DICT|INTERRES
   135   69   70 1    
   136   69  190 1    
   137   70   71 1    
   138   70   72 1    
   139   70  191 1    
   140   71  192 1    
   141   71  193 1    
   142   71  194 1    
   143   72   73 2    
   144   72   74 am   BACKBONE|DICT|INTERRES
   145   74   75 1    
   146   74  195 1    
   147   75   76 1    
   148   75   77 1    
   149   75  196 1    
   150   76  197 1    
   151   76  198 1    
   152   76  199 1    
   153   77   78 2    
   154   77   79 am   BACKBONE|DICT|INTERRES
   155   79   80 1    
   156   79  200 1    
   157   80   81 1    
   158   80   82 1    
   159   80  201 1    
   160   81  202 1    
   161   81  203 1    
   162   81  204 1    
   163   82   83 2    
   164   82   84 am   BACKBONE|DICT|INTERRES
   165   84   85 1    
   166   84  205 1    
   167   85   86 1    
   168   85   87 1    
   169   85  206 1    
   170   86  207 1    
   171   86  208 1    
   172   86  209 1    
   173   87   88 2    
   174   87   89 am   BACKBONE|DICT|INTERRES
   175   89   90 1    
   176   89  210 1    
   177   90   91 1    
   178   90   92 1    
   179   90  211 1    
   180   91  212 1    
   181   91  213 1    
   182   91  214 1    
   183   92   93 2    
   184   92   94 am   BACKBONE|DICT|INTERRES
   185   94   95 1    
   186   94  215 1    
   187   95   96 1    
   188   95   97 1    
   189   95  216 1    
   190   96  217 1    
   191   96  218 1    
   192   96  219 1    
   193   97   98 2    
   194   97   99 am   BACKBONE|DICT|INTERRES
   195   99  100 1    
   196   99  220 1    
   197  100  101 1    
   198  100  102 1    
   199  100  221 1    
   200  101  222 1    
   201  101  223 1    
   202  101  224 1    
   203  102  103 2    
   204  102  104 am   BACKBONE|DICT|INTERRES
   205  104  105 1    
   206  104  225 1    
   207  105  106 1    
   208  105  107 1    
   209  105  226 1    
   210  106  227 1    
   211  106  228 1    
   212  106  229 1    
   213  107  108 2    
   214  107  109 am   BACKBONE|DICT|INTERRES
   215  109  110 1    
   216  109  230 1    
   217  110  111 1    
   218  110  112 1    
   219  110  231 1    
   220  111  232 1    
   221  111  233 1    
   222  111  234 1    
   223  112  113 2    
   224  112  114 am   BACKBONE|DICT|INTERRES
   225  114  115 1    
   226  114  235 1    
   227  115  116 1    
   228  115  117 1    
   229  115  236 1    
   230  116  237 1    
   231  116  238 1    
   232  116  239 1    
   233  117  118 2    
   234  117  119 am   BACKBONE|DICT|INTERRES
   235  119  120 1    
   236  119  240 1    
   237  120  121 1    
   238  120  124 1    
   239  120  241 1    
   240  121  122 am   BACKBONE|DICT|INTERRES
   241  121  123 2    
   242  122  242 1    
   243  122  243 1    
   244  124  125 1    
   245  124  244 1    
   246  124  245 1    
   247  125  126 1    
   248  126  246 1    
   249  126  247 1    
@<TRIPOS>SUBSTRUCTURE
     1 UNK         1 GROUP             0       ****    0 ROOT    
