@<TRIPOS>MOLECULE
3R540
247   249    1
SMALL
USER_CHARGES


@<TRIPOS>ATOM
      1 CA         -2.9421  -10.0405  -50.5340 C.3       0 UNK        -0.1800 
      2 C          -2.0194  -10.7998  -49.5916 C.2       0 UNK         0.5000 
      3 O          -2.2682  -10.8381  -48.3866 O.2       0 UNK        -0.5000 
      4 N          -0.9600  -11.4135  -50.1345 N.am      1 UNK        -0.5000 
      5 CA          0.0372  -12.1932  -49.3884 C.3       1 UNK         0.1400 
      6 C6          1.3755  -12.3305  -50.1618 C.3       23 UNK        -0.0398 
      7 S7          1.2274  -12.9960  -51.8616 S.3       23 UNK        -0.2404 
      8 C8          2.3940  -14.3988  -51.8482 C.3       23 UNK        -0.0205 
      9 C9          1.6983  -15.7050  -51.4987 C.ar      23 UNK        -0.0193 
     10 C10         1.1924  -16.5230  -52.5135 C.ar      23 UNK        -0.1150 
     11 C11         0.5360  -17.7177  -52.2027 C.ar      23 UNK        -0.0193 
     12 C12         0.3490  -18.0668  -50.8631 C.ar      23 UNK        -0.1150 
     13 C13         0.8485  -17.2587  -49.8406 C.ar      23 UNK        -0.0193 
     14 C14         1.5498  -16.0947  -50.1654 C.ar      23 UNK        -0.1150 
     15 C15         0.5527  -17.6044  -48.3914 C.3       23 UNK        -0.0205 
     16 S16         1.4740  -19.0559  -47.8120 S.3       23 UNK        -0.2404 
     17 C17         0.6754  -19.2583  -46.1848 C.3       23 UNK        -0.0398 
     18 CA         -0.5531  -20.1877  -46.2713 C.3       11 UNK         0.1400 
     19 N          -0.1984  -21.5617  -46.6397 N.am      11 UNK        -0.5000 
     20 C          -1.0706  -22.5137  -46.9971 C.2       10 UNK         0.5000 
     21 O          -2.2860  -22.3304  -47.0654 O.2       10 UNK        -0.5000 
     22 CA         -0.4930  -23.9109  -47.2790 C.3       10 UNK         0.1400 
     23 CB          0.0088  -24.0098  -48.7247 C.3       10 UNK        -0.1800 
     24 N           0.5904  -24.2487  -46.3543 N.am      10 UNK        -0.5000 
     25 C           0.3908  -24.5786  -45.0706 C.2       9 UNK         0.5000 
     26 O          -0.7243  -24.6946  -44.5624 O.2       9 UNK        -0.5000 
     27 CA          1.6456  -24.7804  -44.1994 C.3       9 UNK         0.1400 
     28 CB          2.1564  -26.2244  -44.3159 C.3       9 UNK        -0.1800 
     29 N           2.7421  -23.8519  -44.4994 N.am      9 UNK        -0.5000 
     30 C           2.6662  -22.5197  -44.3826 C.2       8 UNK         0.5000 
     31 O           1.6264  -21.9196  -44.1021 O.2       8 UNK        -0.5000 
     32 CA          3.9563  -21.7248  -44.6608 C.3       8 UNK         0.1400 
     33 CB          4.1257  -21.4765  -46.1665 C.3       8 UNK        -0.1800 
     34 N           3.9514  -20.4394  -43.9580 N.am      8 UNK        -0.5000 
     35 C           4.1218  -20.3062  -42.6363 C.2       7 UNK         0.5000 
     36 O           4.3971  -21.2555  -41.8998 O.2       7 UNK        -0.5000 
     37 CA          3.9324  -18.9103  -42.0039 C.3       7 UNK         0.1400 
     38 CB          5.1549  -18.4962  -41.1590 C.3       7 UNK        -0.1800 
     39 N           3.5364  -17.8245  -42.9119 N.am      7 UNK        -0.5000 
     40 C           4.2612  -17.2288  -43.8727 C.2       6 UNK         0.5000 
     41 O           5.3622  -17.6329  -44.2453 O.2       6 UNK        -0.5000 
     42 CA          3.6677  -15.9597  -44.5278 C.3       6 UNK         0.1400 
     43 CB          3.1695  -16.2588  -45.9471 C.3       6 UNK        -0.1800 
     44 N           2.5705  -15.3594  -43.7640 N.am      6 UNK        -0.5000 
     45 C           2.7140  -14.7121  -42.5979 C.2       5 UNK         0.5000 
     46 O           3.8072  -14.4654  -42.0876 O.2       5 UNK        -0.5000 
     47 CA          1.4253  -14.2938  -41.8570 C.3       5 UNK         0.1400 
     48 CB          1.1241  -12.8078  -42.1050 C.3       5 UNK        -0.1800 
     49 N           0.2367  -15.0778  -42.2080 N.am      5 UNK        -0.5000 
     50 C           0.0970  -16.4056  -42.0847 C.2       4 UNK         0.5000 
     51 O           0.9736  -17.1413  -41.6314 O.2       4 UNK        -0.5000 
     52 CA         -1.2213  -17.0320  -42.5807 C.3       4 UNK         0.1400 
     53 CB         -2.0753  -17.5042  -41.3945 C.3       4 UNK        -0.1800 
     54 N          -2.0395  -16.1650  -43.4357 N.am      4 UNK        -0.5000 
     55 C          -1.6922  -15.7022  -44.6444 C.2       3 UNK         0.5000 
     56 O          -0.5893  -15.9019  -45.1594 O.2       3 UNK        -0.5000 
     57 CA         -2.7439  -14.8085  -45.3363 C.3       3 UNK         0.1400 
     58 CB         -2.7389  -13.4035  -44.7115 C.3       3 UNK        -0.1800 
     59 N          -2.5406  -14.6660  -46.7767 N.am      3 UNK        -0.5000 
     60 C          -2.6052  -15.6531  -47.6781 C.2       2 UNK         0.5000 
     61 O          -2.9265  -16.8072  -47.3973 O.2       2 UNK        -0.5000 
     62 CA         -2.2841  -15.3044  -49.1494 C.3       2 UNK         0.1400 
     63 CB         -3.5566  -15.3927  -50.0078 C.3       2 UNK        -0.1800 
     64 N          -1.6492  -14.0023  -49.3908 N.am      2 UNK        -0.5000 
     65 C          -0.4848  -13.5591  -48.8902 C.2       1 UNK         0.5000 
     66 O           0.1749  -14.1685  -48.0512 O.2       1 UNK        -0.5000 
     67 C          -1.3827  -20.1348  -44.9756 C.2       11 UNK         0.5000 
     68 O          -2.3218  -19.3459  -44.8929 O.2       11 UNK        -0.5000 
     69 N          -1.0837  -21.0242  -44.0193 N.am      12 UNK        -0.5000 
     70 CA         -1.8641  -21.2413  -42.7979 C.3       12 UNK         0.1400 
     71 CB         -1.1096  -22.2212  -41.8879 C.3       12 UNK        -0.1800 
     72 C          -3.3074  -21.7279  -43.0597 C.2       12 UNK         0.5000 
     73 O          -4.1762  -21.5171  -42.2138 O.2       12 UNK        -0.5000 
     74 N          -3.5455  -22.3236  -44.2366 N.am      13 UNK        -0.5000 
     75 CA         -4.8588  -22.7046  -44.7575 C.3       13 UNK         0.1400 
     76 CB         -4.7479  -24.0997  -45.3992 C.3       13 UNK        -0.1800 
     77 C          -5.4082  -21.6564  -45.7521 C.2       13 UNK         0.5000 
     78 O          -6.2645  -21.9910  -46.5716 O.2       13 UNK        -0.5000 
     79 N          -4.9009  -20.4153  -45.6868 N.am      14 UNK        -0.5000 
     80 CA         -5.2429  -19.2615  -46.5262 C.3       14 UNK         0.1400 
     81 CB         -6.7034  -18.8222  -46.2902 C.3       14 UNK        -0.1800 
     82 C          -4.9153  -19.4985  -48.0136 C.2       14 UNK         0.5000 
     83 O          -5.7516  -19.2363  -48.8782 O.2       14 UNK        -0.5000 
     84 N          -3.7168  -20.0415  -48.2719 N.am      15 UNK        -0.5000 
     85 CA         -3.2066  -20.4910  -49.5736 C.3       15 UNK         0.1400 
     86 CB         -3.0722  -19.3103  -50.5579 C.3       15 UNK        -0.1800 
     87 C          -4.0497  -21.6558  -50.1299 C.2       15 UNK         0.5000 
     88 O          -4.3994  -21.6596  -51.3091 O.2       15 UNK        -0.5000 
     89 N          -4.4078  -22.5922  -49.2371 N.am      16 UNK        -0.5000 
     90 CA         -5.3529  -23.6981  -49.4346 C.3       16 UNK         0.1400 
     91 CB         -4.7258  -24.7989  -50.3113 C.3       16 UNK        -0.1800 
     92 C          -6.7216  -23.2102  -49.9605 C.2       16 UNK         0.5000 
     93 O          -7.2078  -23.7000  -50.9813 O.2       16 UNK        -0.5000 
     94 N          -7.2943  -22.2293  -49.2485 N.am      17 UNK        -0.5000 
     95 CA         -8.5278  -21.5028  -49.5611 C.3       17 UNK         0.1400 
     96 CB         -9.7541  -22.4344  -49.4627 C.3       17 UNK        -0.1800 
     97 C          -8.4436  -20.7389  -50.9010 C.2       17 UNK         0.5000 
     98 O          -9.2834  -20.9314  -51.7829 O.2       17 UNK        -0.5000 
     99 N          -7.4281  -19.8702  -51.0070 N.am      18 UNK        -0.5000 
    100 CA        -7.1371  -18.9580  -52.1177 C.3       18 UNK         0.1400 
    101 CB        -8.2233  -17.8666  -52.2194 C.3       18 UNK        -0.1800 
    102 C         -6.8673  -19.6747  -53.4577 C.2       18 UNK         0.5000 
    103 O         -7.3382  -19.2290  -54.5068 O.2       18 UNK        -0.5000 
    104 N         -6.1028  -20.7691  -53.3980 N.am      19 UNK        -0.5000 
    105 CA        -5.6136  -21.5210  -54.5484 C.3       19 UNK         0.1400 
    106 CB        -5.6771  -23.0206  -54.2026 C.3       19 UNK        -0.1800 
    107 C         -4.1772  -21.0838  -54.9012 C.2       19 UNK         0.5000 
    108 O         -3.6274  -20.1613  -54.2946 O.2       19 UNK        -0.5000 
    109 N         -3.5748  -21.7824  -55.8713 N.am      20 UNK        -0.5000 
    110 CA        -2.1824  -21.6096  -56.3005 C.3       20 UNK         0.1400 
    111 CB        -2.0552  -22.1106  -57.7494 C.3       20 UNK        -0.1800 
    112 C         -1.1602  -22.3109  -55.3755 C.2       20 UNK         0.5000 
    113 O          0.0224  -22.3725  -55.7155 O.2       20 UNK        -0.5000 
    114 N         -1.6215  -22.8514  -54.2397 N.am      21 UNK        -0.5000 
    115 CA        -0.8131  -23.4988  -53.2120 C.3       21 UNK         0.1400 
    116 CB        -1.7303  -24.3790  -52.3487 C.3       21 UNK        -0.1800 
    117 C         -0.0672  -22.4445  -52.3744 C.2       21 UNK         0.5000 
    118 O         -0.5583  -22.0234  -51.3263 O.2       21 UNK        -0.5000 
    119 N          1.0911  -22.0124  -52.8794 N.am      22 UNK        -0.5000 
    120 CA         1.9622  -21.0120  -52.2427 C.3       22 UNK         0.1400 
    121 C          3.0791  -21.6253  -51.3472 C.2       22 UNK         0.5000 
    122 N          3.1465  -22.9396  -51.1697 N.am      22 UNK        -0.7600 
    123 O          3.9005  -20.8979  -50.7970 O.2       22 UNK        -0.5000 
    124 C124        2.5457  -20.0102  -53.2756 C.3       23 UNK        -0.0398 
    125 S125        1.3355  -19.2322  -54.4108 S.3       23 UNK        -0.2404 
    126 C126        0.0137  -18.6257  -53.3077 C.3       23 UNK        -0.0205 
    127 H127       -2.6012  -10.0971  -51.5681 H         1 UNK         0.0600 
    128 H128       -2.9876   -8.9897  -50.2481 H         1 UNK         0.0600 
    129 H129       -3.9501  -10.4524  -50.4850 H         1 UNK         0.0600 
    130 H130       -0.8046  -11.3586  -51.1320 H         1 UNK         0.3000 
    131 H131        0.2654  -11.6282  -48.4817 H         1 UNK         0.0600 
    132 H132        1.8337  -11.3443  -50.2463 H         1 UNK         0.0800 
    133 H133        2.0878  -12.9232  -49.5857 H         1 UNK         0.0800 
    134 H134        3.2196  -14.2081  -51.1612 H         1 UNK         0.0800 
    135 H135        2.8456  -14.4803  -52.8381 H         1 UNK         0.0800 
    136 H136        1.3146  -16.2350  -53.5483 H         1 UNK         0.1150 
    137 H137       -0.1858  -18.9711  -50.6090 H         1 UNK         0.1150 
    138 H138        1.9417  -15.4674  -49.3780 H         1 UNK         0.1150 
    139 H139        0.7637  -16.7542  -47.7416 H         1 UNK         0.0800 
    140 H140       -0.5137  -17.8061  -48.2915 H         1 UNK         0.0800 
    141 H141        0.3851  -18.2756  -45.8101 H         1 UNK         0.0800 
    142 H142        1.4085  -19.6439  -45.4763 H         1 UNK         0.0800 
    143 H143       -1.1985  -19.8006  -47.0613 H         1 UNK         0.0600 
    144 H144        0.7790  -21.8011  -46.5772 H         1 UNK         0.3000 
    145 H145       -1.2996  -24.6367  -47.1531 H         1 UNK         0.0600 
    146 H146        0.7885  -23.2775  -48.9391 H         1 UNK         0.0600 
    147 H147        0.4066  -25.0012  -48.9410 H         1 UNK         0.0600 
    148 H148       -0.8113  -23.8316  -49.4203 H         1 UNK         0.0600 
    149 H149        1.5361  -24.1868  -46.7013 H         1 UNK         0.3000 
    150 H150        1.3485  -24.6094  -43.1624 H         1 UNK         0.0600 
    151 H151        1.3669  -26.9386  -44.0778 H         1 UNK         0.0600 
    152 H152        2.9783  -26.4095  -43.6241 H         1 UNK         0.0600 
    153 H153        2.5081  -26.4477  -45.3239 H         1 UNK         0.0600 
    154 H154        3.6262  -24.2710  -44.7497 H         1 UNK         0.3000 
    155 H155        4.8090  -22.3096  -44.3091 H         1 UNK         0.0600 
    156 H156        4.2006  -22.4166  -46.7142 H         1 UNK         0.0600 
    157 H157        5.0331  -20.9087  -46.3736 H         1 UNK         0.0600 
    158 H158        3.2850  -20.9245  -46.5818 H         1 UNK         0.0600 
    159 H159        3.7343  -19.6165  -44.4985 H         1 UNK         0.3000 
    160 H160        3.0929  -19.0213  -41.3161 H         1 UNK         0.0600 
    161 H161        4.9902  -17.5343  -40.6731 H         1 UNK         0.0600 
    162 H162        6.0587  -18.4174  -41.7636 H         1 UNK         0.0600 
    163 H163        5.3537  -19.2249  -40.3723 H         1 UNK         0.0600 
    164 H164        2.6331  -17.4194  -42.6866 H         1 UNK         0.3000 
    165 H165        4.4747  -15.2277  -44.6004 H         1 UNK         0.0600 
    166 H166        2.3265  -16.9450  -45.9237 H         1 UNK         0.0600 
    167 H167        2.8445  -15.3502  -46.4548 H         1 UNK         0.0600 
    168 H168        3.9506  -16.7135  -46.5577 H         1 UNK         0.0600 
    169 H169        1.6356  -15.5001  -44.1251 H         1 UNK         0.3000 
    170 H170        1.6069  -14.4350  -40.7897 H         1 UNK         0.0600 
    171 H171        0.8999  -12.6137  -43.1548 H         1 UNK         0.0600 
    172 H172        0.2734  -12.4722  -41.5115 H         1 UNK         0.0600 
    173 H173        1.9757  -12.1840  -41.8301 H         1 UNK         0.0600 
    174 H174       -0.5360  -14.5635  -42.6030 H         1 UNK         0.3000 
    175 H175       -0.9395  -17.9062  -43.1668 H         1 UNK         0.0600 
    176 H176       -2.4019  -16.6671  -40.7764 H         1 UNK         0.0600 
    177 H177       -2.9630  -18.0376  -41.7355 H         1 UNK         0.0600 
    178 H178       -1.5148  -18.1864  -40.7536 H         1 UNK         0.0600 
    179 H179       -2.9546  -15.9345  -43.0764 H         1 UNK         0.3000 
    180 H180       -3.7264  -15.2599  -45.1840 H         1 UNK         0.0600 
    181 H181       -1.7754  -12.9094  -44.8451 H         1 UNK         0.0600 
    182 H182       -2.9424  -13.4429  -43.6407 H         1 UNK         0.0600 
    183 H183       -3.5042  -12.7695  -45.1601 H         1 UNK         0.0600 
    184 H184       -2.2247  -13.7634  -47.0983 H         1 UNK         0.3000 
    185 H185       -1.5951  -16.0651  -49.5114 H         1 UNK         0.0600 
    186 H186       -3.3260  -15.2860  -51.0680 H         1 UNK         0.0600 
    187 H187       -4.0514  -16.3572  -49.8828 H         1 UNK         0.0600 
    188 H188       -4.2760  -14.6185  -49.7382 H         1 UNK         0.0600 
    189 H189       -2.1134  -13.4050  -50.0586 H         1 UNK         0.3000 
    190 H190       -0.2441  -21.5879  -44.1291 H         1 UNK         0.3000 
    191 H191       -1.9345  -20.2848  -42.2786 H         1 UNK         0.0600 
    192 H192       -1.0063  -23.2021  -42.3514 H         1 UNK         0.0600 
    193 H193       -0.1096  -21.8539  -41.6556 H         1 UNK         0.0600 
    194 H194       -1.6343  -22.3588  -40.9417 H         1 UNK         0.0600 
    195 H195       -2.7738  -22.4404  -44.8806 H         1 UNK         0.3000 
    196 H196       -5.5786  -22.7707  -43.9397 H         1 UNK         0.0600 
    197 H197       -4.3589  -24.8285  -44.6879 H         1 UNK         0.0600 
    198 H198       -4.0874  -24.0974  -46.2660 H         1 UNK         0.0600 
    199 H199       -5.7226  -24.4608  -45.7293 H         1 UNK         0.0600 
    200 H200       -4.1509  -20.2410  -45.0273 H         1 UNK         0.3000 
    201 H201       -4.6015  -18.4445  -46.1957 H         1 UNK         0.0600 
    202 H202       -6.9194  -17.8934  -46.8195 H         1 UNK         0.0600 
    203 H203       -6.8949  -18.6442  -45.2322 H         1 UNK         0.0600 
    204 H204       -7.4165  -19.5693  -46.6396 H         1 UNK         0.0600 
    205 H205       -3.1491  -20.3026  -47.4779 H         1 UNK         0.3000 
    206 H206       -2.2052  -20.8862  -49.4001 H         1 UNK         0.0600 
    207 H207       -4.0417  -18.9182  -50.8625 H         1 UNK         0.0600 
    208 H208       -2.5520  -19.6218  -51.4642 H         1 UNK         0.0600 
    209 H209       -2.5062  -18.4912  -50.1158 H         1 UNK         0.0600 
    210 H210       -4.0388  -22.4914  -48.2991 H         1 UNK         0.3000 
    211 H211       -5.5347  -24.1269  -48.4484 H         1 UNK         0.0600 
    212 H212       -3.7459  -25.0950  -49.9368 H         1 UNK         0.0600 
    213 H213       -5.3544  -25.6898  -50.3220 H         1 UNK         0.0600 
    214 H214       -4.6110  -24.4729  -51.3442 H         1 UNK         0.0600 
    215 H215       -6.8248  -21.9392  -48.3939 H         1 UNK         0.3000 
    216 H216       -8.6344  -20.7440  -48.7844 H         1 UNK         0.0600 
    217 H217      -10.6801  -21.8717  -49.5858 H         1 UNK         0.0600 
    218 H218       -9.7405  -23.2104  -50.2284 H         1 UNK         0.0600 
    219 H219       -9.7990  -22.9239  -48.4898 H         1 UNK         0.0600 
    220 H220       -6.7938  -19.7802  -50.2131 H         1 UNK         0.3000 
    221 H221       -6.2038  -18.4588  -51.8554 H         1 UNK         0.0600 
    222 H222       -9.1863  -18.2800  -52.5204 H         1 UNK         0.0600 
    223 H223       -8.3597  -17.3573  -51.2653 H         1 UNK         0.0600 
    224 H224       -7.9486  -17.1083  -52.9535 H         1 UNK         0.0600 
    225 H225       -5.6801  -21.0295  -52.5091 H         1 UNK         0.3000 
    226 H226       -6.2476  -21.3383  -55.4181 H         1 UNK         0.0600 
    227 H227       -6.6729  -23.3017  -53.8587 H         1 UNK         0.0600 
    228 H228       -5.4513  -23.6433  -55.0684 H         1 UNK         0.0600 
    229 H229       -4.9712  -23.2825  -53.4142 H         1 UNK         0.0600 
    230 H230       -4.0848  -22.5290  -56.3213 H         1 UNK         0.3000 
    231 H231       -1.9399  -20.5449  -56.2903 H         1 UNK         0.0600 
    232 H232       -1.0516  -21.9375  -58.1400 H         1 UNK         0.0600 
    233 H233       -2.7498  -21.5904  -58.4092 H         1 UNK         0.0600 
    234 H234       -2.2567  -23.1799  -57.8239 H         1 UNK         0.0600 
    235 H235       -2.5954  -22.7143  -54.0162 H         1 UNK         0.3000 
    236 H236       -0.0783  -24.1488  -53.6919 H         1 UNK         0.0600 
    237 H237       -2.2614  -25.1144  -52.9531 H         1 UNK         0.0600 
    238 H238       -1.1556  -24.9256  -51.6007 H         1 UNK         0.0600 
    239 H239       -2.4710  -23.7787  -51.8215 H         1 UNK         0.0600 
    240 H240        1.3805  -22.3462  -53.7892 H         1 UNK         0.3000 
    241 H241        1.3632  -20.4359  -51.5418 H         1 UNK         0.0600 
    242 H242        3.8760  -23.3233  -50.5903 H         1 UNK         0.3800 
    243 H243        2.4849  -23.5525  -51.6168 H         1 UNK         0.3800 
    244 H244        3.0723  -19.2057  -52.7589 H         1 UNK         0.0800 
    245 H245        3.2942  -20.5087  -53.8933 H         1 UNK         0.0800 
    246 H246       -0.5236  -19.4794  -52.8931 H         1 UNK         0.0800 
    247 H247       -0.7150  -18.0741  -53.9029 H         1 UNK         0.0800 
@<TRIPOS>BOND
     1    1    2 1    
     2    1  127 1    
     3    1  128 1    
     4    1  129 1    
     5    2    3 2    
     6    2    4 am   BACKBONE|DICT|INTERRES
     7    4    5 1    
     8    4  130 1    
     9    5    6 1    
    10    5   65 1    
    11    5  131 1    
    12    6    7 1    
    13    6  132 1    
    14    6  133 1    
    15    7    8 1    
    16    8    9 1    
    17    8  134 1    
    18    8  135 1    
    19    9   10 ar   
    20    9   14 ar   
    21   10   11 ar   
    22   10  136 1    
    23   11   12 ar   
    24   11  126 1    
    25   12   13 ar   
    26   12  137 1    
    27   13   14 ar   
    28   13   15 1    
    29   14  138 1    
    30   15   16 1    
    31   15  139 1    
    32   15  140 1    
    33   16   17 1    
    34   17   18 1    
    35   17  141 1    
    36   17  142 1    
    37   18   19 1    
    38   18   67 1    
    39   18  143 1    
    40   19   20 am   BACKBONE|DICT|INTERRES
    41   19  144 1    
    42   20   21 2    
    43   20   22 1    
    44   22   23 1    
    45   22   24 1    
    46   22  145 1    
    47   23  146 1    
    48   23  147 1    
    49   23  148 1    
    50   24   25 am   BACKBONE|DICT|INTERRES
    51   24  149 1    
    52   25   26 2    
    53   25   27 1    
    54   27   28 1    
    55   27   29 1    
    56   27  150 1    
    57   28  151 1    
    58   28  152 1    
    59   28  153 1    
    60   29   30 am   BACKBONE|DICT|INTERRES
    61   29  154 1    
    62   30   31 2    
    63   30   32 1    
    64   32   33 1    
    65   32   34 1    
    66   32  155 1    
    67   33  156 1    
    68   33  157 1    
    69   33  158 1    
    70   34   35 am   BACKBONE|DICT|INTERRES
    71   34  159 1    
    72   35   36 2    
    73   35   37 1    
    74   37   38 1    
    75   37   39 1    
    76   37  160 1    
    77   38  161 1    
    78   38  162 1    
    79   38  163 1    
    80   39   40 am   BACKBONE|DICT|INTERRES
    81   39  164 1    
    82   40   41 2    
    83   40   42 1    
    84   42   43 1    
    85   42   44 1    
    86   42  165 1    
    87   43  166 1    
    88   43  167 1    
    89   43  168 1    
    90   44   45 am   BACKBONE|DICT|INTERRES
    91   44  169 1    
    92   45   46 2    
    93   45   47 1    
    94   47   48 1    
    95   47   49 1    
    96   47  170 1    
    97   48  171 1    
    98   48  172 1    
    99   48  173 1    
   100   49   50 am   BACKBONE|DICT|INTERRES
   101   49  174 1    
   102   50   51 2    
   103   50   52 1    
   104   52   53 1    
   105   52   54 1    
   106   52  175 1    
   107   53  176 1    
   108   53  177 1    
   109   53  178 1    
   110   54   55 am   BACKBONE|DICT|INTERRES
   111   54  179 1    
   112   55   56 2    
   113   55   57 1    
   114   57   58 1    
   115   57   59 1    
   116   57  180 1    
   117   58  181 1    
   118   58  182 1    
   119   58  183 1    
   120   59   60 am   BACKBONE|DICT|INTERRES
   121   59  184 1    
   122   60   61 2    
   123   60   62 1    
   124   62   63 1    
   125   62   64 1    
   126   62  185 1    
   127   63  186 1    
   128   63  187 1    
   129   63  188 1    
   130   64   65 am   BACKBONE|DICT|INTERRES
   131   64  189 1    
   132   65   66 2    
   133   67   68 2    
   134   67   69 am   BACKBONE|DICT|INTERRES
   135   69   70 1    
   136   69  190 1    
   137   70   71 1    
   138   70   72 1    
   139   70  191 1    
   140   71  192 1    
   141   71  193 1    
   142   71  194 1    
   143   72   73 2    
   144   72   74 am   BACKBONE|DICT|INTERRES
   145   74   75 1    
   146   74  195 1    
   147   75   76 1    
   148   75   77 1    
   149   75  196 1    
   150   76  197 1    
   151   76  198 1    
   152   76  199 1    
   153   77   78 2    
   154   77   79 am   BACKBONE|DICT|INTERRES
   155   79   80 1    
   156   79  200 1    
   157   80   81 1    
   158   80   82 1    
   159   80  201 1    
   160   81  202 1    
   161   81  203 1    
   162   81  204 1    
   163   82   83 2    
   164   82   84 am   BACKBONE|DICT|INTERRES
   165   84   85 1    
   166   84  205 1    
   167   85   86 1    
   168   85   87 1    
   169   85  206 1    
   170   86  207 1    
   171   86  208 1    
   172   86  209 1    
   173   87   88 2    
   174   87   89 am   BACKBONE|DICT|INTERRES
   175   89   90 1    
   176   89  210 1    
   177   90   91 1    
   178   90   92 1    
   179   90  211 1    
   180   91  212 1    
   181   91  213 1    
   182   91  214 1    
   183   92   93 2    
   184   92   94 am   BACKBONE|DICT|INTERRES
   185   94   95 1    
   186   94  215 1    
   187   95   96 1    
   188   95   97 1    
   189   95  216 1    
   190   96  217 1    
   191   96  218 1    
   192   96  219 1    
   193   97   98 2    
   194   97   99 am   BACKBONE|DICT|INTERRES
   195   99  100 1    
   196   99  220 1    
   197  100  101 1    
   198  100  102 1    
   199  100  221 1    
   200  101  222 1    
   201  101  223 1    
   202  101  224 1    
   203  102  103 2    
   204  102  104 am   BACKBONE|DICT|INTERRES
   205  104  105 1    
   206  104  225 1    
   207  105  106 1    
   208  105  107 1    
   209  105  226 1    
   210  106  227 1    
   211  106  228 1    
   212  106  229 1    
   213  107  108 2    
   214  107  109 am   BACKBONE|DICT|INTERRES
   215  109  110 1    
   216  109  230 1    
   217  110  111 1    
   218  110  112 1    
   219  110  231 1    
   220  111  232 1    
   221  111  233 1    
   222  111  234 1    
   223  112  113 2    
   224  112  114 am   BACKBONE|DICT|INTERRES
   225  114  115 1    
   226  114  235 1    
   227  115  116 1    
   228  115  117 1    
   229  115  236 1    
   230  116  237 1    
   231  116  238 1    
   232  116  239 1    
   233  117  118 2    
   234  117  119 am   BACKBONE|DICT|INTERRES
   235  119  120 1    
   236  119  240 1    
   237  120  121 1    
   238  120  124 1    
   239  120  241 1    
   240  121  122 am   BACKBONE|DICT|INTERRES
   241  121  123 2    
   242  122  242 1    
   243  122  243 1    
   244  124  125 1    
   245  124  244 1    
   246  124  245 1    
   247  125  126 1    
   248  126  246 1    
   249  126  247 1    
@<TRIPOS>SUBSTRUCTURE
     1 UNK         1 GROUP             0       ****    0 ROOT    
