@<TRIPOS>MOLECULE
3R540
247   249    1
SMALL
USER_CHARGES


@<TRIPOS>ATOM
      1 CA         -6.2668  -16.3610  -45.2162 C.3       0 UNK        -0.1800 
      2 C          -5.8697  -15.0559  -45.8916 C.2       0 UNK         0.5000 
      3 O          -6.4690  -14.0155  -45.6216 O.2       0 UNK        -0.5000 
      4 N          -4.8542  -15.1080  -46.7624 N.am      1 UNK        -0.5000 
      5 CA         -4.3290  -13.9652  -47.5238 C.3       1 UNK         0.1400 
      6 C6         -3.4824  -14.4282  -48.7359 C.3       23 UNK        -0.0398 
      7 S7         -4.4338  -15.4099  -49.9461 S.3       23 UNK        -0.2404 
      8 C8         -3.7122  -17.0755  -49.7540 C.3       23 UNK        -0.0205 
      9 C9         -2.2059  -17.1332  -49.9968 C.ar      23 UNK        -0.0193 
     10 C10        -1.6250  -16.4983  -51.0997 C.ar      23 UNK        -0.1150 
     11 C11        -0.2451  -16.5776  -51.3320 C.ar      23 UNK        -0.0193 
     12 C12         0.5502  -17.2948  -50.4340 C.ar      23 UNK        -0.1150 
     13 C13        -0.0134  -17.9377  -49.3300 C.ar      23 UNK        -0.0193 
     14 C14        -1.3911  -17.8501  -49.1169 C.ar      23 UNK        -0.1150 
     15 C15         0.8770  -18.7086  -48.3674 C.3       23 UNK        -0.0205 
     16 S16         1.0019  -20.4716  -48.7960 S.3       23 UNK        -0.2404 
     17 C17        -0.5719  -21.1306  -48.1528 C.3       23 UNK        -0.0398 
     18 CA         -0.3652  -22.3472  -47.2225 C.3       11 UNK         0.1400 
     19 N           0.3295  -22.0180  -45.9745 N.am      11 UNK        -0.5000 
     20 C           0.9164  -22.9292  -45.1839 C.2       10 UNK         0.5000 
     21 O           1.0020  -24.1242  -45.4667 O.2       10 UNK        -0.5000 
     22 CA          1.4568  -22.4338  -43.8288 C.3       10 UNK         0.1400 
     23 CB          2.8948  -21.9221  -43.9661 C.3       10 UNK        -0.1800 
     24 N           0.6189  -21.3884  -43.2387 N.am      10 UNK        -0.5000 
     25 C          -0.6167  -21.6138  -42.7684 C.2       9 UNK         0.5000 
     26 O          -1.1533  -22.7205  -42.7744 O.2       9 UNK        -0.5000 
     27 CA         -1.4094  -20.4083  -42.2381 C.3       9 UNK         0.1400 
     28 CB         -1.2318  -20.2842  -40.7191 C.3       9 UNK        -0.1800 
     29 N          -1.0724  -19.1456  -42.8993 N.am      9 UNK        -0.5000 
     30 C          -1.2996  -18.8944  -44.1981 C.2       8 UNK         0.5000 
     31 O          -1.7365  -19.7460  -44.9769 O.2       8 UNK        -0.5000 
     32 CA         -0.9551  -17.4959  -44.7523 C.3       8 UNK         0.1400 
     33 CB         -2.1308  -16.8857  -45.5443 C.3       8 UNK        -0.1800 
     34 N          -0.4072  -16.5520  -43.7740 N.am      8 UNK        -0.5000 
     35 C          -1.0196  -15.9451  -42.7479 C.2       7 UNK         0.5000 
     36 O          -2.2256  -16.0248  -42.5149 O.2       7 UNK        -0.5000 
     37 CA         -0.0913  -15.1343  -41.8165 C.3       7 UNK         0.1400 
     38 CB         -0.7483  -14.7759  -40.4670 C.3       7 UNK        -0.1800 
     39 N           1.2080  -15.7985  -41.6198 N.am      7 UNK        -0.5000 
     40 C           1.4015  -17.0080  -41.0719 C.2       6 UNK         0.5000 
     41 O           0.4872  -17.6934  -40.6176 O.2       6 UNK        -0.5000 
     42 CA          2.8455  -17.5505  -41.0649 C.3       6 UNK         0.1400 
     43 CB          2.9327  -19.0120  -40.5734 C.3       6 UNK        -0.1800 
     44 N           3.5236  -17.4089  -42.3575 N.am      6 UNK        -0.5000 
     45 C           3.1766  -17.9507  -43.5333 C.2       5 UNK         0.5000 
     46 O           2.1502  -18.6125  -43.7110 O.2       5 UNK        -0.5000 
     47 CA          4.1486  -17.6761  -44.7047 C.3       5 UNK         0.1400 
     48 CB          3.8168  -18.4920  -45.9650 C.3       5 UNK        -0.1800 
     49 N           4.1573  -16.2625  -45.0731 N.am      5 UNK        -0.5000 
     50 C           4.7376  -15.2666  -44.3913 C.2       4 UNK         0.5000 
     51 O           5.4161  -15.4424  -43.3779 O.2       4 UNK        -0.5000 
     52 CA          4.4948  -13.8313  -44.9064 C.3       4 UNK         0.1400 
     53 CB          5.7264  -13.3224  -45.6708 C.3       4 UNK        -0.1800 
     54 N           3.3080  -13.6748  -45.7591 N.am      4 UNK        -0.5000 
     55 C           2.0493  -13.9431  -45.3873 C.2       3 UNK         0.5000 
     56 O           1.7524  -14.4210  -44.2910 O.2       3 UNK        -0.5000 
     57 CA          0.9551  -13.7001  -46.4425 C.3       3 UNK         0.1400 
     58 CB          0.9173  -14.8637  -47.4487 C.3       3 UNK        -0.1800 
     59 N          -0.3703  -13.5734  -45.8396 N.am      3 UNK        -0.5000 
     60 C          -0.7918  -12.5617  -45.0682 C.2       2 UNK         0.5000 
     61 O          -0.1086  -11.5704  -44.8056 O.2       2 UNK        -0.5000 
     62 CA         -2.2264  -12.6968  -44.5080 C.3       2 UNK         0.1400 
     63 CB         -2.8257  -11.3558  -44.0357 C.3       2 UNK        -0.1800 
     64 N          -3.1312  -13.3910  -45.4356 N.am      2 UNK        -0.5000 
     65 C          -3.5002  -12.9838  -46.6621 C.2       1 UNK         0.5000 
     66 O          -3.1816  -11.8963  -47.1440 O.2       1 UNK        -0.5000 
     67 C          -1.7154  -23.0213  -46.9267 C.2       11 UNK         0.5000 
     68 O          -2.0585  -23.9907  -47.6031 O.2       11 UNK        -0.5000 
     69 N          -2.4484  -22.5179  -45.9211 N.am      12 UNK        -0.5000 
     70 CA         -3.7347  -23.0615  -45.4755 C.3       12 UNK         0.1400 
     71 CB         -4.3537  -22.1379  -44.4176 C.3       12 UNK        -0.1800 
     72 C          -3.6207  -24.5039  -44.9476 C.2       12 UNK         0.5000 
     73 O          -4.4442  -25.3458  -45.3059 O.2       12 UNK        -0.5000 
     74 N          -2.5640  -24.7807  -44.1696 N.am      13 UNK        -0.5000 
     75 CA         -2.2015  -26.1131  -43.6755 C.3       13 UNK         0.1400 
     76 CB         -1.0389  -25.9829  -42.6801 C.3       13 UNK        -0.1800 
     77 C          -1.8375  -27.1081  -44.7962 C.2       13 UNK         0.5000 
     78 O          -2.0097  -28.3137  -44.6167 O.2       13 UNK        -0.5000 
     79 N          -1.3839  -26.5846  -45.9420 N.am      14 UNK        -0.5000 
     80 CA         -1.1100  -27.3237  -47.1740 C.3       14 UNK         0.1400 
     81 CB          0.1219  -26.7008  -47.8528 C.3       14 UNK        -0.1800 
     82 C          -2.3382  -27.3740  -48.1130 C.2       14 UNK         0.5000 
     83 O          -2.1753  -27.6155  -49.3093 O.2       14 UNK        -0.5000 
     84 N          -3.5410  -27.1531  -47.5585 N.am      15 UNK        -0.5000 
     85 CA         -4.8546  -27.1718  -48.2105 C.3       15 UNK         0.1400 
     86 CB         -5.1676  -28.5623  -48.8037 C.3       15 UNK        -0.1800 
     87 C          -5.0469  -26.0170  -49.2138 C.2       15 UNK         0.5000 
     88 O          -5.6337  -26.2155  -50.2790 O.2       15 UNK        -0.5000 
     89 N          -4.5551  -24.8275  -48.8350 N.am      16 UNK        -0.5000 
     90 CA         -4.5635  -23.5717  -49.5930 C.3       16 UNK         0.1400 
     91 CB         -6.0020  -23.0660  -49.8290 C.3       16 UNK        -0.1800 
     92 C          -3.7341  -23.6924  -50.8842 C.2       16 UNK         0.5000 
     93 O          -4.2303  -23.4003  -51.9722 O.2       16 UNK        -0.5000 
     94 N          -2.4804  -24.1414  -50.7284 N.am      17 UNK        -0.5000 
     95 CA         -1.5576  -24.5154  -51.8079 C.3       17 UNK         0.1400 
     96 CB         -0.2337  -24.9872  -51.1898 C.3       17 UNK        -0.1800 
     97 C          -1.2918  -23.4287  -52.8698 C.2       17 UNK         0.5000 
     98 O          -1.0792  -23.7633  -54.0357 O.2       17 UNK        -0.5000 
     99 N          -1.3196  -22.1548  -52.4575 N.am      18 UNK        -0.5000 
    100 CA        -1.1534  -20.9963  -53.3387 C.3       18 UNK         0.1400 
    101 CB        -0.6996  -19.8001  -52.4920 C.3       18 UNK        -0.1800 
    102 C         -2.4288  -20.6330  -54.1258 C.2       18 UNK         0.5000 
    103 O         -2.3479  -19.8305  -55.0588 O.2       18 UNK        -0.5000 
    104 N         -3.5851  -21.1773  -53.7095 N.am      19 UNK        -0.5000 
    105 CA        -4.9339  -21.0131  -54.2741 C.3       19 UNK         0.1400 
    106 CB        -4.9965  -21.6638  -55.6711 C.3       19 UNK        -0.1800 
    107 C         -5.4627  -19.5607  -54.2991 C.2       19 UNK         0.5000 
    108 O         -6.4588  -19.2917  -54.9715 O.2       19 UNK        -0.5000 
    109 N         -4.7593  -18.6461  -53.6124 N.am      20 UNK        -0.5000 
    110 CA        -4.8516  -17.1826  -53.7095 C.3       20 UNK         0.1400 
    111 CB        -6.2161  -16.6733  -53.2028 C.3       20 UNK        -0.1800 
    112 C         -4.4884  -16.6318  -55.1113 C.2       20 UNK         0.5000 
    113 O         -4.7573  -15.4637  -55.3957 O.2       20 UNK        -0.5000 
    114 N         -3.8752  -17.4733  -55.9552 N.am      21 UNK        -0.5000 
    115 CA        -3.3851  -17.1421  -57.2901 C.3       21 UNK         0.1400 
    116 CB        -3.6075  -18.3474  -58.2170 C.3       21 UNK        -0.1800 
    117 C         -1.8965  -16.7677  -57.2364 C.2       21 UNK         0.5000 
    118 O         -1.4771  -15.8526  -57.9456 O.2       21 UNK        -0.5000 
    119 N         -1.1408  -17.4619  -56.3722 N.am      22 UNK        -0.5000 
    120 CA         0.2618  -17.1785  -56.0169 C.3       22 UNK         0.1400 
    121 C          1.2985  -17.4488  -57.1501 C.2       22 UNK         0.5000 
    122 N          0.9518  -18.1797  -58.2025 N.am      22 UNK        -0.7600 
    123 O          2.4463  -17.0203  -57.0635 O.2       22 UNK        -0.5000 
    124 C124        0.4466  -15.7808  -55.3563 C.3       23 UNK        -0.0398 
    125 S125       -0.6712  -15.5346  -53.9322 S.3       23 UNK        -0.2404 
    126 C126        0.4348  -15.9166  -52.5311 C.3       23 UNK        -0.0205 
    127 H127       -5.6564  -17.1976  -45.5575 H         1 UNK         0.0600 
    128 H128       -7.3102  -16.5921  -45.4302 H         1 UNK         0.0600 
    129 H129       -6.1497  -16.2746  -44.1359 H         1 UNK         0.0600 
    130 H130       -4.4279  -15.9990  -46.9656 H         1 UNK         0.3000 
    131 H131       -5.1805  -13.3986  -47.9070 H         1 UNK         0.0600 
    132 H132       -2.6090  -14.9880  -48.3993 H         1 UNK         0.0800 
    133 H133       -3.0892  -13.5666  -49.2790 H         1 UNK         0.0800 
    134 H134       -4.2018  -17.7488  -50.4585 H         1 UNK         0.0800 
    135 H135       -3.9565  -17.4458  -48.7576 H         1 UNK         0.0800 
    136 H136       -2.2581  -15.9410  -51.7729 H         1 UNK         0.1150 
    137 H137        1.6161  -17.3626  -50.6006 H         1 UNK         0.1150 
    138 H138       -1.8335  -18.3470  -48.2685 H         1 UNK         0.1150 
    139 H139        0.5180  -18.6051  -47.3459 H         1 UNK         0.0800 
    140 H140        1.8794  -18.2796  -48.3849 H         1 UNK         0.0800 
    141 H141       -1.1811  -21.4008  -49.0171 H         1 UNK         0.0800 
    142 H142       -1.1207  -20.3526  -47.6232 H         1 UNK         0.0800 
    143 H143        0.2407  -23.0770  -47.7648 H         1 UNK         0.0600 
    144 H144        0.2680  -21.0624  -45.6548 H         1 UNK         0.3000 
    145 H145        1.4672  -23.2855  -43.1450 H         1 UNK         0.0600 
    146 H146        2.9432  -21.0823  -44.6549 H         1 UNK         0.0600 
    147 H147        3.5539  -22.7021  -44.3492 H         1 UNK         0.0600 
    148 H148        3.2947  -21.5948  -43.0062 H         1 UNK         0.0600 
    149 H149        0.9905  -20.4449  -43.2298 H         1 UNK         0.3000 
    150 H150       -2.4666  -20.5951  -42.4300 H         1 UNK         0.0600 
    151 H151       -0.1809  -20.1940  -40.4428 H         1 UNK         0.0600 
    152 H152       -1.6244  -21.1656  -40.2107 H         1 UNK         0.0600 
    153 H153       -1.7627  -19.4174  -40.3250 H         1 UNK         0.0600 
    154 H154       -0.6641  -18.4247  -42.3163 H         1 UNK         0.3000 
    155 H155       -0.1417  -17.6657  -45.4545 H         1 UNK         0.0600 
    156 H156       -2.9632  -16.6125  -44.8972 H         1 UNK         0.0600 
    157 H157       -2.5252  -17.5925  -46.2728 H         1 UNK         0.0600 
    158 H158       -1.8185  -16.0010  -46.0952 H         1 UNK         0.0600 
    159 H159        0.5907  -16.3966  -43.8458 H         1 UNK         0.3000 
    160 H160        0.1114  -14.1936  -42.3285 H         1 UNK         0.0600 
    161 H161       -1.0612  -15.6628  -39.9154 H         1 UNK         0.0600 
    162 H162       -1.6347  -14.1586  -40.6182 H         1 UNK         0.0600 
    163 H163       -0.0646  -14.2105  -39.8339 H         1 UNK         0.0600 
    164 H164        2.0003  -15.3231  -42.0314 H         1 UNK         0.3000 
    165 H165        3.3985  -16.9319  -40.3568 H         1 UNK         0.0600 
    166 H166        2.5355  -19.1089  -39.5623 H         1 UNK         0.0600 
    167 H167        2.3662  -19.6907  -41.2119 H         1 UNK         0.0600 
    168 H168        3.9655  -19.3592  -40.5496 H         1 UNK         0.0600 
    169 H169        4.3502  -16.8191  -42.3581 H         1 UNK         0.3000 
    170 H170        5.1527  -17.9565  -44.3799 H         1 UNK         0.0600 
    171 H171        4.4262  -18.1811  -46.8138 H         1 UNK         0.0600 
    172 H172        4.0156  -19.5503  -45.8088 H         1 UNK         0.0600 
    173 H173        2.7704  -18.3856  -46.2464 H         1 UNK         0.0600 
    174 H174        3.6035  -16.0101  -45.8771 H         1 UNK         0.3000 
    175 H175        4.3521  -13.1981  -44.0283 H         1 UNK         0.0600 
    176 H176        6.6258  -13.3941  -45.0574 H         1 UNK         0.0600 
    177 H177        5.9020  -13.8997  -46.5794 H         1 UNK         0.0600 
    178 H178        5.6119  -12.2757  -45.9533 H         1 UNK         0.0600 
    179 H179        3.4736  -13.3058  -46.6845 H         1 UNK         0.3000 
    180 H180        1.1808  -12.7736  -46.9742 H         1 UNK         0.0600 
    181 H181        0.7131  -15.8158  -46.9580 H         1 UNK         0.0600 
    182 H182        1.8679  -14.9647  -47.9735 H         1 UNK         0.0600 
    183 H183        0.1492  -14.7087  -48.2072 H         1 UNK         0.0600 
    184 H184       -0.9950  -14.3507  -45.9757 H         1 UNK         0.3000 
    185 H185       -2.1473  -13.3362  -43.6290 H         1 UNK         0.0600 
    186 H186       -2.2305  -10.9259  -43.2293 H         1 UNK         0.0600 
    187 H187       -2.8637  -10.6196  -44.8389 H         1 UNK         0.0600 
    188 H188       -3.8381  -11.4894  -43.6544 H         1 UNK         0.0600 
    189 H189       -3.4784  -14.2857  -45.1212 H         1 UNK         0.3000 
    190 H190       -2.1155  -21.6882  -45.4405 H         1 UNK         0.3000 
    191 H191       -4.4020  -23.0739  -46.3394 H         1 UNK         0.0600 
    192 H192       -4.4051  -21.1070  -44.7691 H         1 UNK         0.0600 
    193 H193       -5.3699  -22.4522  -44.1769 H         1 UNK         0.0600 
    194 H194       -3.7830  -22.1509  -43.4901 H         1 UNK         0.0600 
    195 H195       -1.9665  -24.0145  -43.8677 H         1 UNK         0.3000 
    196 H196       -3.0648  -26.5187  -43.1443 H         1 UNK         0.0600 
    197 H197       -0.1590  -25.5397  -43.1482 H         1 UNK         0.0600 
    198 H198       -0.7477  -26.9572  -42.2857 H         1 UNK         0.0600 
    199 H199       -1.3161  -25.3589  -41.8303 H         1 UNK         0.0600 
    200 H200       -1.2897  -25.5798  -46.0048 H         1 UNK         0.3000 
    201 H201       -0.8616  -28.3578  -46.9277 H         1 UNK         0.0600 
    202 H202       -0.0674  -25.6760  -48.1708 H         1 UNK         0.0600 
    203 H203        0.9761  -26.6838  -47.1757 H         1 UNK         0.0600 
    204 H204        0.4200  -27.2732  -48.7317 H         1 UNK         0.0600 
    205 H205       -3.5633  -26.9051  -46.5772 H         1 UNK         0.3000 
    206 H206       -5.5802  -26.9933  -47.4156 H         1 UNK         0.0600 
    207 H207       -5.0296  -29.3481  -48.0612 H         1 UNK         0.0600 
    208 H208       -6.2025  -28.6166  -49.1432 H         1 UNK         0.0600 
    209 H209       -4.5331  -28.7930  -49.6597 H         1 UNK         0.0600 
    210 H210       -4.0062  -24.8063  -47.9844 H         1 UNK         0.3000 
    211 H211       -4.0622  -22.8271  -48.9742 H         1 UNK         0.0600 
    212 H212       -6.5473  -22.9789  -48.8893 H         1 UNK         0.0600 
    213 H213       -5.9949  -22.0790  -50.2930 H         1 UNK         0.0600 
    214 H214       -6.5675  -23.7282  -50.4850 H         1 UNK         0.0600 
    215 H215       -2.1795  -24.3601  -49.7864 H         1 UNK         0.3000 
    216 H216       -2.0068  -25.3628  -52.3295 H         1 UNK         0.0600 
    217 H217        0.2052  -24.2259  -50.5435 H         1 UNK         0.0600 
    218 H218        0.4993  -25.2287  -51.9608 H         1 UNK         0.0600 
    219 H219       -0.3831  -25.8898  -50.5995 H         1 UNK         0.0600 
    220 H220       -1.4919  -21.9674  -51.4818 H         1 UNK         0.3000 
    221 H221       -0.3704  -21.2124  -54.0685 H         1 UNK         0.0600 
    222 H222       -1.4358  -19.5434  -51.7298 H         1 UNK         0.0600 
    223 H223        0.2442  -20.0071  -51.9872 H         1 UNK         0.0600 
    224 H224       -0.5468  -18.9154  -53.1111 H         1 UNK         0.0600 
    225 H225       -3.5424  -21.8539  -52.9533 H         1 UNK         0.3000 
    226 H226       -5.6069  -21.5671  -53.6182 H         1 UNK         0.0600 
    227 H227       -4.6395  -22.6934  -55.6408 H         1 UNK         0.0600 
    228 H228       -6.0188  -21.6890  -56.0499 H         1 UNK         0.0600 
    229 H229       -4.3918  -21.1203  -56.3978 H         1 UNK         0.0600 
    230 H230       -3.9627  -18.9910  -53.0971 H         1 UNK         0.3000 
    231 H231       -4.0895  -16.7924  -53.0348 H         1 UNK         0.0600 
    232 H232       -7.0290  -16.9459  -53.8758 H         1 UNK         0.0600 
    233 H233       -6.2172  -15.5864  -53.1142 H         1 UNK         0.0600 
    234 H234       -6.4445  -17.0759  -52.2160 H         1 UNK         0.0600 
    235 H235       -3.6419  -18.3998  -55.6162 H         1 UNK         0.3000 
    236 H236       -3.9395  -16.2916  -57.6924 H         1 UNK         0.0600 
    237 H237       -3.0744  -19.2321  -57.8661 H         1 UNK         0.0600 
    238 H238       -4.6657  -18.6010  -58.2831 H         1 UNK         0.0600 
    239 H239       -3.2600  -18.1317  -59.2281 H         1 UNK         0.0600 
    240 H240       -1.5712  -18.2280  -55.8642 H         1 UNK         0.3000 
    241 H241        0.5091  -17.9185  -55.2552 H         1 UNK         0.0600 
    242 H242        1.6279  -18.3609  -58.9278 H         1 UNK         0.3800 
    243 H243        0.0164  -18.5448  -58.2838 H         1 UNK         0.3800 
    244 H244        0.2547  -14.9886  -56.0809 H         1 UNK         0.0800 
    245 H245        1.4772  -15.6366  -55.0287 H         1 UNK         0.0800 
    246 H246        0.9185  -14.9961  -52.2024 H         1 UNK         0.0800 
    247 H247        1.2281  -16.5783  -52.8822 H         1 UNK         0.0800 
@<TRIPOS>BOND
     1    1    2 1    
     2    1  127 1    
     3    1  128 1    
     4    1  129 1    
     5    2    3 2    
     6    2    4 am   BACKBONE|DICT|INTERRES
     7    4    5 1    
     8    4  130 1    
     9    5    6 1    
    10    5   65 1    
    11    5  131 1    
    12    6    7 1    
    13    6  132 1    
    14    6  133 1    
    15    7    8 1    
    16    8    9 1    
    17    8  134 1    
    18    8  135 1    
    19    9   10 ar   
    20    9   14 ar   
    21   10   11 ar   
    22   10  136 1    
    23   11   12 ar   
    24   11  126 1    
    25   12   13 ar   
    26   12  137 1    
    27   13   14 ar   
    28   13   15 1    
    29   14  138 1    
    30   15   16 1    
    31   15  139 1    
    32   15  140 1    
    33   16   17 1    
    34   17   18 1    
    35   17  141 1    
    36   17  142 1    
    37   18   19 1    
    38   18   67 1    
    39   18  143 1    
    40   19   20 am   BACKBONE|DICT|INTERRES
    41   19  144 1    
    42   20   21 2    
    43   20   22 1    
    44   22   23 1    
    45   22   24 1    
    46   22  145 1    
    47   23  146 1    
    48   23  147 1    
    49   23  148 1    
    50   24   25 am   BACKBONE|DICT|INTERRES
    51   24  149 1    
    52   25   26 2    
    53   25   27 1    
    54   27   28 1    
    55   27   29 1    
    56   27  150 1    
    57   28  151 1    
    58   28  152 1    
    59   28  153 1    
    60   29   30 am   BACKBONE|DICT|INTERRES
    61   29  154 1    
    62   30   31 2    
    63   30   32 1    
    64   32   33 1    
    65   32   34 1    
    66   32  155 1    
    67   33  156 1    
    68   33  157 1    
    69   33  158 1    
    70   34   35 am   BACKBONE|DICT|INTERRES
    71   34  159 1    
    72   35   36 2    
    73   35   37 1    
    74   37   38 1    
    75   37   39 1    
    76   37  160 1    
    77   38  161 1    
    78   38  162 1    
    79   38  163 1    
    80   39   40 am   BACKBONE|DICT|INTERRES
    81   39  164 1    
    82   40   41 2    
    83   40   42 1    
    84   42   43 1    
    85   42   44 1    
    86   42  165 1    
    87   43  166 1    
    88   43  167 1    
    89   43  168 1    
    90   44   45 am   BACKBONE|DICT|INTERRES
    91   44  169 1    
    92   45   46 2    
    93   45   47 1    
    94   47   48 1    
    95   47   49 1    
    96   47  170 1    
    97   48  171 1    
    98   48  172 1    
    99   48  173 1    
   100   49   50 am   BACKBONE|DICT|INTERRES
   101   49  174 1    
   102   50   51 2    
   103   50   52 1    
   104   52   53 1    
   105   52   54 1    
   106   52  175 1    
   107   53  176 1    
   108   53  177 1    
   109   53  178 1    
   110   54   55 am   BACKBONE|DICT|INTERRES
   111   54  179 1    
   112   55   56 2    
   113   55   57 1    
   114   57   58 1    
   115   57   59 1    
   116   57  180 1    
   117   58  181 1    
   118   58  182 1    
   119   58  183 1    
   120   59   60 am   BACKBONE|DICT|INTERRES
   121   59  184 1    
   122   60   61 2    
   123   60   62 1    
   124   62   63 1    
   125   62   64 1    
   126   62  185 1    
   127   63  186 1    
   128   63  187 1    
   129   63  188 1    
   130   64   65 am   BACKBONE|DICT|INTERRES
   131   64  189 1    
   132   65   66 2    
   133   67   68 2    
   134   67   69 am   BACKBONE|DICT|INTERRES
   135   69   70 1    
   136   69  190 1    
   137   70   71 1    
   138   70   72 1    
   139   70  191 1    
   140   71  192 1    
   141   71  193 1    
   142   71  194 1    
   143   72   73 2    
   144   72   74 am   BACKBONE|DICT|INTERRES
   145   74   75 1    
   146   74  195 1    
   147   75   76 1    
   148   75   77 1    
   149   75  196 1    
   150   76  197 1    
   151   76  198 1    
   152   76  199 1    
   153   77   78 2    
   154   77   79 am   BACKBONE|DICT|INTERRES
   155   79   80 1    
   156   79  200 1    
   157   80   81 1    
   158   80   82 1    
   159   80  201 1    
   160   81  202 1    
   161   81  203 1    
   162   81  204 1    
   163   82   83 2    
   164   82   84 am   BACKBONE|DICT|INTERRES
   165   84   85 1    
   166   84  205 1    
   167   85   86 1    
   168   85   87 1    
   169   85  206 1    
   170   86  207 1    
   171   86  208 1    
   172   86  209 1    
   173   87   88 2    
   174   87   89 am   BACKBONE|DICT|INTERRES
   175   89   90 1    
   176   89  210 1    
   177   90   91 1    
   178   90   92 1    
   179   90  211 1    
   180   91  212 1    
   181   91  213 1    
   182   91  214 1    
   183   92   93 2    
   184   92   94 am   BACKBONE|DICT|INTERRES
   185   94   95 1    
   186   94  215 1    
   187   95   96 1    
   188   95   97 1    
   189   95  216 1    
   190   96  217 1    
   191   96  218 1    
   192   96  219 1    
   193   97   98 2    
   194   97   99 am   BACKBONE|DICT|INTERRES
   195   99  100 1    
   196   99  220 1    
   197  100  101 1    
   198  100  102 1    
   199  100  221 1    
   200  101  222 1    
   201  101  223 1    
   202  101  224 1    
   203  102  103 2    
   204  102  104 am   BACKBONE|DICT|INTERRES
   205  104  105 1    
   206  104  225 1    
   207  105  106 1    
   208  105  107 1    
   209  105  226 1    
   210  106  227 1    
   211  106  228 1    
   212  106  229 1    
   213  107  108 2    
   214  107  109 am   BACKBONE|DICT|INTERRES
   215  109  110 1    
   216  109  230 1    
   217  110  111 1    
   218  110  112 1    
   219  110  231 1    
   220  111  232 1    
   221  111  233 1    
   222  111  234 1    
   223  112  113 2    
   224  112  114 am   BACKBONE|DICT|INTERRES
   225  114  115 1    
   226  114  235 1    
   227  115  116 1    
   228  115  117 1    
   229  115  236 1    
   230  116  237 1    
   231  116  238 1    
   232  116  239 1    
   233  117  118 2    
   234  117  119 am   BACKBONE|DICT|INTERRES
   235  119  120 1    
   236  119  240 1    
   237  120  121 1    
   238  120  124 1    
   239  120  241 1    
   240  121  122 am   BACKBONE|DICT|INTERRES
   241  121  123 2    
   242  122  242 1    
   243  122  243 1    
   244  124  125 1    
   245  124  244 1    
   246  124  245 1    
   247  125  126 1    
   248  126  246 1    
   249  126  247 1    
@<TRIPOS>SUBSTRUCTURE
     1 UNK         1 GROUP             0       ****    0 ROOT    
