@<TRIPOS>MOLECULE
3R540
247   249    1
SMALL
USER_CHARGES


@<TRIPOS>ATOM
      1 CA          4.7823  -11.3783  -48.0281 C.3       0 UNK        -0.1800 
      2 C           4.7394  -12.7857  -48.6067 C.2       0 UNK         0.5000 
      3 O           5.1908  -13.0020  -49.7317 O.2       0 UNK        -0.5000 
      4 N           4.2025  -13.7398  -47.8432 N.am      1 UNK        -0.5000 
      5 CA          4.0530  -15.1432  -48.2181 C.3       1 UNK         0.1400 
      6 C6          2.8760  -15.4080  -49.2015 C.3       23 UNK        -0.0398 
      7 S7          1.3144  -14.5117  -48.8424 S.3       23 UNK        -0.2404 
      8 C8          0.5125  -14.4600  -50.4857 C.3       23 UNK        -0.0205 
      9 C9         -0.2842  -15.7295  -50.7493 C.ar      23 UNK        -0.0193 
     10 C10        -1.6806  -15.7319  -50.6636 C.ar      23 UNK        -0.1150 
     11 C11        -2.3962  -16.9290  -50.7792 C.ar      23 UNK        -0.0193 
     12 C12        -1.7026  -18.1280  -50.9607 C.ar      23 UNK        -0.1150 
     13 C13        -0.3107  -18.1318  -51.0749 C.ar      23 UNK        -0.0193 
     14 C14         0.3854  -16.9234  -51.0179 C.ar      23 UNK        -0.1150 
     15 C15         0.4530  -19.4460  -51.1426 C.3       23 UNK        -0.0205 
     16 S16         1.6914  -19.5853  -49.8047 S.3       23 UNK        -0.2404 
     17 C17         0.7081  -19.1771  -48.3159 C.3       23 UNK        -0.0398 
     18 CA          0.3799  -20.4197  -47.4646 C.3       11 UNK         0.1400 
     19 N           0.0415  -20.0535  -46.0902 N.am      11 UNK        -0.5000 
     20 C          -0.1135  -20.9294  -45.0898 C.2       10 UNK         0.5000 
     21 O           0.0463  -22.1438  -45.2063 O.2       10 UNK        -0.5000 
     22 CA         -0.5684  -20.3507  -43.7429 C.3       10 UNK         0.1400 
     23 CB          0.6294  -19.7899  -42.9589 C.3       10 UNK        -0.1800 
     24 N          -1.6023  -19.3264  -43.9135 N.am      10 UNK        -0.5000 
     25 C          -2.8500  -19.5912  -44.3312 C.2       9 UNK         0.5000 
     26 O          -3.2652  -20.7272  -44.5593 O.2       9 UNK        -0.5000 
     27 CA         -3.7779  -18.3895  -44.5835 C.3       9 UNK         0.1400 
     28 CB         -4.4491  -17.9280  -43.2822 C.3       9 UNK        -0.1800 
     29 N          -3.0855  -17.2632  -45.2084 N.am      9 UNK        -0.5000 
     30 C          -2.6234  -17.2754  -46.4678 C.2       8 UNK         0.5000 
     31 O          -2.7390  -18.2348  -47.2281 O.2       8 UNK        -0.5000 
     32 CA         -1.8654  -16.0258  -46.9492 C.3       8 UNK         0.1400 
     33 CB         -2.8512  -14.9808  -47.4909 C.3       8 UNK        -0.1800 
     34 N          -1.0471  -15.3948  -45.9173 N.am      8 UNK        -0.5000 
     35 C          -0.1102  -15.9929  -45.1720 C.2       7 UNK         0.5000 
     36 O           0.1794  -17.1879  -45.2628 O.2       7 UNK        -0.5000 
     37 CA          0.5872  -15.1169  -44.1159 C.3       7 UNK         0.1400 
     38 CB          0.3702  -13.5986  -44.3037 C.3       7 UNK        -0.1800 
     39 N           0.2455  -15.5127  -42.7540 N.am      7 UNK        -0.5000 
     40 C          -0.9621  -15.5932  -42.1799 C.2       6 UNK         0.5000 
     41 O          -2.0221  -15.4115  -42.7805 O.2       6 UNK        -0.5000 
     42 CA         -0.9859  -15.9057  -40.6713 C.3       6 UNK         0.1400 
     43 CB         -1.1566  -17.4105  -40.4227 C.3       6 UNK        -0.1800 
     44 N           0.2453  -15.4595  -40.0123 N.am      6 UNK        -0.5000 
     45 C           0.3224  -14.5134  -39.0675 C.2       5 UNK         0.5000 
     46 O          -0.6566  -13.9546  -38.5711 O.2       5 UNK        -0.5000 
     47 CA          1.7392  -14.1080  -38.6059 C.3       5 UNK         0.1400 
     48 CB          2.1839  -14.9710  -37.4153 C.3       5 UNK        -0.1800 
     49 N           2.7435  -14.2073  -39.6686 N.am      5 UNK        -0.5000 
     50 C           2.7532  -13.4629  -40.7831 C.2       4 UNK         0.5000 
     51 O           1.9782  -12.5258  -40.9756 O.2       4 UNK        -0.5000 
     52 CA          3.7773  -13.8215  -41.8824 C.3       4 UNK         0.1400 
     53 CB          4.8940  -12.7675  -41.9366 C.3       4 UNK        -0.1800 
     54 N           4.3957  -15.1524  -41.8092 N.am      4 UNK        -0.5000 
     55 C           3.7656  -16.3332  -41.7692 C.2       3 UNK         0.5000 
     56 O           2.5503  -16.4626  -41.6121 O.2       3 UNK        -0.5000 
     57 CA          4.6362  -17.5825  -41.9724 C.3       3 UNK         0.1400 
     58 CB          4.2342  -18.7108  -41.0074 C.3       3 UNK        -0.1800 
     59 N           4.4871  -18.0567  -43.3456 N.am      3 UNK        -0.5000 
     60 C           5.0617  -17.5068  -44.4242 C.2       2 UNK         0.5000 
     61 O           5.8838  -16.5896  -44.3598 O.2       2 UNK        -0.5000 
     62 CA          4.6910  -18.1082  -45.8022 C.3       2 UNK         0.1400 
     63 CB          3.4010  -18.9555  -45.7874 C.3       2 UNK        -0.1800 
     64 N           4.6336  -17.1253  -46.8947 N.am      2 UNK        -0.5000 
     65 C           3.9482  -15.9713  -46.9266 C.2       1 UNK         0.5000 
     66 O           3.2638  -15.5419  -45.9985 O.2       1 UNK        -0.5000 
     67 C          -0.7181  -21.2883  -48.1132 C.2       11 UNK         0.5000 
     68 O          -0.4031  -22.3319  -48.6841 O.2       11 UNK        -0.5000 
     69 N          -1.9874  -20.8775  -47.9729 N.am      12 UNK        -0.5000 
     70 CA         -3.1505  -21.6272  -48.4471 C.3       12 UNK         0.1400 
     71 CB         -4.4237  -20.7879  -48.2748 C.3       12 UNK        -0.1800 
     72 C          -3.3004  -22.9952  -47.7602 C.2       12 UNK         0.5000 
     73 O          -3.6079  -23.9727  -48.4412 O.2       12 UNK        -0.5000 
     74 N          -3.0436  -23.0556  -46.4451 N.am      13 UNK        -0.5000 
     75 CA         -3.0268  -24.2961  -45.6683 C.3       13 UNK         0.1400 
     76 CB         -2.9120  -23.9788  -44.1700 C.3       13 UNK        -0.1800 
     77 C          -1.9101  -25.2560  -46.1166 C.2       13 UNK         0.5000 
     78 O          -2.1799  -26.4400  -46.3194 O.2       13 UNK        -0.5000 
     79 N          -0.6941  -24.7254  -46.3134 N.am      14 UNK        -0.5000 
     80 CA          0.4680  -25.4628  -46.8185 C.3       14 UNK         0.1400 
     81 CB          1.7167  -24.5718  -46.7361 C.3       14 UNK        -0.1800 
     82 C           0.2697  -25.9925  -48.2519 C.2       14 UNK         0.5000 
     83 O           0.6954  -27.1078  -48.5542 O.2       14 UNK        -0.5000 
     84 N          -0.4070  -25.2007  -49.0935 N.am      15 UNK        -0.5000 
     85 CA         -0.8012  -25.5579  -50.4564 C.3       15 UNK         0.1400 
     86 CB         -1.1000  -24.2668  -51.2364 C.3       15 UNK        -0.1800 
     87 C          -2.0127  -26.5104  -50.5245 C.2       15 UNK         0.5000 
     88 O          -2.3591  -26.9453  -51.6218 O.2       15 UNK        -0.5000 
     89 N          -2.6650  -26.7876  -49.3846 N.am      16 UNK        -0.5000 
     90 CA         -3.8961  -27.5749  -49.2411 C.3       16 UNK         0.1400 
     91 CB         -3.6300  -29.0642  -49.5430 C.3       16 UNK        -0.1800 
     92 C          -5.0677  -26.9870  -50.0589 C.2       16 UNK         0.5000 
     93 O          -5.8077  -27.7240  -50.7122 O.2       16 UNK        -0.5000 
     94 N          -5.1775  -25.6512  -50.0245 N.am      17 UNK        -0.5000 
     95 CA         -6.1330  -24.7861  -50.7228 C.3       17 UNK         0.1400 
     96 CB         -7.5876  -25.1337  -50.3473 C.3       17 UNK        -0.1800 
     97 C          -5.9344  -24.6927  -52.2507 C.2       17 UNK         0.5000 
     98 O          -6.6994  -23.9825  -52.9032 O.2       17 UNK        -0.5000 
     99 N          -4.9016  -25.3437  -52.8094 N.am      18 UNK        -0.5000 
    100 CA        -4.6004  -25.3337  -54.2474 C.3       18 UNK         0.1400 
    101 CB        -3.5741  -26.4316  -54.5631 C.3       18 UNK        -0.1800 
    102 C         -4.1049  -23.9701  -54.7718 C.2       18 UNK         0.5000 
    103 O         -4.1380  -23.7390  -55.9807 O.2       18 UNK        -0.5000 
    104 N         -3.6613  -23.0933  -53.8605 N.am      19 UNK        -0.5000 
    105 CA        -3.2261  -21.7272  -54.1503 C.3       19 UNK         0.1400 
    106 CB        -2.4091  -21.2050  -52.9588 C.3       19 UNK        -0.1800 
    107 C         -4.3848  -20.7607  -54.4703 C.2       19 UNK         0.5000 
    108 O         -4.1282  -19.6946  -55.0310 O.2       19 UNK        -0.5000 
    109 N         -5.6255  -21.1278  -54.1092 N.am      20 UNK        -0.5000 
    110 CA        -6.8366  -20.3358  -54.3390 C.3       20 UNK         0.1400 
    111 CB        -8.0349  -21.0668  -53.7147 C.3       20 UNK        -0.1800 
    112 C         -7.0871  -20.0695  -55.8435 C.2       20 UNK         0.5000 
    113 O         -6.7977  -20.9443  -56.6606 O.2       20 UNK        -0.5000 
    114 N         -7.6240  -18.9082  -56.2446 N.am      21 UNK        -0.5000 
    115 CA        -8.1236  -17.7947  -55.4293 C.3       21 UNK         0.1400 
    116 CB        -9.2500  -17.1009  -56.2154 C.3       21 UNK        -0.1800 
    117 C         -7.0391  -16.7797  -55.0005 C.2       21 UNK         0.5000 
    118 O         -7.3904  -15.7016  -54.5201 O.2       21 UNK        -0.5000 
    119 N         -5.7554  -17.1279  -55.1672 N.am      22 UNK        -0.5000 
    120 CA        -4.5759  -16.3391  -54.7574 C.3       22 UNK         0.1400 
    121 C         -4.3005  -15.0778  -55.6328 C.2       22 UNK         0.5000 
    122 N         -4.9154  -14.9344  -56.8007 N.am      22 UNK        -0.7600 
    123 O         -3.4941  -14.2263  -55.2682 O.2       22 UNK        -0.5000 
    124 C124       -4.5339  -16.0207  -53.2332 C.3       23 UNK        -0.0398 
    125 S125       -4.7333  -17.4968  -52.1748 S.3       23 UNK        -0.2404 
    126 C126       -3.9122  -16.9460  -50.6471 C.3       23 UNK        -0.0205 
    127 H127        4.2238  -10.6936  -48.6664 H         1 UNK         0.0600 
    128 H128        5.8126  -11.0277  -47.9686 H         1 UNK         0.0600 
    129 H129        4.3508  -11.3383  -47.0275 H         1 UNK         0.0600 
    130 H130        3.8499  -13.5282  -46.9185 H         1 UNK         0.3000 
    131 H131        4.9767  -15.4505  -48.7138 H         1 UNK         0.0600 
    132 H132        2.6633  -16.4767  -49.2507 H         1 UNK         0.0800 
    133 H133        3.2001  -15.1258  -50.2036 H         1 UNK         0.0800 
    134 H134        1.2549  -14.3103  -51.2706 H         1 UNK         0.0800 
    135 H135       -0.1461  -13.5911  -50.5212 H         1 UNK         0.0800 
    136 H136       -2.2072  -14.8076  -50.4730 H         1 UNK         0.1150 
    137 H137       -2.2518  -19.0579  -50.9864 H         1 UNK         0.1150 
    138 H138        1.4617  -16.9293  -51.0993 H         1 UNK         0.1150 
    139 H139       -0.2283  -20.2955  -51.0753 H         1 UNK         0.0800 
    140 H140        0.9542  -19.5226  -52.1081 H         1 UNK         0.0800 
    141 H141       -0.2021  -18.6299  -48.5582 H         1 UNK         0.0800 
    142 H142        1.3037  -18.4715  -47.7363 H         1 UNK         0.0800 
    143 H143        1.2820  -21.0327  -47.4035 H         1 UNK         0.0600 
    144 H144       -0.0800  -19.0652  -45.8899 H         1 UNK         0.3000 
    145 H145       -0.9913  -21.1736  -43.1627 H         1 UNK         0.0600 
    146 H146        0.3764  -19.6633  -41.9089 H         1 UNK         0.0600 
    147 H147        1.4780  -20.4745  -42.9935 H         1 UNK         0.0600 
    148 H148        0.9682  -18.8293  -43.3470 H         1 UNK         0.0600 
    149 H149       -1.3082  -18.3630  -43.8362 H         1 UNK         0.3000 
    150 H150       -4.5642  -18.7206  -45.2654 H         1 UNK         0.0600 
    151 H151       -4.9837  -18.7506  -42.8054 H         1 UNK         0.0600 
    152 H152       -5.1740  -17.1366  -43.4731 H         1 UNK         0.0600 
    153 H153       -3.7230  -17.5484  -42.5645 H         1 UNK         0.0600 
    154 H154       -2.9054  -16.4535  -44.6270 H         1 UNK         0.3000 
    155 H155       -1.2002  -16.3344  -47.7580 H         1 UNK         0.0600 
    156 H156       -2.3253  -14.1612  -47.9810 H         1 UNK         0.0600 
    157 H157       -3.4671  -14.5586  -46.6959 H         1 UNK         0.0600 
    158 H158       -3.5270  -15.4200  -48.2231 H         1 UNK         0.0600 
    159 H159       -1.2243  -14.4161  -45.7478 H         1 UNK         0.3000 
    160 H160        1.6527  -15.3132  -44.2008 H         1 UNK         0.0600 
    161 H161       -0.6715  -13.3087  -44.1628 H         1 UNK         0.0600 
    162 H162        0.6797  -13.2784  -45.2997 H         1 UNK         0.0600 
    163 H163        0.9640  -13.0301  -43.5885 H         1 UNK         0.0600 
    164 H164        1.0512  -15.8029  -42.2048 H         1 UNK         0.3000 
    165 H165       -1.8554  -15.3911  -40.2575 H         1 UNK         0.0600 
    166 H166       -0.2479  -17.9532  -40.6750 H         1 UNK         0.0600 
    167 H167       -1.3766  -17.6080  -39.3736 H         1 UNK         0.0600 
    168 H168       -1.9729  -17.8288  -41.0113 H         1 UNK         0.0600 
    169 H169        1.1118  -15.8504  -40.3664 H         1 UNK         0.3000 
    170 H170        1.6959  -13.0673  -38.2780 H         1 UNK         0.0600 
    171 H171        1.4684  -14.9024  -36.5948 H         1 UNK         0.0600 
    172 H172        2.2685  -16.0232  -37.6902 H         1 UNK         0.0600 
    173 H173        3.1503  -14.6448  -37.0304 H         1 UNK         0.0600 
    174 H174        3.4160  -14.9557  -39.5918 H         1 UNK         0.3000 
    175 H175        3.2375  -13.7831  -42.8302 H         1 UNK         0.0600 
    176 H176        5.5059  -12.7861  -41.0339 H         1 UNK         0.0600 
    177 H177        5.5500  -12.9305  -42.7921 H         1 UNK         0.0600 
    178 H178        4.4830  -11.7617  -42.0343 H         1 UNK         0.0600 
    179 H179        5.3950  -15.1671  -41.9571 H         1 UNK         0.3000 
    180 H180        5.6822  -17.3300  -41.7857 H         1 UNK         0.0600 
    181 H181        3.2055  -19.0373  -41.1671 H         1 UNK         0.0600 
    182 H182        4.3169  -18.3840  -39.9701 H         1 UNK         0.0600 
    183 H183        4.8819  -19.5794  -41.1269 H         1 UNK         0.0600 
    184 H184        3.8075  -18.7884  -43.4884 H         1 UNK         0.3000 
    185 H185        5.5133  -18.7800  -46.0518 H         1 UNK         0.0600 
    186 H186        3.2241  -19.3973  -46.7670 H         1 UNK         0.0600 
    187 H187        3.4637  -19.7861  -45.0839 H         1 UNK         0.0600 
    188 H188        2.5301  -18.3557  -45.5240 H         1 UNK         0.0600 
    189 H189        5.2027  -17.3573  -47.6965 H         1 UNK         0.3000 
    190 H190       -2.1796  -19.9817  -47.5300 H         1 UNK         0.3000 
    191 H191       -3.0112  -21.8097  -49.5143 H         1 UNK         0.0600 
    192 H192       -4.5907  -20.5214  -47.2305 H         1 UNK         0.0600 
    193 H193       -5.3027  -21.3322  -48.6224 H         1 UNK         0.0600 
    194 H194       -4.3652  -19.8648  -48.8509 H         1 UNK         0.0600 
    195 H195       -2.8458  -22.1990  -45.9391 H         1 UNK         0.3000 
    196 H196       -3.9810  -24.8016  -45.8311 H         1 UNK         0.0600 
    197 H197       -2.9046  -24.8937  -43.5763 H         1 UNK         0.0600 
    198 H198       -3.7557  -23.3783  -43.8298 H         1 UNK         0.0600 
    199 H199       -1.9981  -23.4310  -43.9406 H         1 UNK         0.0600 
    200 H200       -0.5435  -23.7453  -46.0883 H         1 UNK         0.3000 
    201 H201        0.6223  -26.3249  -46.1666 H         1 UNK         0.0600 
    202 H202        1.9115  -24.2609  -45.7096 H         1 UNK         0.0600 
    203 H203        1.6100  -23.6719  -47.3426 H         1 UNK         0.0600 
    204 H204        2.6012  -25.1036  -47.0887 H         1 UNK         0.0600 
    205 H205       -0.6502  -24.2629  -48.7858 H         1 UNK         0.3000 
    206 H206        0.0372  -26.0625  -50.9406 H         1 UNK         0.0600 
    207 H207       -0.2389  -23.5982  -51.2368 H         1 UNK         0.0600 
    208 H208       -1.3424  -24.4816  -52.2779 H         1 UNK         0.0600 
    209 H209       -1.9428  -23.7253  -50.8060 H         1 UNK         0.0600 
    210 H210       -2.3197  -26.3694  -48.5297 H         1 UNK         0.3000 
    211 H211       -4.1873  -27.4973  -48.1927 H         1 UNK         0.0600 
    212 H212       -3.3803  -29.2285  -50.5915 H         1 UNK         0.0600 
    213 H213       -4.5076  -29.6709  -49.3171 H         1 UNK         0.0600 
    214 H214       -2.8075  -29.4465  -48.9384 H         1 UNK         0.0600 
    215 H215       -4.5043  -25.1445  -49.4489 H         1 UNK         0.3000 
    216 H216       -5.9360  -23.7821  -50.3439 H         1 UNK         0.0600 
    217 H217       -7.7182  -25.1698  -49.2658 H         1 UNK         0.0600 
    218 H218       -7.8955  -26.0960  -50.7566 H         1 UNK         0.0600 
    219 H219       -8.2798  -24.3834  -50.7311 H         1 UNK         0.0600 
    220 H220       -4.3022  -25.9138  -52.2254 H         1 UNK         0.3000 
    221 H221       -5.5225  -25.5717  -54.7817 H         1 UNK         0.0600 
    222 H222       -2.5979  -26.2037  -54.1343 H         1 UNK         0.0600 
    223 H223       -3.8949  -27.3998  -54.1780 H         1 UNK         0.0600 
    224 H224       -3.4380  -26.5383  -55.6400 H         1 UNK         0.0600 
    225 H225       -3.6650  -23.3755  -52.8926 H         1 UNK         0.3000 
    226 H226       -2.5730  -21.7515  -55.0252 H         1 UNK         0.0600 
    227 H227       -1.5293  -21.8228  -52.7814 H         1 UNK         0.0600 
    228 H228       -2.0555  -20.1906  -53.1478 H         1 UNK         0.0600 
    229 H229       -3.0002  -21.1836  -52.0426 H         1 UNK         0.0600 
    230 H230       -5.7621  -22.0441  -53.7033 H         1 UNK         0.3000 
    231 H231       -6.6927  -19.3958  -53.8078 H         1 UNK         0.0600 
    232 H232       -8.9516  -20.4859  -53.8194 H         1 UNK         0.0600 
    233 H233       -7.8810  -21.2416  -52.6497 H         1 UNK         0.0600 
    234 H234       -8.2054  -22.0332  -54.1909 H         1 UNK         0.0600 
    235 H235       -7.7382  -18.7776  -57.2389 H         1 UNK         0.3000 
    236 H236       -8.5675  -18.1890  -54.5143 H         1 UNK         0.0600 
    237 H237      -10.0341  -17.8075  -56.4881 H         1 UNK         0.0600 
    238 H238       -9.7215  -16.3150  -55.6238 H         1 UNK         0.0600 
    239 H239       -8.8772  -16.6428  -57.1323 H         1 UNK         0.0600 
    240 H240       -5.5357  -18.0344  -55.5592 H         1 UNK         0.3000 
    241 H241       -3.7240  -16.9889  -54.9591 H         1 UNK         0.0600 
    242 H242       -5.5719  -15.6276  -57.1216 H         1 UNK         0.3800 
    243 H243       -4.7251  -14.1220  -57.3666 H         1 UNK         0.3800 
    244 H244       -3.5814  -15.5510  -52.9838 H         1 UNK         0.0800 
    245 H245       -5.3039  -15.2964  -52.9656 H         1 UNK         0.0800 
    246 H246       -4.2958  -15.9614  -50.3770 H         1 UNK         0.0800 
    247 H247       -4.1866  -17.6176  -49.8328 H         1 UNK         0.0800 
@<TRIPOS>BOND
     1    1    2 1    
     2    1  127 1    
     3    1  128 1    
     4    1  129 1    
     5    2    3 2    
     6    2    4 am   BACKBONE|DICT|INTERRES
     7    4    5 1    
     8    4  130 1    
     9    5    6 1    
    10    5   65 1    
    11    5  131 1    
    12    6    7 1    
    13    6  132 1    
    14    6  133 1    
    15    7    8 1    
    16    8    9 1    
    17    8  134 1    
    18    8  135 1    
    19    9   10 ar   
    20    9   14 ar   
    21   10   11 ar   
    22   10  136 1    
    23   11   12 ar   
    24   11  126 1    
    25   12   13 ar   
    26   12  137 1    
    27   13   14 ar   
    28   13   15 1    
    29   14  138 1    
    30   15   16 1    
    31   15  139 1    
    32   15  140 1    
    33   16   17 1    
    34   17   18 1    
    35   17  141 1    
    36   17  142 1    
    37   18   19 1    
    38   18   67 1    
    39   18  143 1    
    40   19   20 am   BACKBONE|DICT|INTERRES
    41   19  144 1    
    42   20   21 2    
    43   20   22 1    
    44   22   23 1    
    45   22   24 1    
    46   22  145 1    
    47   23  146 1    
    48   23  147 1    
    49   23  148 1    
    50   24   25 am   BACKBONE|DICT|INTERRES
    51   24  149 1    
    52   25   26 2    
    53   25   27 1    
    54   27   28 1    
    55   27   29 1    
    56   27  150 1    
    57   28  151 1    
    58   28  152 1    
    59   28  153 1    
    60   29   30 am   BACKBONE|DICT|INTERRES
    61   29  154 1    
    62   30   31 2    
    63   30   32 1    
    64   32   33 1    
    65   32   34 1    
    66   32  155 1    
    67   33  156 1    
    68   33  157 1    
    69   33  158 1    
    70   34   35 am   BACKBONE|DICT|INTERRES
    71   34  159 1    
    72   35   36 2    
    73   35   37 1    
    74   37   38 1    
    75   37   39 1    
    76   37  160 1    
    77   38  161 1    
    78   38  162 1    
    79   38  163 1    
    80   39   40 am   BACKBONE|DICT|INTERRES
    81   39  164 1    
    82   40   41 2    
    83   40   42 1    
    84   42   43 1    
    85   42   44 1    
    86   42  165 1    
    87   43  166 1    
    88   43  167 1    
    89   43  168 1    
    90   44   45 am   BACKBONE|DICT|INTERRES
    91   44  169 1    
    92   45   46 2    
    93   45   47 1    
    94   47   48 1    
    95   47   49 1    
    96   47  170 1    
    97   48  171 1    
    98   48  172 1    
    99   48  173 1    
   100   49   50 am   BACKBONE|DICT|INTERRES
   101   49  174 1    
   102   50   51 2    
   103   50   52 1    
   104   52   53 1    
   105   52   54 1    
   106   52  175 1    
   107   53  176 1    
   108   53  177 1    
   109   53  178 1    
   110   54   55 am   BACKBONE|DICT|INTERRES
   111   54  179 1    
   112   55   56 2    
   113   55   57 1    
   114   57   58 1    
   115   57   59 1    
   116   57  180 1    
   117   58  181 1    
   118   58  182 1    
   119   58  183 1    
   120   59   60 am   BACKBONE|DICT|INTERRES
   121   59  184 1    
   122   60   61 2    
   123   60   62 1    
   124   62   63 1    
   125   62   64 1    
   126   62  185 1    
   127   63  186 1    
   128   63  187 1    
   129   63  188 1    
   130   64   65 am   BACKBONE|DICT|INTERRES
   131   64  189 1    
   132   65   66 2    
   133   67   68 2    
   134   67   69 am   BACKBONE|DICT|INTERRES
   135   69   70 1    
   136   69  190 1    
   137   70   71 1    
   138   70   72 1    
   139   70  191 1    
   140   71  192 1    
   141   71  193 1    
   142   71  194 1    
   143   72   73 2    
   144   72   74 am   BACKBONE|DICT|INTERRES
   145   74   75 1    
   146   74  195 1    
   147   75   76 1    
   148   75   77 1    
   149   75  196 1    
   150   76  197 1    
   151   76  198 1    
   152   76  199 1    
   153   77   78 2    
   154   77   79 am   BACKBONE|DICT|INTERRES
   155   79   80 1    
   156   79  200 1    
   157   80   81 1    
   158   80   82 1    
   159   80  201 1    
   160   81  202 1    
   161   81  203 1    
   162   81  204 1    
   163   82   83 2    
   164   82   84 am   BACKBONE|DICT|INTERRES
   165   84   85 1    
   166   84  205 1    
   167   85   86 1    
   168   85   87 1    
   169   85  206 1    
   170   86  207 1    
   171   86  208 1    
   172   86  209 1    
   173   87   88 2    
   174   87   89 am   BACKBONE|DICT|INTERRES
   175   89   90 1    
   176   89  210 1    
   177   90   91 1    
   178   90   92 1    
   179   90  211 1    
   180   91  212 1    
   181   91  213 1    
   182   91  214 1    
   183   92   93 2    
   184   92   94 am   BACKBONE|DICT|INTERRES
   185   94   95 1    
   186   94  215 1    
   187   95   96 1    
   188   95   97 1    
   189   95  216 1    
   190   96  217 1    
   191   96  218 1    
   192   96  219 1    
   193   97   98 2    
   194   97   99 am   BACKBONE|DICT|INTERRES
   195   99  100 1    
   196   99  220 1    
   197  100  101 1    
   198  100  102 1    
   199  100  221 1    
   200  101  222 1    
   201  101  223 1    
   202  101  224 1    
   203  102  103 2    
   204  102  104 am   BACKBONE|DICT|INTERRES
   205  104  105 1    
   206  104  225 1    
   207  105  106 1    
   208  105  107 1    
   209  105  226 1    
   210  106  227 1    
   211  106  228 1    
   212  106  229 1    
   213  107  108 2    
   214  107  109 am   BACKBONE|DICT|INTERRES
   215  109  110 1    
   216  109  230 1    
   217  110  111 1    
   218  110  112 1    
   219  110  231 1    
   220  111  232 1    
   221  111  233 1    
   222  111  234 1    
   223  112  113 2    
   224  112  114 am   BACKBONE|DICT|INTERRES
   225  114  115 1    
   226  114  235 1    
   227  115  116 1    
   228  115  117 1    
   229  115  236 1    
   230  116  237 1    
   231  116  238 1    
   232  116  239 1    
   233  117  118 2    
   234  117  119 am   BACKBONE|DICT|INTERRES
   235  119  120 1    
   236  119  240 1    
   237  120  121 1    
   238  120  124 1    
   239  120  241 1    
   240  121  122 am   BACKBONE|DICT|INTERRES
   241  121  123 2    
   242  122  242 1    
   243  122  243 1    
   244  124  125 1    
   245  124  244 1    
   246  124  245 1    
   247  125  126 1    
   248  126  246 1    
   249  126  247 1    
@<TRIPOS>SUBSTRUCTURE
     1 UNK         1 GROUP             0       ****    0 ROOT    
