@<TRIPOS>MOLECULE
3R540
247   249    1
SMALL
USER_CHARGES


@<TRIPOS>ATOM
      1 CA          1.6130  -11.8067  -47.7587 C.3       0 UNK        -0.1800 
      2 C           2.9251  -12.4770  -47.3787 C.2       0 UNK         0.5000 
      3 O           3.9469  -11.7997  -47.2703 O.2       0 UNK        -0.5000 
      4 N           2.8997  -13.8004  -47.1688 N.am      1 UNK        -0.5000 
      5 CA          4.0766  -14.6493  -46.9310 C.3       1 UNK         0.1400 
      6 C6          3.6993  -16.1509  -46.9910 C.3       23 UNK        -0.0398 
      7 S7          5.1309  -17.2380  -47.2940 S.3       23 UNK        -0.2404 
      8 C8          5.1885  -17.2732  -49.1150 C.3       23 UNK        -0.0205 
      9 C9          4.0963  -18.1450  -49.7182 C.ar      23 UNK        -0.0193 
     10 C10         3.1189  -17.5921  -50.5509 C.ar      23 UNK        -0.1150 
     11 C11         2.1501  -18.4052  -51.1496 C.ar      23 UNK        -0.0193 
     12 C12         2.1488  -19.7788  -50.8805 C.ar      23 UNK        -0.1150 
     13 C13         3.1108  -20.3426  -50.0367 C.ar      23 UNK        -0.0193 
     14 C14         4.0927  -19.5201  -49.4767 C.ar      23 UNK        -0.1150 
     15 C15         3.0935  -21.8410  -49.7502 C.3       23 UNK        -0.0205 
     16 S16         3.3065  -22.2437  -47.9814 S.3       23 UNK        -0.2404 
     17 C17         1.8797  -21.3815  -47.2375 C.3       23 UNK        -0.0398 
     18 CA          0.7499  -22.3373  -46.7953 C.3       11 UNK         0.1400 
     19 N          -0.2033  -21.6612  -45.9160 N.am      11 UNK        -0.5000 
     20 C          -1.1819  -22.2703  -45.2334 C.2       10 UNK         0.5000 
     21 O          -1.3557  -23.4890  -45.2213 O.2       10 UNK        -0.5000 
     22 CA         -2.1630  -21.3553  -44.4789 C.3       10 UNK         0.1400 
     23 CB         -1.5641  -20.8981  -43.1408 C.3       10 UNK        -0.1800 
     24 N          -2.5635  -20.1902  -45.2719 N.am      10 UNK        -0.5000 
     25 C          -3.2279  -20.2696  -46.4347 C.2       9 UNK         0.5000 
     26 O          -3.6147  -21.3333  -46.9138 O.2       9 UNK        -0.5000 
     27 CA         -3.4645  -18.9583  -47.2075 C.3       9 UNK         0.1400 
     28 CB         -4.6585  -18.1910  -46.6211 C.3       9 UNK        -0.1800 
     29 N          -2.2879  -18.0891  -47.2316 N.am      9 UNK        -0.5000 
     30 C          -1.1074  -18.4096  -47.7806 C.2       8 UNK         0.5000 
     31 O          -0.8798  -19.4781  -48.3432 O.2       8 UNK        -0.5000 
     32 CA          0.0403  -17.4023  -47.5869 C.3       8 UNK         0.1400 
     33 CB         -0.0829  -16.2071  -48.5436 C.3       8 UNK        -0.1800 
     34 N           0.1041  -16.9222  -46.2067 N.am      8 UNK        -0.5000 
     35 C           0.4225  -17.6927  -45.1568 C.2       7 UNK         0.5000 
     36 O           0.7542  -18.8747  -45.2480 O.2       7 UNK        -0.5000 
     37 CA          0.3150  -17.0371  -43.7700 C.3       7 UNK         0.1400 
     38 CB          1.5842  -16.2392  -43.4466 C.3       7 UNK        -0.1800 
     39 N          -0.8483  -16.1566  -43.6605 N.am      7 UNK        -0.5000 
     40 C          -2.1159  -16.5911  -43.6173 C.2       6 UNK         0.5000 
     41 O          -2.4309  -17.7796  -43.6430 O.2       6 UNK        -0.5000 
     42 CA         -3.2194  -15.5173  -43.5867 C.3       6 UNK         0.1400 
     43 CB         -3.4937  -15.0672  -42.1442 C.3       6 UNK        -0.1800 
     44 N          -2.9074  -14.3455  -44.4067 N.am      6 UNK        -0.5000 
     45 C          -2.6846  -14.3691  -45.7287 C.2       5 UNK         0.5000 
     46 O          -2.7390  -15.3923  -46.4081 O.2       5 UNK        -0.5000 
     47 CA         -2.2996  -13.0393  -46.4013 C.3       5 UNK         0.1400 
     48 CB         -3.5193  -12.4155  -47.0947 C.3       5 UNK        -0.1800 
     49 N          -1.7179  -12.0613  -45.4773 N.am      5 UNK        -0.5000 
     50 C          -0.5238  -12.1873  -44.8863 C.2       4 UNK         0.5000 
     51 O           0.2199  -13.1646  -45.0281 O.2       4 UNK        -0.5000 
     52 CA         -0.0927  -11.0341  -43.9745 C.3       4 UNK         0.1400 
     53 CB         -0.3964  -11.3564  -42.5023 C.3       4 UNK        -0.1800 
     54 N           1.3376  -10.8461  -44.1561 N.am      4 UNK        -0.5000 
     55 C           2.0161   -9.7002  -44.0318 C.2       3 UNK         0.5000 
     56 O           1.4948   -8.6342  -43.7002 O.2       3 UNK        -0.5000 
     57 CA          3.5258   -9.7574  -44.3609 C.3       3 UNK         0.1400 
     58 CB          4.3568   -8.7343  -43.5584 C.3       3 UNK        -0.1800 
     59 N           4.0903  -11.1107  -44.2566 N.am      3 UNK        -0.5000 
     60 C           4.2119  -11.8593  -43.1476 C.2       2 UNK         0.5000 
     61 O           3.9361  -11.4576  -42.0166 O.2       2 UNK        -0.5000 
     62 CA          4.6670  -13.3165  -43.3549 C.3       2 UNK         0.1400 
     63 CB          4.2417  -14.2348  -42.1953 C.3       2 UNK        -0.1800 
     64 N           4.1194  -13.8401  -44.6096 N.am      2 UNK        -0.5000 
     65 C           4.8482  -14.2865  -45.6399 C.2       1 UNK         0.5000 
     66 O           6.0768  -14.3710  -45.6210 O.2       1 UNK        -0.5000 
     67 C           0.0448  -23.0058  -47.9950 C.2       11 UNK         0.5000 
     68 O           0.2970  -24.1793  -48.2629 O.2       11 UNK        -0.5000 
     69 N          -0.8526  -22.2721  -48.6675 N.am      12 UNK        -0.5000 
     70 CA         -1.6665  -22.7616  -49.7805 C.3       12 UNK         0.1400 
     71 CB         -2.4753  -21.6023  -50.3779 C.3       12 UNK        -0.1800 
     72 C          -2.5820  -23.9335  -49.3849 C.2       12 UNK         0.5000 
     73 O          -2.6450  -24.9209  -50.1164 O.2       12 UNK        -0.5000 
     74 N          -3.2316  -23.8364  -48.2174 N.am      13 UNK        -0.5000 
     75 CA         -4.0423  -24.9038  -47.6331 C.3       13 UNK         0.1400 
     76 CB         -4.7768  -24.3781  -46.3911 C.3       13 UNK        -0.1800 
     77 C          -3.2169  -26.1609  -47.2993 C.2       13 UNK         0.5000 
     78 O          -3.6457  -27.2664  -47.6305 O.2       13 UNK        -0.5000 
     79 N          -2.0316  -25.9743  -46.6988 N.am      14 UNK        -0.5000 
     80 CA         -1.0789  -27.0454  -46.3881 C.3       14 UNK         0.1400 
     81 CB          0.0518  -26.4907  -45.5087 C.3       14 UNK        -0.1800 
     82 C          -0.5072  -27.7317  -47.6448 C.2       14 UNK         0.5000 
     83 O          -0.3164  -28.9482  -47.6409 O.2       14 UNK        -0.5000 
     84 N          -0.2825  -26.9477  -48.7071 N.am      15 UNK        -0.5000 
     85 CA          0.1459  -27.4065  -50.0305 C.3       15 UNK         0.1400 
     86 CB          0.7278  -26.2097  -50.8012 C.3       15 UNK        -0.1800 
     87 C          -0.9755  -28.0822  -50.8496 C.2       15 UNK         0.5000 
     88 O          -0.6886  -28.6176  -51.9211 O.2       15 UNK        -0.5000 
     89 N          -2.2190  -28.0390  -50.3475 N.am      16 UNK        -0.5000 
     90 CA         -3.4512  -28.5463  -50.9584 C.3       16 UNK         0.1400 
     91 CB         -3.4011  -30.0789  -51.1337 C.3       16 UNK        -0.1800 
     92 C          -3.8434  -27.7934  -52.2476 C.2       16 UNK         0.5000 
     93 O          -4.4149  -28.3880  -53.1643 O.2       16 UNK        -0.5000 
     94 N          -3.5501  -26.4875  -52.2822 N.am      17 UNK        -0.5000 
     95 CA         -4.0236  -25.5419  -53.2895 C.3       17 UNK         0.1400 
     96 CB         -2.9735  -24.4274  -53.4510 C.3       17 UNK        -0.1800 
     97 C          -5.4124  -24.9921  -52.8965 C.2       17 UNK         0.5000 
     98 O          -6.0538  -25.5122  -51.9787 O.2       17 UNK        -0.5000 
     99 N          -5.8683  -23.9475  -53.5994 N.am      18 UNK        -0.5000 
    100 CA        -7.1944  -23.3297  -53.4772 C.3       18 UNK         0.1400 
    101 CB        -7.4800  -22.5339  -54.7643 C.3       18 UNK        -0.1800 
    102 C         -7.4091  -22.4911  -52.1922 C.2       18 UNK         0.5000 
    103 O         -7.9124  -21.3692  -52.2694 O.2       18 UNK        -0.5000 
    104 N         -7.0523  -23.0659  -51.0356 N.am      19 UNK        -0.5000 
    105 CA        -7.2874  -22.6016  -49.6648 C.3       19 UNK         0.1400 
    106 CB        -8.7473  -22.9008  -49.2621 C.3       19 UNK        -0.1800 
    107 C         -6.8777  -21.1343  -49.4211 C.2       19 UNK         0.5000 
    108 O         -5.6998  -20.8663  -49.2049 O.2       19 UNK        -0.5000 
    109 N         -7.8534  -20.2168  -49.4563 N.am      20 UNK        -0.5000 
    110 CA        -7.6894  -18.7811  -49.2210 C.3       20 UNK         0.1400 
    111 CB        -9.0813  -18.1648  -49.0049 C.3       20 UNK        -0.1800 
    112 C         -6.9237  -18.0230  -50.3271 C.2       20 UNK         0.5000 
    113 O         -6.6037  -16.8502  -50.1278 O.2       20 UNK        -0.5000 
    114 N         -6.6714  -18.6721  -51.4722 N.am      21 UNK        -0.5000 
    115 CA        -5.9042  -18.1330  -52.5957 C.3       21 UNK         0.1400 
    116 CB        -5.9678  -19.1355  -53.7585 C.3       21 UNK        -0.1800 
    117 C         -4.4336  -17.8158  -52.2473 C.2       21 UNK         0.5000 
    118 O         -3.8608  -18.4365  -51.3515 O.2       21 UNK        -0.5000 
    119 N         -3.8597  -16.8854  -53.0202 N.am      22 UNK        -0.5000 
    120 CA        -2.4838  -16.3665  -52.9424 C.3       22 UNK         0.1400 
    121 C         -2.1997  -15.4402  -51.7203 C.2       22 UNK         0.5000 
    122 N         -1.0389  -14.7975  -51.6841 N.am      22 UNK        -0.7600 
    123 O         -3.0288  -15.2452  -50.8351 O.2       22 UNK        -0.5000 
    124 C124       -1.3962  -17.4453  -53.2579 C.3       23 UNK        -0.0398 
    125 S125       -0.5686  -18.2720  -51.8467 S.3       23 UNK        -0.2404 
    126 C126        1.1667  -17.8030  -52.1475 C.3       23 UNK        -0.0205 
    127 H127        1.3852  -10.9977  -47.0656 H         1 UNK         0.0600 
    128 H128        0.7811  -12.5107  -47.7509 H         1 UNK         0.0600 
    129 H129        1.6883  -11.3834  -48.7601 H         1 UNK         0.0600 
    130 H130        2.0150  -14.2810  -47.2307 H         1 UNK         0.3000 
    131 H131        4.7561  -14.4462  -47.7617 H         1 UNK         0.0600 
    132 H132        3.2076  -16.4681  -46.0705 H         1 UNK         0.0800 
    133 H133        2.9763  -16.3274  -47.7873 H         1 UNK         0.0800 
    134 H134        6.1579  -17.6663  -49.4244 H         1 UNK         0.0800 
    135 H135        5.1369  -16.2544  -49.5018 H         1 UNK         0.0800 
    136 H136        3.1335  -16.5317  -50.7604 H         1 UNK         0.1150 
    137 H137        1.4019  -20.4105  -51.3407 H         1 UNK         0.1150 
    138 H138        4.8540  -19.9486  -48.8401 H         1 UNK         0.1150 
    139 H139        2.1625  -22.2897  -50.1007 H         1 UNK         0.0800 
    140 H140        3.8963  -22.3138  -50.3170 H         1 UNK         0.0800 
    141 H141        1.4977  -20.6111  -47.9076 H         1 UNK         0.0800 
    142 H142        2.2635  -20.8455  -46.3685 H         1 UNK         0.0800 
    143 H143        1.2039  -23.1350  -46.2033 H         1 UNK         0.0600 
    144 H144       -0.1182  -20.6524  -45.8495 H         1 UNK         0.3000 
    145 H145       -3.0617  -21.9380  -44.2663 H         1 UNK         0.0600 
    146 H146       -1.2574  -21.7533  -42.5373 H         1 UNK         0.0600 
    147 H147       -0.6876  -20.2661  -43.2858 H         1 UNK         0.0600 
    148 H148       -2.2910  -20.3333  -42.5570 H         1 UNK         0.0600 
    149 H149       -2.3312  -19.2771  -44.8929 H         1 UNK         0.3000 
    150 H150       -3.7025  -19.2179  -48.2409 H         1 UNK         0.0600 
    151 H151       -5.5387  -18.8313  -46.5581 H         1 UNK         0.0600 
    152 H152       -4.9181  -17.3339  -47.2431 H         1 UNK         0.0600 
    153 H153       -4.4477  -17.8259  -45.6161 H         1 UNK         0.0600 
    154 H154       -2.3979  -17.1655  -46.8197 H         1 UNK         0.3000 
    155 H155        0.9777  -17.9171  -47.8106 H         1 UNK         0.0600 
    156 H156       -1.0329  -15.6853  -48.4282 H         1 UNK         0.0600 
    157 H157        0.7185  -15.4858  -48.3928 H         1 UNK         0.0600 
    158 H158       -0.0218  -16.5407  -49.5781 H         1 UNK         0.0600 
    159 H159       -0.2227  -15.9834  -46.0326 H         1 UNK         0.3000 
    160 H160        0.2164  -17.8348  -43.0306 H         1 UNK         0.0600 
    161 H161        1.7057  -15.3884  -44.1167 H         1 UNK         0.0600 
    162 H162        2.4755  -16.8619  -43.5348 H         1 UNK         0.0600 
    163 H163        1.5514  -15.8619  -42.4249 H         1 UNK         0.0600 
    164 H164       -0.6733  -15.1615  -43.6702 H         1 UNK         0.3000 
    165 H165       -4.1310  -15.9679  -43.9841 H         1 UNK         0.0600 
    166 H166       -4.3329  -14.3728  -42.1003 H         1 UNK         0.0600 
    167 H167       -3.7453  -15.9191  -41.5109 H         1 UNK         0.0600 
    168 H168       -2.6261  -14.5747  -41.7032 H         1 UNK         0.0600 
    169 H169       -2.8473  -13.4589  -43.9291 H         1 UNK         0.3000 
    170 H170       -1.5547  -13.2686  -47.1660 H         1 UNK         0.0600 
    171 H171       -3.9569  -13.1104  -47.8132 H         1 UNK         0.0600 
    172 H172       -4.2979  -12.1491  -46.3788 H         1 UNK         0.0600 
    173 H173       -3.2435  -11.5150  -47.6438 H         1 UNK         0.0600 
    174 H174       -2.2657  -11.2303  -45.3050 H         1 UNK         0.3000 
    175 H175       -0.6231  -10.1265  -44.2705 H         1 UNK         0.0600 
    176 H176        0.1210  -12.2589  -42.1736 H         1 UNK         0.0600 
    177 H177       -0.0881  -10.5398  -41.8492 H         1 UNK         0.0600 
    178 H178       -1.4645  -11.5120  -42.3464 H         1 UNK         0.0600 
    179 H179        1.8260  -11.6749  -44.4620 H         1 UNK         0.3000 
    180 H180        3.6074   -9.4849  -45.4140 H         1 UNK         0.0600 
    181 H181        4.2507   -8.8759  -42.4827 H         1 UNK         0.0600 
    182 H182        4.0419   -7.7146  -43.7830 H         1 UNK         0.0600 
    183 H183        5.4161   -8.8063  -43.8047 H         1 UNK         0.0600 
    184 H184        4.3412  -11.5331  -45.1438 H         1 UNK         0.3000 
    185 H185        5.7580  -13.2973  -43.3864 H         1 UNK         0.0600 
    186 H186        4.7381  -13.9473  -41.2678 H         1 UNK         0.0600 
    187 H187        3.1673  -14.1846  -42.0191 H         1 UNK         0.0600 
    188 H188        4.5047  -15.2737  -42.3948 H         1 UNK         0.0600 
    189 H189        3.1176  -13.7812  -44.7227 H         1 UNK         0.3000 
    190 H190       -0.9766  -21.2921  -48.4172 H         1 UNK         0.3000 
    191 H191       -0.9845  -23.1262  -50.5509 H         1 UNK         0.0600 
    192 H192       -3.0862  -21.1111  -49.6220 H         1 UNK         0.0600 
    193 H193       -3.1471  -21.9408  -51.1665 H         1 UNK         0.0600 
    194 H194       -1.8191  -20.8469  -50.8094 H         1 UNK         0.0600 
    195 H195       -3.1822  -22.9616  -47.6982 H         1 UNK         0.3000 
    196 H196       -4.7932  -25.1887  -48.3732 H         1 UNK         0.0600 
    197 H197       -5.4022  -25.1541  -45.9483 H         1 UNK         0.0600 
    198 H198       -5.4266  -23.5401  -46.6442 H         1 UNK         0.0600 
    199 H199       -4.0794  -24.0387  -45.6247 H         1 UNK         0.0600 
    200 H200       -1.7603  -25.0338  -46.4273 H         1 UNK         0.3000 
    201 H201       -1.6114  -27.8055  -45.8128 H         1 UNK         0.0600 
    202 H202       -0.3390  -26.0800  -44.5776 H         1 UNK         0.0600 
    203 H203        0.6062  -25.7005  -46.0154 H         1 UNK         0.0600 
    204 H204        0.7630  -27.2745  -45.2453 H         1 UNK         0.0600 
    205 H205       -0.3872  -25.9425  -48.5944 H         1 UNK         0.3000 
    206 H206        0.9398  -28.1441  -49.8980 H         1 UNK         0.0600 
    207 H207        1.5557  -25.7542  -50.2574 H         1 UNK         0.0600 
    208 H208        1.1099  -26.5162  -51.7756 H         1 UNK         0.0600 
    209 H209       -0.0249  -25.4395  -50.9714 H         1 UNK         0.0600 
    210 H210       -2.3477  -27.5550  -49.4678 H         1 UNK         0.3000 
    211 H211       -4.2441  -28.3301  -50.2411 H         1 UNK         0.0600 
    212 H212       -2.6851  -30.3786  -51.8992 H         1 UNK         0.0600 
    213 H213       -4.3755  -30.4691  -51.4296 H         1 UNK         0.0600 
    214 H214       -3.1246  -30.5729  -50.2022 H         1 UNK         0.0600 
    215 H215       -3.1302  -26.0658  -51.4557 H         1 UNK         0.3000 
    216 H216       -4.1279  -26.0541  -54.2480 H         1 UNK         0.0600 
    217 H217       -3.2039  -23.7790  -54.2966 H         1 UNK         0.0600 
    218 H218       -1.9827  -24.8452  -53.6312 H         1 UNK         0.0600 
    219 H219       -2.9110  -23.8012  -52.5626 H         1 UNK         0.0600 
    220 H220       -5.2709  -23.5569  -54.3131 H         1 UNK         0.3000 
    221 H221       -7.9302  -24.1352  -53.4317 H         1 UNK         0.0600 
    222 H222       -6.7597  -21.7290  -54.9084 H         1 UNK         0.0600 
    223 H223       -7.4390  -23.1790  -55.6422 H         1 UNK         0.0600 
    224 H224       -8.4751  -22.0877  -54.7430 H         1 UNK         0.0600 
    225 H225       -6.6344  -23.9900  -51.1163 H         1 UNK         0.3000 
    226 H226       -6.6419  -23.2043  -49.0239 H         1 UNK         0.0600 
    227 H227       -8.9431  -23.9729  -49.2870 H         1 UNK         0.0600 
    228 H228       -8.9542  -22.5614  -48.2462 H         1 UNK         0.0600 
    229 H229       -9.4657  -22.4220  -49.9284 H         1 UNK         0.0600 
    230 H230       -8.7841  -20.5266  -49.6945 H         1 UNK         0.3000 
    231 H231       -7.1195  -18.6572  -48.2996 H         1 UNK         0.0600 
    232 H232       -9.0091  -17.1008  -48.7756 H         1 UNK         0.0600 
    233 H233       -9.5988  -18.6392  -48.1708 H         1 UNK         0.0600 
    234 H234       -9.7070  -18.2675  -49.8924 H         1 UNK         0.0600 
    235 H235       -6.9886  -19.6311  -51.5605 H         1 UNK         0.3000 
    236 H236       -6.3911  -17.2069  -52.9082 H         1 UNK         0.0600 
    237 H237       -6.9985  -19.3292  -54.0563 H         1 UNK         0.0600 
    238 H238       -5.4426  -18.7581  -54.6367 H         1 UNK         0.0600 
    239 H239       -5.5105  -20.0877  -53.4864 H         1 UNK         0.0600 
    240 H240       -4.4358  -16.4346  -53.7163 H         1 UNK         0.3000 
    241 H241       -2.4620  -15.6739  -53.7850 H         1 UNK         0.0600 
    242 H242       -0.3543  -14.8963  -52.4155 H         1 UNK         0.3800 
    243 H243       -0.8567  -14.1736  -50.9154 H         1 UNK         0.3800 
    244 H244       -1.8177  -18.2245  -53.8941 H         1 UNK         0.0800 
    245 H245       -0.6255  -16.9807  -53.8739 H         1 UNK         0.0800 
    246 H246        1.4551  -18.1278  -53.1481 H         1 UNK         0.0800 
    247 H247        1.2380  -16.7147  -52.1396 H         1 UNK         0.0800 
@<TRIPOS>BOND
     1    1    2 1    
     2    1  127 1    
     3    1  128 1    
     4    1  129 1    
     5    2    3 2    
     6    2    4 am   BACKBONE|DICT|INTERRES
     7    4    5 1    
     8    4  130 1    
     9    5    6 1    
    10    5   65 1    
    11    5  131 1    
    12    6    7 1    
    13    6  132 1    
    14    6  133 1    
    15    7    8 1    
    16    8    9 1    
    17    8  134 1    
    18    8  135 1    
    19    9   10 ar   
    20    9   14 ar   
    21   10   11 ar   
    22   10  136 1    
    23   11   12 ar   
    24   11  126 1    
    25   12   13 ar   
    26   12  137 1    
    27   13   14 ar   
    28   13   15 1    
    29   14  138 1    
    30   15   16 1    
    31   15  139 1    
    32   15  140 1    
    33   16   17 1    
    34   17   18 1    
    35   17  141 1    
    36   17  142 1    
    37   18   19 1    
    38   18   67 1    
    39   18  143 1    
    40   19   20 am   BACKBONE|DICT|INTERRES
    41   19  144 1    
    42   20   21 2    
    43   20   22 1    
    44   22   23 1    
    45   22   24 1    
    46   22  145 1    
    47   23  146 1    
    48   23  147 1    
    49   23  148 1    
    50   24   25 am   BACKBONE|DICT|INTERRES
    51   24  149 1    
    52   25   26 2    
    53   25   27 1    
    54   27   28 1    
    55   27   29 1    
    56   27  150 1    
    57   28  151 1    
    58   28  152 1    
    59   28  153 1    
    60   29   30 am   BACKBONE|DICT|INTERRES
    61   29  154 1    
    62   30   31 2    
    63   30   32 1    
    64   32   33 1    
    65   32   34 1    
    66   32  155 1    
    67   33  156 1    
    68   33  157 1    
    69   33  158 1    
    70   34   35 am   BACKBONE|DICT|INTERRES
    71   34  159 1    
    72   35   36 2    
    73   35   37 1    
    74   37   38 1    
    75   37   39 1    
    76   37  160 1    
    77   38  161 1    
    78   38  162 1    
    79   38  163 1    
    80   39   40 am   BACKBONE|DICT|INTERRES
    81   39  164 1    
    82   40   41 2    
    83   40   42 1    
    84   42   43 1    
    85   42   44 1    
    86   42  165 1    
    87   43  166 1    
    88   43  167 1    
    89   43  168 1    
    90   44   45 am   BACKBONE|DICT|INTERRES
    91   44  169 1    
    92   45   46 2    
    93   45   47 1    
    94   47   48 1    
    95   47   49 1    
    96   47  170 1    
    97   48  171 1    
    98   48  172 1    
    99   48  173 1    
   100   49   50 am   BACKBONE|DICT|INTERRES
   101   49  174 1    
   102   50   51 2    
   103   50   52 1    
   104   52   53 1    
   105   52   54 1    
   106   52  175 1    
   107   53  176 1    
   108   53  177 1    
   109   53  178 1    
   110   54   55 am   BACKBONE|DICT|INTERRES
   111   54  179 1    
   112   55   56 2    
   113   55   57 1    
   114   57   58 1    
   115   57   59 1    
   116   57  180 1    
   117   58  181 1    
   118   58  182 1    
   119   58  183 1    
   120   59   60 am   BACKBONE|DICT|INTERRES
   121   59  184 1    
   122   60   61 2    
   123   60   62 1    
   124   62   63 1    
   125   62   64 1    
   126   62  185 1    
   127   63  186 1    
   128   63  187 1    
   129   63  188 1    
   130   64   65 am   BACKBONE|DICT|INTERRES
   131   64  189 1    
   132   65   66 2    
   133   67   68 2    
   134   67   69 am   BACKBONE|DICT|INTERRES
   135   69   70 1    
   136   69  190 1    
   137   70   71 1    
   138   70   72 1    
   139   70  191 1    
   140   71  192 1    
   141   71  193 1    
   142   71  194 1    
   143   72   73 2    
   144   72   74 am   BACKBONE|DICT|INTERRES
   145   74   75 1    
   146   74  195 1    
   147   75   76 1    
   148   75   77 1    
   149   75  196 1    
   150   76  197 1    
   151   76  198 1    
   152   76  199 1    
   153   77   78 2    
   154   77   79 am   BACKBONE|DICT|INTERRES
   155   79   80 1    
   156   79  200 1    
   157   80   81 1    
   158   80   82 1    
   159   80  201 1    
   160   81  202 1    
   161   81  203 1    
   162   81  204 1    
   163   82   83 2    
   164   82   84 am   BACKBONE|DICT|INTERRES
   165   84   85 1    
   166   84  205 1    
   167   85   86 1    
   168   85   87 1    
   169   85  206 1    
   170   86  207 1    
   171   86  208 1    
   172   86  209 1    
   173   87   88 2    
   174   87   89 am   BACKBONE|DICT|INTERRES
   175   89   90 1    
   176   89  210 1    
   177   90   91 1    
   178   90   92 1    
   179   90  211 1    
   180   91  212 1    
   181   91  213 1    
   182   91  214 1    
   183   92   93 2    
   184   92   94 am   BACKBONE|DICT|INTERRES
   185   94   95 1    
   186   94  215 1    
   187   95   96 1    
   188   95   97 1    
   189   95  216 1    
   190   96  217 1    
   191   96  218 1    
   192   96  219 1    
   193   97   98 2    
   194   97   99 am   BACKBONE|DICT|INTERRES
   195   99  100 1    
   196   99  220 1    
   197  100  101 1    
   198  100  102 1    
   199  100  221 1    
   200  101  222 1    
   201  101  223 1    
   202  101  224 1    
   203  102  103 2    
   204  102  104 am   BACKBONE|DICT|INTERRES
   205  104  105 1    
   206  104  225 1    
   207  105  106 1    
   208  105  107 1    
   209  105  226 1    
   210  106  227 1    
   211  106  228 1    
   212  106  229 1    
   213  107  108 2    
   214  107  109 am   BACKBONE|DICT|INTERRES
   215  109  110 1    
   216  109  230 1    
   217  110  111 1    
   218  110  112 1    
   219  110  231 1    
   220  111  232 1    
   221  111  233 1    
   222  111  234 1    
   223  112  113 2    
   224  112  114 am   BACKBONE|DICT|INTERRES
   225  114  115 1    
   226  114  235 1    
   227  115  116 1    
   228  115  117 1    
   229  115  236 1    
   230  116  237 1    
   231  116  238 1    
   232  116  239 1    
   233  117  118 2    
   234  117  119 am   BACKBONE|DICT|INTERRES
   235  119  120 1    
   236  119  240 1    
   237  120  121 1    
   238  120  124 1    
   239  120  241 1    
   240  121  122 am   BACKBONE|DICT|INTERRES
   241  121  123 2    
   242  122  242 1    
   243  122  243 1    
   244  124  125 1    
   245  124  244 1    
   246  124  245 1    
   247  125  126 1    
   248  126  246 1    
   249  126  247 1    
@<TRIPOS>SUBSTRUCTURE
     1 UNK         1 GROUP             0       ****    0 ROOT    
