@<TRIPOS>MOLECULE
3R540
247   249    1
SMALL
USER_CHARGES


@<TRIPOS>ATOM
      1 CA         -1.5033  -14.3958  -52.4534 C.3       0 UNK        -0.1800 
      2 C          -1.6591  -14.7511  -50.9821 C.2       0 UNK         0.5000 
      3 O          -1.5310  -15.9179  -50.6164 O.2       0 UNK        -0.5000 
      4 N          -1.9376  -13.7531  -50.1380 N.am      1 UNK        -0.5000 
      5 CA         -2.1087  -13.8975  -48.6948 C.3       1 UNK         0.1400 
      6 C6         -3.4962  -14.4872  -48.3164 C.3       23 UNK        -0.0398 
      7 S7         -3.3885  -15.5458  -46.8358 S.3       23 UNK        -0.2404 
      8 C8         -3.1303  -17.1799  -47.5923 C.3       23 UNK        -0.0205 
      9 C9         -4.2749  -18.1253  -47.2781 C.ar      23 UNK        -0.0193 
     10 C10        -5.2746  -18.3659  -48.2232 C.ar      23 UNK        -0.1150 
     11 C11        -6.3257  -19.2469  -47.9423 C.ar      23 UNK        -0.0193 
     12 C12        -6.3686  -19.8790  -46.6936 C.ar      23 UNK        -0.1150 
     13 C13        -5.3778  -19.6362  -45.7347 C.ar      23 UNK        -0.0193 
     14 C14        -4.3338  -18.7605  -46.0363 C.ar      23 UNK        -0.1150 
     15 C15        -5.4539  -20.2801  -44.3568 C.3       23 UNK        -0.0205 
     16 S16        -5.2060  -22.0804  -44.4166 S.3       23 UNK        -0.2404 
     17 C17        -3.3833  -22.2608  -44.4810 C.3       23 UNK        -0.0398 
     18 CA         -2.6726  -22.0070  -45.8478 C.3       11 UNK         0.1400 
     19 N          -1.2186  -21.9080  -45.6714 N.am      11 UNK        -0.5000 
     20 C          -0.3991  -22.9006  -45.2912 C.2       10 UNK         0.5000 
     21 O          -0.7606  -24.0622  -45.0975 O.2       10 UNK        -0.5000 
     22 CA          1.0695  -22.5180  -45.0360 C.3       10 UNK         0.1400 
     23 CB          1.8256  -22.2989  -46.3547 C.3       10 UNK        -0.1800 
     24 N           1.2048  -21.3294  -44.1932 N.am      10 UNK        -0.5000 
     25 C           0.8347  -21.2522  -42.9064 C.2       9 UNK         0.5000 
     26 O           0.3583  -22.1939  -42.2716 O.2       9 UNK        -0.5000 
     27 CA          1.0243  -19.8923  -42.2071 C.3       9 UNK         0.1400 
     28 CB          2.4700  -19.7275  -41.7140 C.3       9 UNK        -0.1800 
     29 N           0.6757  -18.7612  -43.0646 N.am      9 UNK        -0.5000 
     30 C          -0.5645  -18.4762  -43.4853 C.2       8 UNK         0.5000 
     31 O          -1.5698  -19.1019  -43.1481 O.2       8 UNK        -0.5000 
     32 CA         -0.6946  -17.3141  -44.4843 C.3       8 UNK         0.1400 
     33 CB         -0.7396  -15.9586  -43.7635 C.3       8 UNK        -0.1800 
     34 N           0.3810  -17.3091  -45.4763 N.am      8 UNK        -0.5000 
     35 C           0.5661  -18.2566  -46.4070 C.2       7 UNK         0.5000 
     36 O          -0.1586  -19.2443  -46.5360 O.2       7 UNK        -0.5000 
     37 CA          1.7965  -18.0815  -47.3162 C.3       7 UNK         0.1400 
     38 CB          1.5226  -17.0276  -48.4018 C.3       7 UNK        -0.1800 
     39 N           2.9927  -17.6928  -46.5685 N.am      7 UNK        -0.5000 
     40 C           3.5885  -18.4394  -45.6270 C.2       6 UNK         0.5000 
     41 O           3.2243  -19.5720  -45.3189 O.2       6 UNK        -0.5000 
     42 CA          4.7450  -17.7764  -44.8541 C.3       6 UNK         0.1400 
     43 CB          6.0725  -17.9570  -45.6047 C.3       6 UNK        -0.1800 
     44 N           4.5095  -16.3500  -44.6078 N.am      6 UNK        -0.5000 
     45 C           3.4900  -15.8730  -43.8821 C.2       5 UNK         0.5000 
     46 O           2.6805  -16.5905  -43.2861 O.2       5 UNK        -0.5000 
     47 CA          3.2991  -14.3508  -43.8831 C.3       5 UNK         0.1400 
     48 CB          2.7455  -13.8972  -45.2523 C.3       5 UNK        -0.1800 
     49 N           2.3726  -14.0161  -42.8051 N.am      5 UNK        -0.5000 
     50 C           1.9646  -12.7981  -42.4418 C.2       4 UNK         0.5000 
     51 O           2.3511  -11.7507  -42.9659 O.2       4 UNK        -0.5000 
     52 CA          0.9349  -12.7314  -41.3081 C.3       4 UNK         0.1400 
     53 CB          1.5658  -12.2290  -39.9981 C.3       4 UNK        -0.1800 
     54 N          -0.1219  -11.8308  -41.7447 N.am      4 UNK        -0.5000 
     55 C          -1.3934  -11.8492  -41.3315 C.2       3 UNK         0.5000 
     56 O          -1.8095  -12.5639  -40.4188 O.2       3 UNK        -0.5000 
     57 CA         -2.3738  -10.9330  -42.0934 C.3       3 UNK         0.1400 
     58 CB         -2.4560   -9.5533  -41.4223 C.3       3 UNK        -0.1800 
     59 N          -2.0214  -10.7624  -43.5084 N.am      3 UNK        -0.5000 
     60 C          -2.0346  -11.7496  -44.4145 C.2       2 UNK         0.5000 
     61 O          -2.4021  -12.9008  -44.1649 O.2       2 UNK        -0.5000 
     62 CA         -1.5294  -11.3993  -45.8231 C.3       2 UNK         0.1400 
     63 CB         -0.0319  -11.0394  -45.8050 C.3       2 UNK        -0.1800 
     64 N          -1.7483  -12.5527  -46.6889 N.am      2 UNK        -0.5000 
     65 C          -1.8400  -12.5391  -48.0206 C.2       1 UNK         0.5000 
     66 O          -1.7290  -11.5186  -48.7071 O.2       1 UNK        -0.5000 
     67 C          -3.0795  -22.9699  -46.9970 C.2       11 UNK         0.5000 
     68 O          -2.2319  -23.4308  -47.7680 O.2       11 UNK        -0.5000 
     69 N          -4.3874  -23.2203  -47.1270 N.am      12 UNK        -0.5000 
     70 CA         -5.0641  -23.9964  -48.1682 C.3       12 UNK         0.1400 
     71 CB         -6.5582  -24.0654  -47.8179 C.3       12 UNK        -0.1800 
     72 C          -4.5016  -25.4114  -48.3898 C.2       12 UNK         0.5000 
     73 O          -4.4904  -25.8847  -49.5257 O.2       12 UNK        -0.5000 
     74 N          -3.9823  -26.0285  -47.3191 N.am      13 UNK        -0.5000 
     75 CA         -3.3126  -27.3322  -47.3206 C.3       13 UNK         0.1400 
     76 CB         -2.9202  -27.6842  -45.8776 C.3       13 UNK        -0.1800 
     77 C          -2.0797  -27.4147  -48.2461 C.2       13 UNK         0.5000 
     78 O          -1.7386  -28.5102  -48.6940 O.2       13 UNK        -0.5000 
     79 N          -1.4524  -26.2660  -48.5287 N.am      14 UNK        -0.5000 
     80 CA         -0.3339  -26.1196  -49.4581 C.3       14 UNK         0.1400 
     81 CB          0.9405  -25.8330  -48.6466 C.3       14 UNK        -0.1800 
     82 C          -0.6150  -25.0193  -50.5001 C.2       14 UNK         0.5000 
     83 O           0.3308  -24.4821  -51.0777 O.2       14 UNK        -0.5000 
     84 N          -1.8961  -24.6671  -50.7024 N.am      15 UNK        -0.5000 
     85 CA         -2.3886  -23.6033  -51.5902 C.3       15 UNK         0.1400 
     86 CB         -2.2429  -24.0315  -53.0640 C.3       15 UNK        -0.1800 
     87 C          -1.7628  -22.2204  -51.2979 C.2       15 UNK         0.5000 
     88 O          -1.4527  -21.4648  -52.2195 O.2       15 UNK        -0.5000 
     89 N          -1.5515  -21.9412  -50.0045 N.am      16 UNK        -0.5000 
     90 CA         -0.8505  -20.7858  -49.4443 C.3       16 UNK         0.1400 
     91 CB         -1.6226  -19.4862  -49.7320 C.3       16 UNK        -0.1800 
     92 C           0.6196  -20.7281  -49.9011 C.2       16 UNK         0.5000 
     93 O           1.0905  -19.6799  -50.3356 O.2       16 UNK        -0.5000 
     94 N           1.3053  -21.8800  -49.8479 N.am      17 UNK        -0.5000 
     95 CA          2.6521  -22.1168  -50.3873 C.3       17 UNK         0.1400 
     96 CB          3.7131  -21.3122  -49.6053 C.3       17 UNK        -0.1800 
     97 C           2.7050  -21.8784  -51.9139 C.2       17 UNK         0.5000 
     98 O           3.6575  -21.2873  -52.4249 O.2       17 UNK        -0.5000 
     99 N           1.6389  -22.3217  -52.5958 N.am      18 UNK        -0.5000 
    100 CA         1.3231  -22.1490  -54.0171 C.3       18 UNK         0.1400 
    101 CB         2.3563  -22.8826  -54.8969 C.3       18 UNK        -0.1800 
    102 C          1.0991  -20.6853  -54.4639 C.2       18 UNK         0.5000 
    103 O          1.0804  -20.4261  -55.6688 O.2       18 UNK        -0.5000 
    104 N          0.9243  -19.7505  -53.5182 N.am      19 UNK        -0.5000 
    105 CA         0.7058  -18.3318  -53.8046 C.3       19 UNK         0.1400 
    106 CB         1.1883  -17.4875  -52.6148 C.3       19 UNK        -0.1800 
    107 C         -0.7608  -17.9957  -54.1317 C.2       19 UNK         0.5000 
    108 O         -1.0014  -16.9608  -54.7555 O.2       19 UNK        -0.5000 
    109 N         -1.7082  -18.8427  -53.7083 N.am      20 UNK        -0.5000 
    110 CA        -3.1451  -18.6233  -53.8572 C.3       20 UNK         0.1400 
    111 CB        -3.7652  -18.4714  -52.4567 C.3       20 UNK        -0.1800 
    112 C         -3.8061  -19.7854  -54.6136 C.2       20 UNK         0.5000 
    113 O         -3.1908  -20.8294  -54.8362 O.2       20 UNK        -0.5000 
    114 N         -5.0840  -19.5892  -54.9596 N.am      21 UNK        -0.5000 
    115 CA        -5.9606  -20.5946  -55.5687 C.3       21 UNK         0.1400 
    116 CB        -7.0203  -19.8657  -56.4125 C.3       21 UNK        -0.1800 
    117 C         -6.6261  -21.5242  -54.5278 C.2       21 UNK         0.5000 
    118 O         -7.4557  -22.3536  -54.9019 O.2       21 UNK        -0.5000 
    119 N         -6.2733  -21.3587  -53.2459 N.am      22 UNK        -0.5000 
    120 CA        -6.8317  -22.0648  -52.0795 C.3       22 UNK         0.1400 
    121 C         -6.5693  -23.5994  -52.0252 C.2       22 UNK         0.5000 
    122 N         -5.7099  -24.1662  -52.8618 N.am      22 UNK        -0.7600 
    123 O         -7.1709  -24.2908  -51.2106 O.2       22 UNK        -0.5000 
    124 C124       -6.3927  -21.3860  -50.7534 C.3       23 UNK        -0.0398 
    125 S125       -6.8997  -19.6348  -50.6748 S.3       23 UNK        -0.2404 
    126 C126       -7.4586  -19.4594  -48.9446 C.3       23 UNK        -0.0205 
    127 H127       -0.4956  -14.6336  -52.7928 H         1 UNK         0.0600 
    128 H128       -1.6846  -13.3366  -52.6373 H         1 UNK         0.0600 
    129 H129       -2.2089  -14.9715  -53.0527 H         1 UNK         0.0600 
    130 H130       -1.9819  -12.7937  -50.4600 H         1 UNK         0.3000 
    131 H131       -1.3188  -14.5708  -48.3525 H         1 UNK         0.0600 
    132 H132       -3.9113  -15.0773  -49.1343 H         1 UNK         0.0800 
    133 H133       -4.2327  -13.7016  -48.1378 H         1 UNK         0.0800 
    134 H134       -2.1988  -17.6017  -47.2213 H         1 UNK         0.0800 
    135 H135       -3.0001  -17.0921  -48.6711 H         1 UNK         0.0800 
    136 H136       -5.2379  -17.8567  -49.1759 H         1 UNK         0.1150 
    137 H137       -7.1865  -20.5443  -46.4544 H         1 UNK         0.1150 
    138 H138       -3.5698  -18.5677  -45.2978 H         1 UNK         0.1150 
    139 H139       -4.7326  -19.8334  -43.6701 H         1 UNK         0.0800 
    140 H140       -6.4391  -20.0792  -43.9336 H         1 UNK         0.0800 
    141 H141       -3.1488  -23.2653  -44.1260 H         1 UNK         0.0800 
    142 H142       -2.9664  -21.5873  -43.7302 H         1 UNK         0.0800 
    143 H143       -2.9630  -21.0200  -46.1985 H         1 UNK         0.0600 
    144 H144       -0.8173  -20.9885  -45.8326 H         1 UNK         0.3000 
    145 H145        1.5424  -23.3520  -44.5135 H         1 UNK         0.0600 
    146 H146        2.8881  -22.1377  -46.1733 H         1 UNK         0.0600 
    147 H147        1.7421  -23.1652  -47.0076 H         1 UNK         0.0600 
    148 H148        1.4465  -21.4353  -46.9004 H         1 UNK         0.0600 
    149 H149        1.6598  -20.5272  -44.6180 H         1 UNK         0.3000 
    150 H150        0.3646  -19.8700  -41.3371 H         1 UNK         0.0600 
    151 H151        2.7464  -20.5374  -41.0378 H         1 UNK         0.0600 
    152 H152        2.5969  -18.7909  -41.1707 H         1 UNK         0.0600 
    153 H153        3.1808  -19.7325  -42.5405 H         1 UNK         0.0600 
    154 H154        1.4368  -18.1539  -43.3509 H         1 UNK         0.3000 
    155 H155       -1.6379  -17.4373  -45.0130 H         1 UNK         0.0600 
    156 H156       -1.6069  -15.8983  -43.1050 H         1 UNK         0.0600 
    157 H157       -0.8163  -15.1357  -44.4740 H         1 UNK         0.0600 
    158 H158        0.1453  -15.7930  -43.1512 H         1 UNK         0.0600 
    159 H159        1.0555  -16.5637  -45.4064 H         1 UNK         0.3000 
    160 H160        1.9971  -19.0392  -47.7997 H         1 UNK         0.0600 
    161 H161        2.3464  -16.9755  -49.1139 H         1 UNK         0.0600 
    162 H162        1.3789  -16.0330  -47.9783 H         1 UNK         0.0600 
    163 H163        0.6259  -17.2696  -48.9724 H         1 UNK         0.0600 
    164 H164        3.3705  -16.7777  -46.7613 H         1 UNK         0.3000 
    165 H165        4.8274  -18.2766  -43.8868 H         1 UNK         0.0600 
    166 H166        6.9083  -17.5590  -45.0289 H         1 UNK         0.0600 
    167 H167        6.2774  -19.0132  -45.7849 H         1 UNK         0.0600 
    168 H168        6.0615  -17.4549  -46.5729 H         1 UNK         0.0600 
    169 H169        5.1365  -15.7028  -45.0640 H         1 UNK         0.3000 
    170 H170        4.2622  -13.8752  -43.6888 H         1 UNK         0.0600 
    171 H171        3.3565  -14.2675  -46.0761 H         1 UNK         0.0600 
    172 H172        1.7266  -14.2514  -45.4131 H         1 UNK         0.0600 
    173 H173        2.7408  -12.8115  -45.3392 H         1 UNK         0.0600 
    174 H174        2.0262  -14.8352  -42.3196 H         1 UNK         0.3000 
    175 H175        0.5148  -13.7270  -41.1485 H         1 UNK         0.0600 
    176 H176        1.9807  -11.2265  -40.1110 H         1 UNK         0.0600 
    177 H177        0.8329  -12.1988  -39.1917 H         1 UNK         0.0600 
    178 H178        2.3746  -12.8870  -39.6783 H         1 UNK         0.0600 
    179 H179        0.1396  -11.2210  -42.5082 H         1 UNK         0.3000 
    180 H180       -3.3619  -11.3957  -42.0452 H         1 UNK         0.0600 
    181 H181       -1.5000   -9.0296  -41.4588 H         1 UNK         0.0600 
    182 H182       -2.7393   -9.6464  -40.3729 H         1 UNK         0.0600 
    183 H183       -3.2038   -8.9235  -41.9046 H         1 UNK         0.0600 
    184 H184       -1.7170   -9.8411  -43.7884 H         1 UNK         0.3000 
    185 H185       -2.1112  -10.5528  -46.1934 H         1 UNK         0.0600 
    186 H186        0.1579  -10.1524  -45.1999 H         1 UNK         0.0600 
    187 H187        0.5645  -11.8519  -45.3909 H         1 UNK         0.0600 
    188 H188        0.3408  -10.8283  -46.8073 H         1 UNK         0.0600 
    189 H189       -1.9408  -13.4079  -46.1784 H         1 UNK         0.3000 
    190 H190       -4.9975  -22.8060  -46.4323 H         1 UNK         0.3000 
    191 H191       -4.9488  -23.4523  -49.1065 H         1 UNK         0.0600 
    192 H192       -7.0004  -23.0705  -47.7654 H         1 UNK         0.0600 
    193 H193       -7.1142  -24.6299  -48.5669 H         1 UNK         0.0600 
    194 H194       -6.7215  -24.5531  -46.8561 H         1 UNK         0.0600 
    195 H195       -4.0160  -25.5446  -46.4340 H         1 UNK         0.3000 
    196 H196       -4.0339  -28.0722  -47.6729 H         1 UNK         0.0600 
    197 H197       -2.4391  -28.6621  -45.8297 H         1 UNK         0.0600 
    198 H198       -3.7945  -27.7219  -45.2275 H         1 UNK         0.0600 
    199 H199       -2.2230  -26.9544  -45.4630 H         1 UNK         0.0600 
    200 H200       -1.7929  -25.4054  -48.1100 H         1 UNK         0.3000 
    201 H201       -0.1808  -27.0396  -50.0254 H         1 UNK         0.0600 
    202 H202        1.1546  -26.6464  -47.9532 H         1 UNK         0.0600 
    203 H203        0.8340  -24.9195  -48.0642 H         1 UNK         0.0600 
    204 H204        1.8124  -25.7208  -49.2921 H         1 UNK         0.0600 
    205 H205       -2.6127  -25.1824  -50.2038 H         1 UNK         0.3000 
    206 H206       -3.4520  -23.4959  -51.3769 H         1 UNK         0.0600 
    207 H207       -2.7705  -24.9661  -53.2532 H         1 UNK         0.0600 
    208 H208       -2.6606  -23.2826  -53.7373 H         1 UNK         0.0600 
    209 H209       -1.1998  -24.1790  -53.3415 H         1 UNK         0.0600 
    210 H210       -1.8286  -22.6380  -49.3150 H         1 UNK         0.3000 
    211 H211       -0.8371  -20.9366  -48.3660 H         1 UNK         0.0600 
    212 H212       -2.6736  -19.5779  -49.4598 H         1 UNK         0.0600 
    213 H213       -1.5643  -19.2051  -50.7827 H         1 UNK         0.0600 
    214 H214       -1.2041  -18.6600  -49.1609 H         1 UNK         0.0600 
    215 H215        0.8094  -22.7093  -49.5542 H         1 UNK         0.3000 
    216 H216        2.8622  -23.1765  -50.2353 H         1 UNK         0.0600 
    217 H217        4.7198  -21.5893  -49.9194 H         1 UNK         0.0600 
    218 H218        3.6449  -21.5018  -48.5348 H         1 UNK         0.0600 
    219 H219        3.6087  -20.2382  -49.7613 H         1 UNK         0.0600 
    220 H220        0.9433  -22.8368  -52.0652 H         1 UNK         0.3000 
    221 H221        0.3630  -22.6425  -54.1658 H         1 UNK         0.0600 
    222 H222        3.3334  -22.4005  -54.8614 H         1 UNK         0.0600 
    223 H223        2.4799  -23.9179  -54.5790 H         1 UNK         0.0600 
    224 H224        2.0405  -22.9023  -55.9405 H         1 UNK         0.0600 
    225 H225        0.9344  -20.0210  -52.5420 H         1 UNK         0.3000 
    226 H226        1.3106  -18.0532  -54.6701 H         1 UNK         0.0600 
    227 H227        0.5255  -17.5886  -51.7545 H         1 UNK         0.0600 
    228 H228        2.1933  -17.7718  -52.3024 H         1 UNK         0.0600 
    229 H229        1.2150  -16.4296  -52.8766 H         1 UNK         0.0600 
    230 H230       -1.4421  -19.7214  -53.2718 H         1 UNK         0.3000 
    231 H231       -3.3407  -17.7105  -54.4232 H         1 UNK         0.0600 
    232 H232       -3.2607  -17.6932  -51.8838 H         1 UNK         0.0600 
    233 H233       -3.7050  -19.3990  -51.8863 H         1 UNK         0.0600 
    234 H234       -4.8168  -18.1899  -52.5158 H         1 UNK         0.0600 
    235 H235       -5.5181  -18.7038  -54.7397 H         1 UNK         0.3000 
    236 H236       -5.3722  -21.2269  -56.2369 H         1 UNK         0.0600 
    237 H237       -6.5553  -19.2321  -57.1680 H         1 UNK         0.0600 
    238 H238       -7.6614  -20.5745  -56.9384 H         1 UNK         0.0600 
    239 H239       -7.6631  -19.2369  -55.7953 H         1 UNK         0.0600 
    240 H240       -5.5973  -20.6409  -53.0380 H         1 UNK         0.3000 
    241 H241       -7.9164  -21.9652  -52.1526 H         1 UNK         0.0600 
    242 H242       -5.2528  -23.6230  -53.5751 H         1 UNK         0.3800 
    243 H243       -5.5686  -25.1627  -52.8155 H         1 UNK         0.3800 
    244 H244       -6.8245  -21.9096  -49.9002 H         1 UNK         0.0800 
    245 H245       -5.3095  -21.4377  -50.6315 H         1 UNK         0.0800 
    246 H246       -8.0680  -20.3217  -48.6701 H         1 UNK         0.0800 
    247 H247       -8.1187  -18.5932  -48.8884 H         1 UNK         0.0800 
@<TRIPOS>BOND
     1    1    2 1    
     2    1  127 1    
     3    1  128 1    
     4    1  129 1    
     5    2    3 2    
     6    2    4 am   BACKBONE|DICT|INTERRES
     7    4    5 1    
     8    4  130 1    
     9    5    6 1    
    10    5   65 1    
    11    5  131 1    
    12    6    7 1    
    13    6  132 1    
    14    6  133 1    
    15    7    8 1    
    16    8    9 1    
    17    8  134 1    
    18    8  135 1    
    19    9   10 ar   
    20    9   14 ar   
    21   10   11 ar   
    22   10  136 1    
    23   11   12 ar   
    24   11  126 1    
    25   12   13 ar   
    26   12  137 1    
    27   13   14 ar   
    28   13   15 1    
    29   14  138 1    
    30   15   16 1    
    31   15  139 1    
    32   15  140 1    
    33   16   17 1    
    34   17   18 1    
    35   17  141 1    
    36   17  142 1    
    37   18   19 1    
    38   18   67 1    
    39   18  143 1    
    40   19   20 am   BACKBONE|DICT|INTERRES
    41   19  144 1    
    42   20   21 2    
    43   20   22 1    
    44   22   23 1    
    45   22   24 1    
    46   22  145 1    
    47   23  146 1    
    48   23  147 1    
    49   23  148 1    
    50   24   25 am   BACKBONE|DICT|INTERRES
    51   24  149 1    
    52   25   26 2    
    53   25   27 1    
    54   27   28 1    
    55   27   29 1    
    56   27  150 1    
    57   28  151 1    
    58   28  152 1    
    59   28  153 1    
    60   29   30 am   BACKBONE|DICT|INTERRES
    61   29  154 1    
    62   30   31 2    
    63   30   32 1    
    64   32   33 1    
    65   32   34 1    
    66   32  155 1    
    67   33  156 1    
    68   33  157 1    
    69   33  158 1    
    70   34   35 am   BACKBONE|DICT|INTERRES
    71   34  159 1    
    72   35   36 2    
    73   35   37 1    
    74   37   38 1    
    75   37   39 1    
    76   37  160 1    
    77   38  161 1    
    78   38  162 1    
    79   38  163 1    
    80   39   40 am   BACKBONE|DICT|INTERRES
    81   39  164 1    
    82   40   41 2    
    83   40   42 1    
    84   42   43 1    
    85   42   44 1    
    86   42  165 1    
    87   43  166 1    
    88   43  167 1    
    89   43  168 1    
    90   44   45 am   BACKBONE|DICT|INTERRES
    91   44  169 1    
    92   45   46 2    
    93   45   47 1    
    94   47   48 1    
    95   47   49 1    
    96   47  170 1    
    97   48  171 1    
    98   48  172 1    
    99   48  173 1    
   100   49   50 am   BACKBONE|DICT|INTERRES
   101   49  174 1    
   102   50   51 2    
   103   50   52 1    
   104   52   53 1    
   105   52   54 1    
   106   52  175 1    
   107   53  176 1    
   108   53  177 1    
   109   53  178 1    
   110   54   55 am   BACKBONE|DICT|INTERRES
   111   54  179 1    
   112   55   56 2    
   113   55   57 1    
   114   57   58 1    
   115   57   59 1    
   116   57  180 1    
   117   58  181 1    
   118   58  182 1    
   119   58  183 1    
   120   59   60 am   BACKBONE|DICT|INTERRES
   121   59  184 1    
   122   60   61 2    
   123   60   62 1    
   124   62   63 1    
   125   62   64 1    
   126   62  185 1    
   127   63  186 1    
   128   63  187 1    
   129   63  188 1    
   130   64   65 am   BACKBONE|DICT|INTERRES
   131   64  189 1    
   132   65   66 2    
   133   67   68 2    
   134   67   69 am   BACKBONE|DICT|INTERRES
   135   69   70 1    
   136   69  190 1    
   137   70   71 1    
   138   70   72 1    
   139   70  191 1    
   140   71  192 1    
   141   71  193 1    
   142   71  194 1    
   143   72   73 2    
   144   72   74 am   BACKBONE|DICT|INTERRES
   145   74   75 1    
   146   74  195 1    
   147   75   76 1    
   148   75   77 1    
   149   75  196 1    
   150   76  197 1    
   151   76  198 1    
   152   76  199 1    
   153   77   78 2    
   154   77   79 am   BACKBONE|DICT|INTERRES
   155   79   80 1    
   156   79  200 1    
   157   80   81 1    
   158   80   82 1    
   159   80  201 1    
   160   81  202 1    
   161   81  203 1    
   162   81  204 1    
   163   82   83 2    
   164   82   84 am   BACKBONE|DICT|INTERRES
   165   84   85 1    
   166   84  205 1    
   167   85   86 1    
   168   85   87 1    
   169   85  206 1    
   170   86  207 1    
   171   86  208 1    
   172   86  209 1    
   173   87   88 2    
   174   87   89 am   BACKBONE|DICT|INTERRES
   175   89   90 1    
   176   89  210 1    
   177   90   91 1    
   178   90   92 1    
   179   90  211 1    
   180   91  212 1    
   181   91  213 1    
   182   91  214 1    
   183   92   93 2    
   184   92   94 am   BACKBONE|DICT|INTERRES
   185   94   95 1    
   186   94  215 1    
   187   95   96 1    
   188   95   97 1    
   189   95  216 1    
   190   96  217 1    
   191   96  218 1    
   192   96  219 1    
   193   97   98 2    
   194   97   99 am   BACKBONE|DICT|INTERRES
   195   99  100 1    
   196   99  220 1    
   197  100  101 1    
   198  100  102 1    
   199  100  221 1    
   200  101  222 1    
   201  101  223 1    
   202  101  224 1    
   203  102  103 2    
   204  102  104 am   BACKBONE|DICT|INTERRES
   205  104  105 1    
   206  104  225 1    
   207  105  106 1    
   208  105  107 1    
   209  105  226 1    
   210  106  227 1    
   211  106  228 1    
   212  106  229 1    
   213  107  108 2    
   214  107  109 am   BACKBONE|DICT|INTERRES
   215  109  110 1    
   216  109  230 1    
   217  110  111 1    
   218  110  112 1    
   219  110  231 1    
   220  111  232 1    
   221  111  233 1    
   222  111  234 1    
   223  112  113 2    
   224  112  114 am   BACKBONE|DICT|INTERRES
   225  114  115 1    
   226  114  235 1    
   227  115  116 1    
   228  115  117 1    
   229  115  236 1    
   230  116  237 1    
   231  116  238 1    
   232  116  239 1    
   233  117  118 2    
   234  117  119 am   BACKBONE|DICT|INTERRES
   235  119  120 1    
   236  119  240 1    
   237  120  121 1    
   238  120  124 1    
   239  120  241 1    
   240  121  122 am   BACKBONE|DICT|INTERRES
   241  121  123 2    
   242  122  242 1    
   243  122  243 1    
   244  124  125 1    
   245  124  244 1    
   246  124  245 1    
   247  125  126 1    
   248  126  246 1    
   249  126  247 1    
@<TRIPOS>SUBSTRUCTURE
     1 UNK         1 GROUP             0       ****    0 ROOT    
