@<TRIPOS>MOLECULE
3R540
247   249    1
SMALL
USER_CHARGES


@<TRIPOS>ATOM
      1 CA         -3.3805  -13.9338  -46.6686 C.3       0 UNK        -0.1800 
      2 C          -2.7594  -13.0617  -47.7506 C.2       0 UNK         0.5000 
      3 O          -3.3536  -12.0588  -48.1460 O.2       0 UNK        -0.5000 
      4 N          -1.5694  -13.4432  -48.2336 N.am      1 UNK        -0.5000 
      5 CA         -0.8210  -12.7382  -49.2852 C.3       1 UNK         0.1400 
      6 C6          0.3646  -13.5786  -49.8191 C.3       23 UNK        -0.0398 
      7 S7         -0.1333  -15.1842  -50.5244 S.3       23 UNK        -0.2404 
      8 C8          1.2847  -16.2077  -50.0203 C.3       23 UNK        -0.0205 
      9 C9          1.3789  -17.5019  -50.8145 C.ar      23 UNK        -0.0193 
     10 C10         1.7919  -17.4697  -52.1506 C.ar      23 UNK        -0.1150 
     11 C11         1.9511  -18.6540  -52.8755 C.ar      23 UNK        -0.0193 
     12 C12         1.7263  -19.8781  -52.2416 C.ar      23 UNK        -0.1150 
     13 C13         1.2698  -19.9239  -50.9228 C.ar      23 UNK        -0.0193 
     14 C14         1.0956  -18.7321  -50.2116 C.ar      23 UNK        -0.1150 
     15 C15         0.9443  -21.2661  -50.2901 C.3       23 UNK        -0.0205 
     16 S16         2.2994  -21.8590  -49.2272 S.3       23 UNK        -0.2404 
     17 C17         1.6664  -21.4159  -47.5734 C.3       23 UNK        -0.0398 
     18 CA          0.9962  -22.6024  -46.8372 C.3       11 UNK         0.1400 
     19 N           0.7031  -22.2758  -45.4418 N.am      11 UNK        -0.5000 
     20 C           0.2562  -23.1463  -44.5256 C.2       10 UNK         0.5000 
     21 O           0.1244  -24.3533  -44.7321 O.2       10 UNK        -0.5000 
     22 CA         -0.1726  -22.5543  -43.1705 C.3       10 UNK         0.1400 
     23 CB          1.0437  -22.3254  -42.2614 C.3       10 UNK        -0.1800 
     24 N          -0.9234  -21.3049  -43.3220 N.am      10 UNK        -0.5000 
     25 C          -2.1132  -21.2121  -43.9343 C.2       9 UNK         0.5000 
     26 O          -2.7272  -22.1824  -44.3764 O.2       9 UNK        -0.5000 
     27 CA         -2.7003  -19.8024  -44.1241 C.3       9 UNK         0.1400 
     28 CB         -3.3988  -19.3284  -42.8414 C.3       9 UNK        -0.1800 
     29 N          -1.6988  -18.8190  -44.5392 N.am      9 UNK        -0.5000 
     30 C          -1.0355  -18.8480  -45.7039 C.2       8 UNK         0.5000 
     31 O          -1.2284  -19.6926  -46.5765 O.2       8 UNK        -0.5000 
     32 CA          0.0713  -17.7955  -45.9086 C.3       8 UNK         0.1400 
     33 CB         -0.5132  -16.4448  -46.3429 C.3       8 UNK        -0.1800 
     34 N           0.8961  -17.6144  -44.7147 N.am      8 UNK        -0.5000 
     35 C           1.6627  -18.5739  -44.1766 C.2       7 UNK         0.5000 
     36 O           1.8005  -19.6953  -44.6658 O.2       7 UNK        -0.5000 
     37 CA          2.3425  -18.2412  -42.8388 C.3       7 UNK         0.1400 
     38 CB          3.6366  -17.4446  -43.0617 C.3       7 UNK        -0.1800 
     39 N           1.4472  -17.4997  -41.9501 N.am      7 UNK        -0.5000 
     40 C           0.3727  -18.0335  -41.3512 C.2       6 UNK         0.5000 
     41 O           0.0488  -19.2160  -41.4584 O.2       6 UNK        -0.5000 
     42 CA         -0.5112  -17.0761  -40.5306 C.3       6 UNK         0.1400 
     43 CB          0.0611  -16.8853  -39.1182 C.3       6 UNK        -0.1800 
     44 N          -0.6714  -15.7700  -41.1714 N.am      6 UNK        -0.5000 
     45 C          -1.3115  -15.5702  -42.3322 C.2       5 UNK         0.5000 
     46 O          -1.8715  -16.4630  -42.9640 O.2       5 UNK        -0.5000 
     47 CA         -1.2804  -14.1470  -42.9132 C.3       5 UNK         0.1400 
     48 CB         -2.4904  -13.3332  -42.4342 C.3       5 UNK        -0.1800 
     49 N          -0.0525  -13.4190  -42.5983 N.am      5 UNK        -0.5000 
     50 C           1.1776  -13.7553  -43.0054 C.2       4 UNK         0.5000 
     51 O           1.4169  -14.7819  -43.6454 O.2       4 UNK        -0.5000 
     52 CA          2.3115  -12.7690  -42.6413 C.3       4 UNK         0.1400 
     53 CB          3.6586  -13.1601  -43.2742 C.3       4 UNK        -0.1800 
     54 N           1.9854  -11.3965  -43.0391 N.am      4 UNK        -0.5000 
     55 C           1.1440  -10.5694  -42.4017 C.2       3 UNK         0.5000 
     56 O           0.6078  -10.8457  -41.3278 O.2       3 UNK        -0.5000 
     57 CA          0.7917   -9.2430  -43.1063 C.3       3 UNK         0.1400 
     58 CB          1.6737   -8.1027  -42.5759 C.3       3 UNK        -0.1800 
     59 N           0.9053   -9.2967  -44.5685 N.am      3 UNK        -0.5000 
     60 C           0.1976  -10.1016  -45.3744 C.2       2 UNK         0.5000 
     61 O          -0.6640  -10.8874  -44.9697 O.2       2 UNK        -0.5000 
     62 CA          0.5279  -10.0376  -46.8759 C.3       2 UNK         0.1400 
     63 CB          2.0477   -9.9785  -47.1468 C.3       2 UNK        -0.1800 
     64 N          -0.0445  -11.2124  -47.5230 N.am      2 UNK        -0.5000 
     65 C          -0.2906  -11.3605  -48.8288 C.2       1 UNK         0.5000 
     66 O          -0.0918  -10.4786  -49.6657 O.2       1 UNK        -0.5000 
     67 C          -0.2638  -23.1145  -47.5682 C.2       11 UNK         0.5000 
     68 O          -0.2027  -24.1642  -48.2053 O.2       11 UNK        -0.5000 
     69 N          -1.3869  -22.3941  -47.4375 N.am      12 UNK        -0.5000 
     70 CA         -2.6751  -22.7510  -48.0347 C.3       12 UNK         0.1400 
     71 CB         -3.6910  -21.6274  -47.7841 C.3       12 UNK        -0.1800 
     72 C          -3.2224  -24.1020  -47.5391 C.2       12 UNK         0.5000 
     73 O          -3.7285  -24.8868  -48.3413 O.2       12 UNK        -0.5000 
     74 N          -3.0707  -24.3714  -46.2354 N.am      13 UNK        -0.5000 
     75 CA         -3.4210  -25.6442  -45.6055 C.3       13 UNK         0.1400 
     76 CB         -3.2921  -25.5157  -44.0803 C.3       13 UNK        -0.1800 
     77 C          -2.5796  -26.8230  -46.1310 C.2       13 UNK         0.5000 
     78 O          -3.1265  -27.9050  -46.3459 O.2       13 UNK        -0.5000 
     79 N          -1.2786  -26.5885  -46.3539 N.am      14 UNK        -0.5000 
     80 CA         -0.3539  -27.5594  -46.9406 C.3       14 UNK         0.1400 
     81 CB          1.0927  -27.1010  -46.6990 C.3       14 UNK        -0.1800 
     82 C          -0.6161  -27.7940  -48.4411 C.2       14 UNK         0.5000 
     83 O          -0.5759  -28.9393  -48.8925 O.2       14 UNK        -0.5000 
     84 N          -0.8893  -26.7111  -49.1817 N.am      15 UNK        -0.5000 
     85 CA         -1.2017  -26.7234  -50.6127 C.3       15 UNK         0.1400 
     86 CB         -1.1208  -25.2867  -51.1555 C.3       15 UNK        -0.1800 
     87 C          -2.5798  -27.3313  -50.9364 C.2       15 UNK         0.5000 
     88 O          -2.7649  -27.8442  -52.0406 O.2       15 UNK        -0.5000 
     89 N          -3.5141  -27.2433  -49.9782 N.am      16 UNK        -0.5000 
     90 CA         -4.9292  -27.6163  -50.0675 C.3       16 UNK         0.1400 
     91 CB         -5.0986  -29.1317  -50.3039 C.3       16 UNK        -0.1800 
     92 C          -5.7011  -26.7431  -51.0808 C.2       16 UNK         0.5000 
     93 O          -6.5971  -27.2310  -51.7725 O.2       16 UNK        -0.5000 
     94 N          -5.3364  -25.4585  -51.1410 N.am      17 UNK        -0.5000 
     95 CA         -5.9101  -24.4272  -51.9976 C.3       17 UNK         0.1400 
     96 CB         -5.3583  -24.5571  -53.4287 C.3       17 UNK        -0.1800 
     97 C          -5.5504  -23.0661  -51.3906 C.2       17 UNK         0.5000 
     98 O          -4.5365  -22.9689  -50.6982 O.2       17 UNK        -0.5000 
     99 N          -6.3749  -22.0449  -51.6561 N.am      18 UNK        -0.5000 
    100 CA        -6.2201  -20.6826  -51.1363 C.3       18 UNK         0.1400 
    101 CB        -7.3808  -19.8188  -51.6528 C.3       18 UNK        -0.1800 
    102 C         -4.8763  -20.0377  -51.5214 C.2       18 UNK         0.5000 
    103 O         -4.4028  -20.2418  -52.6417 O.2       18 UNK        -0.5000 
    104 N         -4.3087  -19.2389  -50.6070 N.am      19 UNK        -0.5000 
    105 CA        -3.0086  -18.5753  -50.7626 C.3       19 UNK         0.1400 
    106 CB        -2.6556  -17.8398  -49.4611 C.3       19 UNK        -0.1800 
    107 C         -2.9494  -17.6126  -51.9647 C.2       19 UNK         0.5000 
    108 O         -1.9143  -17.5217  -52.6203 O.2       19 UNK        -0.5000 
    109 N         -4.0852  -16.9749  -52.2834 N.am      20 UNK        -0.5000 
    110 CA        -4.2663  -16.1148  -53.4569 C.3       20 UNK         0.1400 
    111 CB        -5.6302  -15.4157  -53.3517 C.3       20 UNK        -0.1800 
    112 C         -4.1458  -16.8610  -54.8039 C.2       20 UNK         0.5000 
    113 O         -3.8245  -16.2337  -55.8135 O.2       20 UNK        -0.5000 
    114 N         -4.3890  -18.1781  -54.7921 N.am      21 UNK        -0.5000 
    115 CA        -4.2075  -19.0905  -55.9221 C.3       21 UNK         0.1400 
    116 CB        -5.4459  -20.0000  -56.0084 C.3       21 UNK        -0.1800 
    117 C         -2.9186  -19.9283  -55.7763 C.2       21 UNK         0.5000 
    118 O         -2.6853  -20.8211  -56.5925 O.2       21 UNK        -0.5000 
    119 N         -2.1187  -19.6434  -54.7398 N.am      22 UNK        -0.5000 
    120 CA        -0.9264  -20.3866  -54.3099 C.3       22 UNK         0.1400 
    121 C         -1.2106  -21.8415  -53.8255 C.2       22 UNK         0.5000 
    122 N         -2.3943  -22.1350  -53.3029 N.am      22 UNK        -0.7600 
    123 O         -0.3450  -22.7102  -53.8857 O.2       22 UNK        -0.5000 
    124 C124        0.2638  -20.2768  -55.3069 C.3       23 UNK        -0.0398 
    125 S125        0.9012  -18.5692  -55.4487 S.3       23 UNK        -0.2404 
    126 C126        2.3542  -18.6130  -54.3431 C.3       23 UNK        -0.0205 
    127 H127       -3.0319  -14.9637  -46.7349 H         1 UNK         0.0600 
    128 H128       -4.4660  -13.9442  -46.7672 H         1 UNK         0.0600 
    129 H129       -3.1314  -13.5433  -45.6820 H         1 UNK         0.0600 
    130 H130       -1.1418  -14.2899  -47.8908 H         1 UNK         0.3000 
    131 H131       -1.5081  -12.5580  -50.1149 H         1 UNK         0.0600 
    132 H132        0.8956  -13.0356  -50.6036 H         1 UNK         0.0800 
    133 H133        1.0913  -13.7461  -49.0216 H         1 UNK         0.0800 
    134 H134        1.2165  -16.4139  -48.9513 H         1 UNK         0.0800 
    135 H135        2.2084  -15.6458  -50.1669 H         1 UNK         0.0800 
    136 H136        1.9845  -16.5186  -52.6269 H         1 UNK         0.1150 
    137 H137        1.8632  -20.7993  -52.7899 H         1 UNK         0.1150 
    138 H138        0.7537  -18.7636  -49.1874 H         1 UNK         0.1150 
    139 H139        0.0093  -21.1898  -49.7342 H         1 UNK         0.0800 
    140 H140        0.7633  -22.0132  -51.0651 H         1 UNK         0.0800 
    141 H141        0.9907  -20.5647  -47.6463 H         1 UNK         0.0800 
    142 H142        2.5187  -21.0639  -46.9907 H         1 UNK         0.0800 
    143 H143        1.7131  -23.4262  -46.8190 H         1 UNK         0.0600 
    144 H144        0.8336  -21.3064  -45.1670 H         1 UNK         0.3000 
    145 H145       -0.8274  -23.2802  -42.6841 H         1 UNK         0.0600 
    146 H146        0.7375  -21.9768  -41.2750 H         1 UNK         0.0600 
    147 H147        1.6047  -23.2500  -42.1203 H         1 UNK         0.0600 
    148 H148        1.7276  -21.5865  -42.6792 H         1 UNK         0.0600 
    149 H149       -0.5048  -20.4688  -42.9271 H         1 UNK         0.3000 
    150 H150       -3.4523  -19.8605  -44.9132 H         1 UNK         0.0600 
    151 H151       -4.1551  -20.0455  -42.5199 H         1 UNK         0.0600 
    152 H152       -3.9020  -18.3741  -42.9973 H         1 UNK         0.0600 
    153 H153       -2.6927  -19.2041  -42.0201 H         1 UNK         0.0600 
    154 H154       -1.5331  -18.0476  -43.8978 H         1 UNK         0.3000 
    155 H155        0.7229  -18.1521  -46.7087 H         1 UNK         0.0600 
    156 H156       -1.1836  -16.0390  -45.5865 H         1 UNK         0.0600 
    157 H157       -1.0809  -16.5477  -47.2676 H         1 UNK         0.0600 
    158 H158        0.2751  -15.7128  -46.5203 H         1 UNK         0.0600 
    159 H159        0.8711  -16.7050  -44.2663 H         1 UNK         0.3000 
    160 H160        2.6051  -19.1827  -42.3518 H         1 UNK         0.0600 
    161 H161        3.4508  -16.5038  -43.5795 H         1 UNK         0.0600 
    162 H162        4.3422  -18.0149  -43.6670 H         1 UNK         0.0600 
    163 H163        4.1291  -17.2171  -42.1163 H         1 UNK         0.0600 
    164 H164        1.6125  -16.5077  -41.8633 H         1 UNK         0.3000 
    165 H165       -1.4994  -17.5319  -40.4393 H         1 UNK         0.0600 
    166 H166       -0.5992  -16.2717  -38.5051 H         1 UNK         0.0600 
    167 H167        0.1751  -17.8444  -38.6112 H         1 UNK         0.0600 
    168 H168        1.0409  -16.4067  -39.1398 H         1 UNK         0.0600 
    169 H169       -0.2388  -14.9784  -40.7186 H         1 UNK         0.3000 
    170 H170       -1.3396  -14.2334  -43.9995 H         1 UNK         0.0600 
    171 H171       -3.4244  -13.8410  -42.6788 H         1 UNK         0.0600 
    172 H172       -2.4707  -13.1790  -41.3547 H         1 UNK         0.0600 
    173 H173       -2.5184  -12.3541  -42.9136 H         1 UNK         0.0600 
    174 H174       -0.1518  -12.5540  -42.0779 H         1 UNK         0.3000 
    175 H175        2.4309  -12.8016  -41.5565 H         1 UNK         0.0600 
    176 H176        3.6022  -13.1773  -44.3634 H         1 UNK         0.0600 
    177 H177        4.4458  -12.4619  -42.9895 H         1 UNK         0.0600 
    178 H178        3.9731  -14.1508  -42.9444 H         1 UNK         0.0600 
    179 H179        2.3530  -11.0938  -43.9286 H         1 UNK         0.3000 
    180 H180       -0.2479   -9.0132  -42.8637 H         1 UNK         0.0600 
    181 H181        2.7259   -8.2634  -42.8142 H         1 UNK         0.0600 
    182 H182        1.5921   -8.0174  -41.4914 H         1 UNK         0.0600 
    183 H183        1.3754   -7.1430  -42.9984 H         1 UNK         0.0600 
    184 H184        1.5904   -8.6814  -44.9828 H         1 UNK         0.3000 
    185 H185        0.0505   -9.1422  -47.2787 H         1 UNK         0.0600 
    186 H186        2.2628   -9.9854  -48.2153 H         1 UNK         0.0600 
    187 H187        2.4929   -9.0671  -46.7470 H         1 UNK         0.0600 
    188 H188        2.5672  -10.8272  -46.7001 H         1 UNK         0.0600 
    189 H189       -0.3247  -11.9434  -46.8817 H         1 UNK         0.3000 
    190 H190       -1.3521  -21.5117  -46.9325 H         1 UNK         0.3000 
    191 H191       -2.5142  -22.8330  -49.1105 H         1 UNK         0.0600 
    192 H192       -3.8546  -21.4593  -46.7205 H         1 UNK         0.0600 
    193 H193       -4.6570  -21.8661  -48.2297 H         1 UNK         0.0600 
    194 H194       -3.3517  -20.6923  -48.2249 H         1 UNK         0.0600 
    195 H195       -2.7022  -23.6448  -45.6273 H         1 UNK         0.3000 
    196 H196       -4.4666  -25.8533  -45.8407 H         1 UNK         0.0600 
    197 H197       -3.5726  -26.4458  -43.5846 H         1 UNK         0.0600 
    198 H198       -3.9440  -24.7316  -43.6949 H         1 UNK         0.0600 
    199 H199       -2.2713  -25.2779  -43.7804 H         1 UNK         0.0600 
    200 H200       -0.8990  -25.6773  -46.1230 H         1 UNK         0.3000 
    201 H201       -0.4925  -28.5130  -46.4266 H         1 UNK         0.0600 
    202 H202        1.2987  -26.9945  -45.6338 H         1 UNK         0.0600 
    203 H203        1.2997  -26.1424  -47.1750 H         1 UNK         0.0600 
    204 H204        1.8033  -27.8258  -47.0980 H         1 UNK         0.0600 
    205 H205       -0.8243  -25.7946  -48.7422 H         1 UNK         0.3000 
    206 H206       -0.4451  -27.3249  -51.1205 H         1 UNK         0.0600 
    207 H207       -0.1342  -24.8540  -50.9884 H         1 UNK         0.0600 
    208 H208       -1.3076  -25.2614  -52.2299 H         1 UNK         0.0600 
    209 H209       -1.8556  -24.6360  -50.6797 H         1 UNK         0.0600 
    210 H210       -3.2681  -26.7189  -49.1456 H         1 UNK         0.3000 
    211 H211       -5.3570  -27.3898  -49.0898 H         1 UNK         0.0600 
    212 H212       -4.7654  -29.4295  -51.2982 H         1 UNK         0.0600 
    213 H213       -6.1447  -29.4253  -50.2104 H         1 UNK         0.0600 
    214 H214       -4.5333  -29.7092  -49.5725 H         1 UNK         0.0600 
    215 H215       -4.6325  -25.1116  -50.4957 H         1 UNK         0.3000 
    216 H216       -6.9970  -24.5306  -52.0075 H         1 UNK         0.0600 
    217 H217       -5.7277  -23.7540  -54.0676 H         1 UNK         0.0600 
    218 H218       -5.6600  -25.4998  -53.8853 H         1 UNK         0.0600 
    219 H219       -4.2688  -24.5146  -53.4429 H         1 UNK         0.0600 
    220 H220       -7.1649  -22.2018  -52.2641 H         1 UNK         0.3000 
    221 H221       -6.2806  -20.7377  -50.0476 H         1 UNK         0.0600 
    222 H222       -7.3780  -19.7526  -52.7419 H         1 UNK         0.0600 
    223 H223       -8.3442  -20.2246  -51.3434 H         1 UNK         0.0600 
    224 H224       -7.3187  -18.8021  -51.2626 H         1 UNK         0.0600 
    225 H225       -4.7729  -19.1054  -49.7207 H         1 UNK         0.3000 
    226 H226       -2.2608  -19.3546  -50.9273 H         1 UNK         0.0600 
    227 H227       -2.6866  -18.5060  -48.6006 H         1 UNK         0.0600 
    228 H228       -1.6446  -17.4383  -49.5119 H         1 UNK         0.0600 
    229 H229       -3.3331  -17.0074  -49.2672 H         1 UNK         0.0600 
    230 H230       -4.8942  -17.1183  -51.6977 H         1 UNK         0.3000 
    231 H231       -3.4856  -15.3515  -53.4352 H         1 UNK         0.0600 
    232 H232       -5.6984  -14.8171  -52.4431 H         1 UNK         0.0600 
    233 H233       -6.4508  -16.1344  -53.3445 H         1 UNK         0.0600 
    234 H234       -5.7907  -14.7427  -54.1950 H         1 UNK         0.0600 
    235 H235       -4.6043  -18.6287  -53.9098 H         1 UNK         0.3000 
    236 H236       -4.1277  -18.5310  -56.8560 H         1 UNK         0.0600 
    237 H237       -5.3876  -20.6633  -56.8722 H         1 UNK         0.0600 
    238 H238       -5.5487  -20.6256  -55.1208 H         1 UNK         0.0600 
    239 H239       -6.3589  -19.4136  -56.1124 H         1 UNK         0.0600 
    240 H240       -2.3658  -18.8660  -54.1402 H         1 UNK         0.3000 
    241 H241       -0.6292  -19.8783  -53.3955 H         1 UNK         0.0600 
    242 H242       -2.5627  -23.0654  -52.9620 H         1 UNK         0.3800 
    243 H243       -3.1118  -21.4216  -53.1933 H         1 UNK         0.3800 
    244 H244       -0.0346  -20.6216  -56.2971 H         1 UNK         0.0800 
    245 H245        1.0906  -20.9236  -55.0129 H         1 UNK         0.0800 
    246 H246        2.9623  -17.7271  -54.5317 H         1 UNK         0.0800 
    247 H247        2.9847  -19.4685  -54.5900 H         1 UNK         0.0800 
@<TRIPOS>BOND
     1    1    2 1    
     2    1  127 1    
     3    1  128 1    
     4    1  129 1    
     5    2    3 2    
     6    2    4 am   BACKBONE|DICT|INTERRES
     7    4    5 1    
     8    4  130 1    
     9    5    6 1    
    10    5   65 1    
    11    5  131 1    
    12    6    7 1    
    13    6  132 1    
    14    6  133 1    
    15    7    8 1    
    16    8    9 1    
    17    8  134 1    
    18    8  135 1    
    19    9   10 ar   
    20    9   14 ar   
    21   10   11 ar   
    22   10  136 1    
    23   11   12 ar   
    24   11  126 1    
    25   12   13 ar   
    26   12  137 1    
    27   13   14 ar   
    28   13   15 1    
    29   14  138 1    
    30   15   16 1    
    31   15  139 1    
    32   15  140 1    
    33   16   17 1    
    34   17   18 1    
    35   17  141 1    
    36   17  142 1    
    37   18   19 1    
    38   18   67 1    
    39   18  143 1    
    40   19   20 am   BACKBONE|DICT|INTERRES
    41   19  144 1    
    42   20   21 2    
    43   20   22 1    
    44   22   23 1    
    45   22   24 1    
    46   22  145 1    
    47   23  146 1    
    48   23  147 1    
    49   23  148 1    
    50   24   25 am   BACKBONE|DICT|INTERRES
    51   24  149 1    
    52   25   26 2    
    53   25   27 1    
    54   27   28 1    
    55   27   29 1    
    56   27  150 1    
    57   28  151 1    
    58   28  152 1    
    59   28  153 1    
    60   29   30 am   BACKBONE|DICT|INTERRES
    61   29  154 1    
    62   30   31 2    
    63   30   32 1    
    64   32   33 1    
    65   32   34 1    
    66   32  155 1    
    67   33  156 1    
    68   33  157 1    
    69   33  158 1    
    70   34   35 am   BACKBONE|DICT|INTERRES
    71   34  159 1    
    72   35   36 2    
    73   35   37 1    
    74   37   38 1    
    75   37   39 1    
    76   37  160 1    
    77   38  161 1    
    78   38  162 1    
    79   38  163 1    
    80   39   40 am   BACKBONE|DICT|INTERRES
    81   39  164 1    
    82   40   41 2    
    83   40   42 1    
    84   42   43 1    
    85   42   44 1    
    86   42  165 1    
    87   43  166 1    
    88   43  167 1    
    89   43  168 1    
    90   44   45 am   BACKBONE|DICT|INTERRES
    91   44  169 1    
    92   45   46 2    
    93   45   47 1    
    94   47   48 1    
    95   47   49 1    
    96   47  170 1    
    97   48  171 1    
    98   48  172 1    
    99   48  173 1    
   100   49   50 am   BACKBONE|DICT|INTERRES
   101   49  174 1    
   102   50   51 2    
   103   50   52 1    
   104   52   53 1    
   105   52   54 1    
   106   52  175 1    
   107   53  176 1    
   108   53  177 1    
   109   53  178 1    
   110   54   55 am   BACKBONE|DICT|INTERRES
   111   54  179 1    
   112   55   56 2    
   113   55   57 1    
   114   57   58 1    
   115   57   59 1    
   116   57  180 1    
   117   58  181 1    
   118   58  182 1    
   119   58  183 1    
   120   59   60 am   BACKBONE|DICT|INTERRES
   121   59  184 1    
   122   60   61 2    
   123   60   62 1    
   124   62   63 1    
   125   62   64 1    
   126   62  185 1    
   127   63  186 1    
   128   63  187 1    
   129   63  188 1    
   130   64   65 am   BACKBONE|DICT|INTERRES
   131   64  189 1    
   132   65   66 2    
   133   67   68 2    
   134   67   69 am   BACKBONE|DICT|INTERRES
   135   69   70 1    
   136   69  190 1    
   137   70   71 1    
   138   70   72 1    
   139   70  191 1    
   140   71  192 1    
   141   71  193 1    
   142   71  194 1    
   143   72   73 2    
   144   72   74 am   BACKBONE|DICT|INTERRES
   145   74   75 1    
   146   74  195 1    
   147   75   76 1    
   148   75   77 1    
   149   75  196 1    
   150   76  197 1    
   151   76  198 1    
   152   76  199 1    
   153   77   78 2    
   154   77   79 am   BACKBONE|DICT|INTERRES
   155   79   80 1    
   156   79  200 1    
   157   80   81 1    
   158   80   82 1    
   159   80  201 1    
   160   81  202 1    
   161   81  203 1    
   162   81  204 1    
   163   82   83 2    
   164   82   84 am   BACKBONE|DICT|INTERRES
   165   84   85 1    
   166   84  205 1    
   167   85   86 1    
   168   85   87 1    
   169   85  206 1    
   170   86  207 1    
   171   86  208 1    
   172   86  209 1    
   173   87   88 2    
   174   87   89 am   BACKBONE|DICT|INTERRES
   175   89   90 1    
   176   89  210 1    
   177   90   91 1    
   178   90   92 1    
   179   90  211 1    
   180   91  212 1    
   181   91  213 1    
   182   91  214 1    
   183   92   93 2    
   184   92   94 am   BACKBONE|DICT|INTERRES
   185   94   95 1    
   186   94  215 1    
   187   95   96 1    
   188   95   97 1    
   189   95  216 1    
   190   96  217 1    
   191   96  218 1    
   192   96  219 1    
   193   97   98 2    
   194   97   99 am   BACKBONE|DICT|INTERRES
   195   99  100 1    
   196   99  220 1    
   197  100  101 1    
   198  100  102 1    
   199  100  221 1    
   200  101  222 1    
   201  101  223 1    
   202  101  224 1    
   203  102  103 2    
   204  102  104 am   BACKBONE|DICT|INTERRES
   205  104  105 1    
   206  104  225 1    
   207  105  106 1    
   208  105  107 1    
   209  105  226 1    
   210  106  227 1    
   211  106  228 1    
   212  106  229 1    
   213  107  108 2    
   214  107  109 am   BACKBONE|DICT|INTERRES
   215  109  110 1    
   216  109  230 1    
   217  110  111 1    
   218  110  112 1    
   219  110  231 1    
   220  111  232 1    
   221  111  233 1    
   222  111  234 1    
   223  112  113 2    
   224  112  114 am   BACKBONE|DICT|INTERRES
   225  114  115 1    
   226  114  235 1    
   227  115  116 1    
   228  115  117 1    
   229  115  236 1    
   230  116  237 1    
   231  116  238 1    
   232  116  239 1    
   233  117  118 2    
   234  117  119 am   BACKBONE|DICT|INTERRES
   235  119  120 1    
   236  119  240 1    
   237  120  121 1    
   238  120  124 1    
   239  120  241 1    
   240  121  122 am   BACKBONE|DICT|INTERRES
   241  121  123 2    
   242  122  242 1    
   243  122  243 1    
   244  124  125 1    
   245  124  244 1    
   246  124  245 1    
   247  125  126 1    
   248  126  246 1    
   249  126  247 1    
@<TRIPOS>SUBSTRUCTURE
     1 UNK         1 GROUP             0       ****    0 ROOT    
