@<TRIPOS>MOLECULE
3R540
247   249    1
SMALL
USER_CHARGES


@<TRIPOS>ATOM
      1 CA          0.3583  -14.1800  -50.3255 C.3       0 UNK        -0.1800 
      2 C           1.6954  -13.5717  -49.9299 C.2       0 UNK         0.5000 
      3 O           1.7695  -12.3815  -49.6268 O.2       0 UNK        -0.5000 
      4 N           2.7514  -14.3930  -49.9107 N.am      1 UNK        -0.5000 
      5 CA          4.1259  -14.0271  -49.5356 C.3       1 UNK         0.1400 
      6 C6          5.1450  -15.1328  -49.9215 C.3       23 UNK        -0.0398 
      7 S7          4.6120  -16.8234  -49.4599 S.3       23 UNK        -0.2404 
      8 C8          4.5878  -17.6412  -51.0887 C.3       23 UNK        -0.0205 
      9 C9          3.7095  -18.8832  -51.0863 C.ar      23 UNK        -0.0193 
     10 C10         2.5371  -18.9163  -51.8480 C.ar      23 UNK        -0.1150 
     11 C11         1.7295  -20.0567  -51.8570 C.ar      23 UNK        -0.0193 
     12 C12         2.0902  -21.1625  -51.0829 C.ar      23 UNK        -0.1150 
     13 C13         3.2591  -21.1428  -50.3179 C.ar      23 UNK        -0.0193 
     14 C14         4.0730  -20.0056  -50.3360 C.ar      23 UNK        -0.1150 
     15 C15         3.6377  -22.3555  -49.4795 C.3       23 UNK        -0.0205 
     16 S16         3.8117  -21.9735  -47.7057 S.3       23 UNK        -0.2404 
     17 C17         2.1883  -21.2571  -47.2761 C.3       23 UNK        -0.0398 
     18 CA          1.1631  -22.3259  -46.8155 C.3       11 UNK         0.1400 
     19 N           0.4260  -21.9212  -45.6140 N.am      11 UNK        -0.5000 
     20 C          -0.3462  -22.7430  -44.8879 C.2       10 UNK         0.5000 
     21 O          -0.4818  -23.9423  -45.1313 O.2       10 UNK        -0.5000 
     22 CA         -1.1417  -22.1103  -43.7303 C.3       10 UNK         0.1400 
     23 CB         -0.2532  -21.8993  -42.4956 C.3       10 UNK        -0.1800 
     24 N          -1.7649  -20.8433  -44.1140 N.am      10 UNK        -0.5000 
     25 C          -2.7204  -20.7251  -45.0462 C.2       9 UNK         0.5000 
     26 O          -3.2294  -21.6847  -45.6234 O.2       9 UNK        -0.5000 
     27 CA         -3.1429  -19.2978  -45.4375 C.3       9 UNK         0.1400 
     28 CB         -4.2381  -18.7666  -44.5010 C.3       9 UNK        -0.1800 
     29 N          -2.0139  -18.3673  -45.4595 N.am      9 UNK        -0.5000 
     30 C          -1.0054  -18.4256  -46.3409 C.2       8 UNK         0.5000 
     31 O          -0.9243  -19.2656  -47.2346 O.2       8 UNK        -0.5000 
     32 CA          0.1355  -17.4112  -46.1545 C.3       8 UNK         0.1400 
     33 CB         -0.2573  -16.0480  -46.7388 C.3       8 UNK        -0.1800 
     34 N           0.5389  -17.2683  -44.7519 N.am      8 UNK        -0.5000 
     35 C           1.0877  -18.2627  -44.0364 C.2       7 UNK         0.5000 
     36 O           1.3460  -19.3715  -44.5020 O.2       7 UNK        -0.5000 
     37 CA          1.3443  -18.0080  -42.5399 C.3       7 UNK         0.1400 
     38 CB          2.6986  -17.3178  -42.3272 C.3       7 UNK        -0.1800 
     39 N           0.3019  -17.2226  -41.8813 N.am      7 UNK        -0.5000 
     40 C          -1.0039  -17.5222  -41.8306 C.2       6 UNK         0.5000 
     41 O          -1.4889  -18.5244  -42.3549 O.2       6 UNK        -0.5000 
     42 CA         -1.9254  -16.5431  -41.0707 C.3       6 UNK         0.1400 
     43 CB         -2.4941  -17.2107  -39.8091 C.3       6 UNK        -0.1800 
     44 N          -1.2596  -15.2931  -40.6861 N.am      6 UNK        -0.5000 
     45 C          -0.9140  -14.3201  -41.5389 C.2       5 UNK         0.5000 
     46 O          -1.1988  -14.3403  -42.7387 O.2       5 UNK        -0.5000 
     47 CA         -0.0751  -13.1742  -40.9468 C.3       5 UNK         0.1400 
     48 CB          1.2886  -13.6883  -40.4495 C.3       5 UNK        -0.1800 
     49 N           0.1684  -12.1595  -41.9645 N.am      5 UNK        -0.5000 
     50 C          -0.0437  -10.8446  -41.8318 C.2       4 UNK         0.5000 
     51 O          -0.4480  -10.3210  -40.7924 O.2       4 UNK        -0.5000 
     52 CA          0.2516   -9.9504  -43.0565 C.3       4 UNK         0.1400 
     53 CB          1.5447   -9.1492  -42.8376 C.3       4 UNK        -0.1800 
     54 N           0.3726  -10.6979  -44.3095 N.am      4 UNK        -0.5000 
     55 C          -0.6396  -11.3054  -44.9420 C.2       3 UNK         0.5000 
     56 O          -1.8172  -11.1932  -44.5995 O.2       3 UNK        -0.5000 
     57 CA         -0.2854  -12.1969  -46.1501 C.3       3 UNK         0.1400 
     58 CB         -0.7337  -11.5204  -47.4549 C.3       3 UNK        -0.1800 
     59 N           1.1318  -12.5737  -46.2678 N.am      3 UNK        -0.5000 
     60 C           1.8335  -13.2973  -45.3798 C.2       2 UNK         0.5000 
     61 O           1.3771  -13.6765  -44.3017 O.2       2 UNK        -0.5000 
     62 CA          3.2713  -13.6739  -45.7799 C.3       2 UNK         0.1400 
     63 CB          3.8358  -14.8506  -44.9641 C.3       2 UNK        -0.1800 
     64 N           3.3285  -14.0035  -47.2023 N.am      2 UNK        -0.5000 
     65 C           4.2819  -13.6088  -48.0543 C.2       1 UNK         0.5000 
     66 O           5.2532  -12.9279  -47.7214 O.2       1 UNK        -0.5000 
     67 C           0.2093  -22.7287  -47.9596 C.2       11 UNK         0.5000 
     68 O           0.4467  -23.7392  -48.6193 O.2       11 UNK        -0.5000 
     69 N          -0.8789  -21.9671  -48.1398 N.am      12 UNK        -0.5000 
     70 CA         -1.9499  -22.2472  -49.0956 C.3       12 UNK         0.1400 
     71 CB         -2.9579  -21.0919  -49.0859 C.3       12 UNK        -0.1800 
     72 C          -2.6669  -23.5781  -48.8147 C.2       12 UNK         0.5000 
     73 O          -2.9269  -24.3334  -49.7495 O.2       12 UNK        -0.5000 
     74 N          -2.9423  -23.8597  -47.5337 N.am      13 UNK        -0.5000 
     75 CA         -3.5221  -25.1195  -47.0692 C.3       13 UNK         0.1400 
     76 CB         -3.9236  -24.9897  -45.5924 C.3       13 UNK        -0.1800 
     77 C          -2.5807  -26.3197  -47.2799 C.2       13 UNK         0.5000 
     78 O          -3.0500  -27.3925  -47.6605 O.2       13 UNK        -0.5000 
     79 N          -1.2746  -26.1134  -47.0566 N.am      14 UNK        -0.5000 
     80 CA         -0.2254  -27.1049  -47.2998 C.3       14 UNK         0.1400 
     81 CB          1.0877  -26.6369  -46.6534 C.3       14 UNK        -0.1800 
     82 C          -0.0283  -27.4031  -48.7987 C.2       14 UNK         0.5000 
     83 O           0.1201  -28.5681  -49.1702 O.2       14 UNK        -0.5000 
     84 N          -0.0486  -26.3523  -49.6307 N.am      15 UNK        -0.5000 
     85 CA          0.0224  -26.4374  -51.0913 C.3       15 UNK         0.1400 
     86 CB          0.2795  -25.0346  -51.6654 C.3       15 UNK        -0.1800 
     87 C          -1.2418  -27.0565  -51.7206 C.2       15 UNK         0.5000 
     88 O          -1.1308  -27.7577  -52.7275 O.2       15 UNK        -0.5000 
     89 N          -2.3987  -26.7902  -51.0970 N.am      16 UNK        -0.5000 
     90 CA         -3.7661  -27.1532  -51.4766 C.3       16 UNK         0.1400 
     91 CB         -3.9174  -28.6744  -51.6822 C.3       16 UNK        -0.1800 
     92 C          -4.2871  -26.3496  -52.6851 C.2       16 UNK         0.5000 
     93 O          -3.5180  -25.6924  -53.3892 O.2       16 UNK        -0.5000 
     94 N          -5.6142  -26.3880  -52.8754 N.am      17 UNK        -0.5000 
     95 CA         -6.4182  -25.7626  -53.9405 C.3       17 UNK         0.1400 
     96 CB         -6.0051  -26.2937  -55.3268 C.3       17 UNK        -0.1800 
     97 C          -6.4700  -24.2179  -53.9358 C.2       17 UNK         0.5000 
     98 O          -7.4162  -23.6506  -54.4852 O.2       17 UNK        -0.5000 
     99 N          -5.4859  -23.5569  -53.3163 N.am      18 UNK        -0.5000 
    100 CA        -5.3446  -22.1067  -53.1950 C.3       18 UNK         0.1400 
    101 CB        -3.8764  -21.7893  -52.8619 C.3       18 UNK        -0.1800 
    102 C         -6.3327  -21.4970  -52.1772 C.2       18 UNK         0.5000 
    103 O         -5.9197  -20.9473  -51.1550 O.2       18 UNK        -0.5000 
    104 N         -7.6331  -21.5844  -52.4851 N.am      19 UNK        -0.5000 
    105 CA        -8.7516  -21.0888  -51.6720 C.3       19 UNK         0.1400 
    106 CB       -10.0702  -21.5014  -52.3434 C.3       19 UNK        -0.1800 
    107 C         -8.7329  -19.5672  -51.4078 C.2       19 UNK         0.5000 
    108 O         -9.3382  -19.1115  -50.4374 O.2       19 UNK        -0.5000 
    109 N         -8.0147  -18.8153  -52.2526 N.am      20 UNK        -0.5000 
    110 CA        -7.7489  -17.3819  -52.1121 C.3       20 UNK         0.1400 
    111 CB        -7.3673  -16.8273  -53.4952 C.3       20 UNK        -0.1800 
    112 C         -6.6547  -17.0485  -51.0711 C.2       20 UNK         0.5000 
    113 O         -6.3170  -15.8734  -50.9191 O.2       20 UNK        -0.5000 
    114 N         -6.0847  -18.0698  -50.4092 N.am      21 UNK        -0.5000 
    115 CA        -4.9927  -17.9964  -49.4288 C.3       21 UNK         0.1400 
    116 CB        -5.4276  -17.2336  -48.1596 C.3       21 UNK        -0.1800 
    117 C         -3.6792  -17.4612  -50.0377 C.2       21 UNK         0.5000 
    118 O         -2.8975  -16.8050  -49.3487 O.2       21 UNK        -0.5000 
    119 N         -3.4840  -17.7430  -51.3337 N.am      22 UNK        -0.5000 
    120 CA        -2.3543  -17.3079  -52.1741 C.3       22 UNK         0.1400 
    121 C         -2.3024  -15.7750  -52.4595 C.2       22 UNK         0.5000 
    122 N         -3.3290  -14.9975  -52.1326 N.am      22 UNK        -0.7600 
    123 O         -1.3348  -15.2852  -53.0347 O.2       22 UNK        -0.5000 
    124 C124       -0.9896  -17.8868  -51.7029 C.3       23 UNK        -0.0398 
    125 S125       -1.0021  -19.7131  -51.7254 S.3       23 UNK        -0.2404 
    126 C126        0.4718  -20.1083  -52.7080 C.3       23 UNK        -0.0205 
    127 H127       -0.2913  -14.2712  -49.4551 H         1 UNK         0.0600 
    128 H128        0.4809  -15.1720  -50.7619 H         1 UNK         0.0600 
    129 H129       -0.1405  -13.5478  -51.0606 H         1 UNK         0.0600 
    130 H130        2.6276  -15.3665  -50.1520 H         1 UNK         0.3000 
    131 H131        4.3823  -13.1385  -50.1167 H         1 UNK         0.0600 
    132 H132        5.3138  -15.0906  -50.9979 H         1 UNK         0.0800 
    133 H133        6.1247  -14.9425  -49.4789 H         1 UNK         0.0800 
    134 H134        5.6058  -17.9143  -51.3701 H         1 UNK         0.0800 
    135 H135        4.2347  -16.9408  -51.8471 H         1 UNK         0.0800 
    136 H136        2.2556  -18.0577  -52.4411 H         1 UNK         0.1150 
    137 H137        1.4564  -22.0386  -51.0777 H         1 UNK         0.1150 
    138 H138        4.9799  -19.9856  -49.7479 H         1 UNK         0.1150 
    139 H139        2.9063  -23.1561  -49.5983 H         1 UNK         0.0800 
    140 H140        4.5846  -22.7532  -49.8465 H         1 UNK         0.0800 
    141 H141        1.8075  -20.6306  -48.0849 H         1 UNK         0.0800 
    142 H142        2.3962  -20.5607  -46.4655 H         1 UNK         0.0800 
    143 H143        1.7096  -23.2282  -46.5326 H         1 UNK         0.0600 
    144 H144        0.5230  -20.9531  -45.3223 H         1 UNK         0.3000 
    145 H145       -1.9398  -22.8039  -43.4571 H         1 UNK         0.0600 
    146 H146       -0.8218  -21.4745  -41.6680 H         1 UNK         0.0600 
    147 H147        0.5807  -21.2306  -42.7061 H         1 UNK         0.0600 
    148 H148        0.1655  -22.8461  -42.1525 H         1 UNK         0.0600 
    149 H149       -1.4464  -20.0049  -43.6372 H         1 UNK         0.3000 
    150 H150       -3.5573  -19.3412  -46.4463 H         1 UNK         0.0600 
    151 H151       -5.1100  -19.4218  -44.5143 H         1 UNK         0.0600 
    152 H152       -4.5729  -17.7753  -44.8067 H         1 UNK         0.0600 
    153 H153       -3.8950  -18.7015  -43.4684 H         1 UNK         0.0600 
    154 H154       -1.9691  -17.6893  -44.7133 H         1 UNK         0.3000 
    155 H155        0.9952  -17.7818  -46.7174 H         1 UNK         0.0600 
    156 H156       -0.6644  -16.1555  -47.7454 H         1 UNK         0.0600 
    157 H157        0.6079  -15.3947  -46.8158 H         1 UNK         0.0600 
    158 H158       -1.0125  -15.5498  -46.1303 H         1 UNK         0.0600 
    159 H159        0.3481  -16.3844  -44.2993 H         1 UNK         0.3000 
    160 H160        1.3789  -18.9813  -42.0469 H         1 UNK         0.0600 
    161 H161        2.6820  -16.2902  -42.6890 H         1 UNK         0.0600 
    162 H162        3.4975  -17.8427  -42.8531 H         1 UNK         0.0600 
    163 H163        2.9664  -17.2942  -41.2708 H         1 UNK         0.0600 
    164 H164        0.6035  -16.3786  -41.4201 H         1 UNK         0.3000 
    165 H165       -2.7584  -16.3029  -41.7347 H         1 UNK         0.0600 
    166 H166       -3.1969  -16.5532  -39.2971 H         1 UNK         0.0600 
    167 H167       -3.0325  -18.1261  -40.0590 H         1 UNK         0.0600 
    168 H168       -1.7057  -17.4762  -39.1038 H         1 UNK         0.0600 
    169 H169       -1.0017  -15.2070  -39.7131 H         1 UNK         0.3000 
    170 H170       -0.6331  -12.7552  -40.1071 H         1 UNK         0.0600 
    171 H171        1.8592  -14.1535  -41.2548 H         1 UNK         0.0600 
    172 H172        1.8900  -12.8729  -40.0469 H         1 UNK         0.0600 
    173 H173        1.1762  -14.4248  -39.6534 H         1 UNK         0.0600 
    174 H174        0.4439  -12.5302  -42.8693 H         1 UNK         0.3000 
    175 H175       -0.5767   -9.2457  -43.1552 H         1 UNK         0.0600 
    176 H176        2.4112   -9.8042  -42.7384 H         1 UNK         0.0600 
    177 H177        1.7315   -8.4661  -43.6664 H         1 UNK         0.0600 
    178 H178        1.4831   -8.5469  -41.9302 H         1 UNK         0.0600 
    179 H179        1.3062  -10.8389  -44.6649 H         1 UNK         0.3000 
    180 H180       -0.8595  -13.1173  -46.0315 H         1 UNK         0.0600 
    181 H181       -0.6540  -12.2009  -48.3006 H         1 UNK         0.0600 
    182 H182       -0.1337  -10.6370  -47.6759 H         1 UNK         0.0600 
    183 H183       -1.7764  -11.2046  -47.3997 H         1 UNK         0.0600 
    184 H184        1.5898  -12.2993  -47.1272 H         1 UNK         0.3000 
    185 H185        3.8813  -12.7920  -45.5747 H         1 UNK         0.0600 
    186 H186        3.2304  -15.7494  -45.0869 H         1 UNK         0.0600 
    187 H187        4.8542  -15.0896  -45.2704 H         1 UNK         0.0600 
    188 H188        3.8680  -14.6090  -43.9014 H         1 UNK         0.0600 
    189 H189        2.5642  -14.5529  -47.5671 H         1 UNK         0.3000 
    190 H190       -0.9676  -21.1052  -47.6072 H         1 UNK         0.3000 
    191 H191       -1.4996  -22.3062  -50.0883 H         1 UNK         0.0600 
    192 H192       -2.4651  -20.1326  -49.2356 H         1 UNK         0.0600 
    193 H193       -3.5107  -21.0402  -48.1496 H         1 UNK         0.0600 
    194 H194       -3.6870  -21.2101  -49.8844 H         1 UNK         0.0600 
    195 H195       -2.7607  -23.1527  -46.8270 H         1 UNK         0.3000 
    196 H196       -4.4280  -25.3036  -47.6506 H         1 UNK         0.0600 
    197 H197       -4.6493  -24.1887  -45.4509 H         1 UNK         0.0600 
    198 H198       -3.0637  -24.7764  -44.9571 H         1 UNK         0.0600 
    199 H199       -4.3804  -25.9111  -45.2292 H         1 UNK         0.0600 
    200 H200       -0.9789  -25.2147  -46.6904 H         1 UNK         0.3000 
    201 H201       -0.5256  -28.0352  -46.8131 H         1 UNK         0.0600 
    202 H202        0.9640  -26.4750  -45.5825 H         1 UNK         0.0600 
    203 H203        1.4469  -25.7061  -47.0919 H         1 UNK         0.0600 
    204 H204        1.8724  -27.3834  -46.7818 H         1 UNK         0.0600 
    205 H205       -0.0948  -25.4169  -49.2327 H         1 UNK         0.3000 
    206 H206        0.8706  -27.0734  -51.3527 H         1 UNK         0.0600 
    207 H207       -0.5245  -24.3429  -51.4105 H         1 UNK         0.0600 
    208 H208        1.2123  -24.6179  -51.2850 H         1 UNK         0.0600 
    209 H209        0.3545  -25.0644  -52.7530 H         1 UNK         0.0600 
    210 H210       -2.3561  -26.1102  -50.3444 H         1 UNK         0.3000 
    211 H211       -4.3805  -26.8703  -50.6204 H         1 UNK         0.0600 
    212 H212       -3.4211  -29.0160  -52.5907 H         1 UNK         0.0600 
    213 H213       -4.9674  -28.9564  -51.7646 H         1 UNK         0.0600 
    214 H214       -3.4999  -29.2286  -50.8413 H         1 UNK         0.0600 
    215 H215       -6.1578  -26.9228  -52.2120 H         1 UNK         0.3000 
    216 H216       -7.4423  -26.0932  -53.7605 H         1 UNK         0.0600 
    217 H217       -6.6805  -25.9277  -56.1012 H         1 UNK         0.0600 
    218 H218       -6.0369  -27.3828  -55.3578 H         1 UNK         0.0600 
    219 H219       -4.9980  -25.9788  -55.6008 H         1 UNK         0.0600 
    220 H220       -4.7226  -24.1135  -52.9504 H         1 UNK         0.3000 
    221 H221       -5.5661  -21.6550  -54.1640 H         1 UNK         0.0600 
    222 H222       -3.5524  -22.2935  -51.9512 H         1 UNK         0.0600 
    223 H223       -3.2133  -22.1067  -53.6667 H         1 UNK         0.0600 
    224 H224       -3.7247  -20.7184  -52.7226 H         1 UNK         0.0600 
    225 H225       -7.8747  -22.0996  -53.3261 H         1 UNK         0.3000 
    226 H226       -8.6928  -21.5833  -50.7004 H         1 UNK         0.0600 
    227 H227      -10.1362  -22.5843  -52.4510 H         1 UNK         0.0600 
    228 H228      -10.9291  -21.1819  -51.7516 H         1 UNK         0.0600 
    229 H229      -10.1708  -21.0587  -53.3351 H         1 UNK         0.0600 
    230 H230       -7.5634  -19.2816  -53.0254 H         1 UNK         0.3000 
    231 H231       -8.6656  -16.8864  -51.7861 H         1 UNK         0.0600 
    232 H232       -7.2219  -15.7468  -53.4607 H         1 UNK         0.0600 
    233 H233       -8.1505  -17.0217  -54.2282 H         1 UNK         0.0600 
    234 H234       -6.4421  -17.2707  -53.8654 H         1 UNK         0.0600 
    235 H235       -6.3802  -19.0123  -50.6417 H         1 UNK         0.3000 
    236 H236       -4.7926  -19.0248  -49.1313 H         1 UNK         0.0600 
    237 H237       -5.6077  -16.1775  -48.3609 H         1 UNK         0.0600 
    238 H238       -6.3396  -17.6568  -47.7387 H         1 UNK         0.0600 
    239 H239       -4.6590  -17.2883  -47.3881 H         1 UNK         0.0600 
    240 H240       -4.1921  -18.2858  -51.8040 H         1 UNK         0.3000 
    241 H241       -2.5557  -17.7410  -53.1545 H         1 UNK         0.0600 
    242 H242       -3.2874  -14.0130  -52.3419 H         1 UNK         0.3800 
    243 H243       -4.1410  -15.3765  -51.6655 H         1 UNK         0.3800 
    244 H244       -0.1817  -17.5310  -52.3428 H         1 UNK         0.0800 
    245 H245       -0.7454  -17.5495  -50.6949 H         1 UNK         0.0800 
    246 H246        0.3550  -21.1118  -53.1201 H         1 UNK         0.0800 
    247 H247        0.5485  -19.4375  -53.5650 H         1 UNK         0.0800 
@<TRIPOS>BOND
     1    1    2 1    
     2    1  127 1    
     3    1  128 1    
     4    1  129 1    
     5    2    3 2    
     6    2    4 am   BACKBONE|DICT|INTERRES
     7    4    5 1    
     8    4  130 1    
     9    5    6 1    
    10    5   65 1    
    11    5  131 1    
    12    6    7 1    
    13    6  132 1    
    14    6  133 1    
    15    7    8 1    
    16    8    9 1    
    17    8  134 1    
    18    8  135 1    
    19    9   10 ar   
    20    9   14 ar   
    21   10   11 ar   
    22   10  136 1    
    23   11   12 ar   
    24   11  126 1    
    25   12   13 ar   
    26   12  137 1    
    27   13   14 ar   
    28   13   15 1    
    29   14  138 1    
    30   15   16 1    
    31   15  139 1    
    32   15  140 1    
    33   16   17 1    
    34   17   18 1    
    35   17  141 1    
    36   17  142 1    
    37   18   19 1    
    38   18   67 1    
    39   18  143 1    
    40   19   20 am   BACKBONE|DICT|INTERRES
    41   19  144 1    
    42   20   21 2    
    43   20   22 1    
    44   22   23 1    
    45   22   24 1    
    46   22  145 1    
    47   23  146 1    
    48   23  147 1    
    49   23  148 1    
    50   24   25 am   BACKBONE|DICT|INTERRES
    51   24  149 1    
    52   25   26 2    
    53   25   27 1    
    54   27   28 1    
    55   27   29 1    
    56   27  150 1    
    57   28  151 1    
    58   28  152 1    
    59   28  153 1    
    60   29   30 am   BACKBONE|DICT|INTERRES
    61   29  154 1    
    62   30   31 2    
    63   30   32 1    
    64   32   33 1    
    65   32   34 1    
    66   32  155 1    
    67   33  156 1    
    68   33  157 1    
    69   33  158 1    
    70   34   35 am   BACKBONE|DICT|INTERRES
    71   34  159 1    
    72   35   36 2    
    73   35   37 1    
    74   37   38 1    
    75   37   39 1    
    76   37  160 1    
    77   38  161 1    
    78   38  162 1    
    79   38  163 1    
    80   39   40 am   BACKBONE|DICT|INTERRES
    81   39  164 1    
    82   40   41 2    
    83   40   42 1    
    84   42   43 1    
    85   42   44 1    
    86   42  165 1    
    87   43  166 1    
    88   43  167 1    
    89   43  168 1    
    90   44   45 am   BACKBONE|DICT|INTERRES
    91   44  169 1    
    92   45   46 2    
    93   45   47 1    
    94   47   48 1    
    95   47   49 1    
    96   47  170 1    
    97   48  171 1    
    98   48  172 1    
    99   48  173 1    
   100   49   50 am   BACKBONE|DICT|INTERRES
   101   49  174 1    
   102   50   51 2    
   103   50   52 1    
   104   52   53 1    
   105   52   54 1    
   106   52  175 1    
   107   53  176 1    
   108   53  177 1    
   109   53  178 1    
   110   54   55 am   BACKBONE|DICT|INTERRES
   111   54  179 1    
   112   55   56 2    
   113   55   57 1    
   114   57   58 1    
   115   57   59 1    
   116   57  180 1    
   117   58  181 1    
   118   58  182 1    
   119   58  183 1    
   120   59   60 am   BACKBONE|DICT|INTERRES
   121   59  184 1    
   122   60   61 2    
   123   60   62 1    
   124   62   63 1    
   125   62   64 1    
   126   62  185 1    
   127   63  186 1    
   128   63  187 1    
   129   63  188 1    
   130   64   65 am   BACKBONE|DICT|INTERRES
   131   64  189 1    
   132   65   66 2    
   133   67   68 2    
   134   67   69 am   BACKBONE|DICT|INTERRES
   135   69   70 1    
   136   69  190 1    
   137   70   71 1    
   138   70   72 1    
   139   70  191 1    
   140   71  192 1    
   141   71  193 1    
   142   71  194 1    
   143   72   73 2    
   144   72   74 am   BACKBONE|DICT|INTERRES
   145   74   75 1    
   146   74  195 1    
   147   75   76 1    
   148   75   77 1    
   149   75  196 1    
   150   76  197 1    
   151   76  198 1    
   152   76  199 1    
   153   77   78 2    
   154   77   79 am   BACKBONE|DICT|INTERRES
   155   79   80 1    
   156   79  200 1    
   157   80   81 1    
   158   80   82 1    
   159   80  201 1    
   160   81  202 1    
   161   81  203 1    
   162   81  204 1    
   163   82   83 2    
   164   82   84 am   BACKBONE|DICT|INTERRES
   165   84   85 1    
   166   84  205 1    
   167   85   86 1    
   168   85   87 1    
   169   85  206 1    
   170   86  207 1    
   171   86  208 1    
   172   86  209 1    
   173   87   88 2    
   174   87   89 am   BACKBONE|DICT|INTERRES
   175   89   90 1    
   176   89  210 1    
   177   90   91 1    
   178   90   92 1    
   179   90  211 1    
   180   91  212 1    
   181   91  213 1    
   182   91  214 1    
   183   92   93 2    
   184   92   94 am   BACKBONE|DICT|INTERRES
   185   94   95 1    
   186   94  215 1    
   187   95   96 1    
   188   95   97 1    
   189   95  216 1    
   190   96  217 1    
   191   96  218 1    
   192   96  219 1    
   193   97   98 2    
   194   97   99 am   BACKBONE|DICT|INTERRES
   195   99  100 1    
   196   99  220 1    
   197  100  101 1    
   198  100  102 1    
   199  100  221 1    
   200  101  222 1    
   201  101  223 1    
   202  101  224 1    
   203  102  103 2    
   204  102  104 am   BACKBONE|DICT|INTERRES
   205  104  105 1    
   206  104  225 1    
   207  105  106 1    
   208  105  107 1    
   209  105  226 1    
   210  106  227 1    
   211  106  228 1    
   212  106  229 1    
   213  107  108 2    
   214  107  109 am   BACKBONE|DICT|INTERRES
   215  109  110 1    
   216  109  230 1    
   217  110  111 1    
   218  110  112 1    
   219  110  231 1    
   220  111  232 1    
   221  111  233 1    
   222  111  234 1    
   223  112  113 2    
   224  112  114 am   BACKBONE|DICT|INTERRES
   225  114  115 1    
   226  114  235 1    
   227  115  116 1    
   228  115  117 1    
   229  115  236 1    
   230  116  237 1    
   231  116  238 1    
   232  116  239 1    
   233  117  118 2    
   234  117  119 am   BACKBONE|DICT|INTERRES
   235  119  120 1    
   236  119  240 1    
   237  120  121 1    
   238  120  124 1    
   239  120  241 1    
   240  121  122 am   BACKBONE|DICT|INTERRES
   241  121  123 2    
   242  122  242 1    
   243  122  243 1    
   244  124  125 1    
   245  124  244 1    
   246  124  245 1    
   247  125  126 1    
   248  126  246 1    
   249  126  247 1    
@<TRIPOS>SUBSTRUCTURE
     1 UNK         1 GROUP             0       ****    0 ROOT    
