@<TRIPOS>MOLECULE
3R540
247   249    1
SMALL
USER_CHARGES


@<TRIPOS>ATOM
      1 CA          0.3313  -13.4393  -51.5136 C.3       0 UNK        -0.1800 
      2 C           0.9526  -13.8791  -50.1951 C.2       0 UNK         0.5000 
      3 O           1.7896  -14.7824  -50.1840 O.2       0 UNK        -0.5000 
      4 N           0.5373  -13.2510  -49.0880 N.am      1 UNK        -0.5000 
      5 CA          0.9937  -13.5528  -47.7273 C.3       1 UNK         0.1400 
      6 C6          0.0954  -12.9016  -46.6425 C.3       23 UNK        -0.0398 
      7 S7         -1.7070  -13.0936  -46.8766 S.3       23 UNK        -0.2404 
      8 C8         -1.9590  -14.9012  -46.8498 C.3       23 UNK        -0.0205 
      9 C9         -1.8637  -15.5375  -48.2306 C.ar      23 UNK        -0.0193 
     10 C10        -2.6276  -15.0345  -49.2893 C.ar      23 UNK        -0.1150 
     11 C11        -2.5492  -15.6062  -50.5604 C.ar      23 UNK        -0.0193 
     12 C12        -1.7060  -16.7000  -50.7680 C.ar      23 UNK        -0.1150 
     13 C13        -0.9596  -17.2339  -49.7151 C.ar      23 UNK        -0.0193 
     14 C14        -1.0369  -16.6455  -48.4478 C.ar      23 UNK        -0.1150 
     15 C15        -0.0740  -18.4456  -49.9641 C.3       23 UNK        -0.0205 
     16 S16        -1.0402  -19.9910  -49.9471 S.3       23 UNK        -0.2404 
     17 C17        -1.3171  -20.2242  -48.1602 C.3       23 UNK        -0.0398 
     18 CA         -0.9227  -21.6453  -47.6847 C.3       11 UNK         0.1400 
     19 N          -0.4403  -21.6414  -46.3015 N.am      11 UNK        -0.5000 
     20 C           0.0785  -22.6939  -45.6544 C.2       10 UNK         0.5000 
     21 O           0.2553  -23.7969  -46.1667 O.2       10 UNK        -0.5000 
     22 CA          0.3929  -22.4984  -44.1628 C.3       10 UNK         0.1400 
     23 CB          1.7385  -21.7837  -43.9665 C.3       10 UNK        -0.1800 
     24 N          -0.6706  -21.7597  -43.4830 N.am      10 UNK        -0.5000 
     25 C          -1.9010  -22.2447  -43.2635 C.2       9 UNK         0.5000 
     26 O          -2.2507  -23.3856  -43.5670 O.2       9 UNK        -0.5000 
     27 CA         -2.9207  -21.2777  -42.6356 C.3       9 UNK         0.1400 
     28 CB         -2.7864  -21.2668  -41.1057 C.3       9 UNK        -0.1800 
     29 N          -2.7923  -19.9105  -43.1441 N.am      9 UNK        -0.5000 
     30 C          -3.0673  -19.5426  -44.4032 C.2       8 UNK         0.5000 
     31 O          -3.4567  -20.3184  -45.2754 O.2       8 UNK        -0.5000 
     32 CA         -2.8159  -18.0661  -44.7578 C.3       8 UNK         0.1400 
     33 CB         -3.9713  -17.1893  -44.2513 C.3       8 UNK        -0.1800 
     34 N          -1.5494  -17.5401  -44.2410 N.am      8 UNK        -0.5000 
     35 C          -0.3340  -18.0456  -44.4813 C.2       7 UNK         0.5000 
     36 O          -0.1537  -19.0832  -45.1157 O.2       7 UNK        -0.5000 
     37 CA          0.9010  -17.2991  -43.9367 C.3       7 UNK         0.1400 
     38 CB          1.6350  -16.5783  -45.0804 C.3       7 UNK        -0.1800 
     39 N           0.6907  -16.3781  -42.8093 N.am      7 UNK        -0.5000 
     40 C          -0.0462  -15.2584  -42.7475 C.2       6 UNK         0.5000 
     41 O          -0.8163  -14.8872  -43.6304 O.2       6 UNK        -0.5000 
     42 CA          0.1195  -14.3985  -41.4815 C.3       6 UNK         0.1400 
     43 CB         -0.8600  -14.8557  -40.3902 C.3       6 UNK        -0.1800 
     44 N           1.4855  -14.4100  -40.9474 N.am      6 UNK        -0.5000 
     45 C           2.5559  -13.9252  -41.5909 C.2       5 UNK         0.5000 
     46 O           2.5148  -13.4247  -42.7204 O.2       5 UNK        -0.5000 
     47 CA          3.8996  -14.0326  -40.8553 C.3       5 UNK         0.1400 
     48 CB          4.5030  -15.4388  -41.0052 C.3       5 UNK        -0.1800 
     49 N           4.8006  -13.0536  -41.4435 N.am      5 UNK        -0.5000 
     50 C           5.6841  -12.2848  -40.7986 C.2       4 UNK         0.5000 
     51 O           5.9556  -12.4058  -39.6035 O.2       4 UNK        -0.5000 
     52 CA          6.3682  -11.1791  -41.6317 C.3       4 UNK         0.1400 
     53 CB          7.7944  -11.6004  -42.0172 C.3       4 UNK        -0.1800 
     54 N           5.6263  -10.8572  -42.8538 N.am      4 UNK        -0.5000 
     55 C           4.4525  -10.2154  -42.9055 C.2       3 UNK         0.5000 
     56 O           3.9293   -9.6781  -41.9289 O.2       3 UNK        -0.5000 
     57 CA          3.7041  -10.2292  -44.2533 C.3       3 UNK         0.1400 
     58 CB          4.1520   -9.0687  -45.1617 C.3       3 UNK        -0.1800 
     59 N           3.7526  -11.5241  -44.9519 N.am      3 UNK        -0.5000 
     60 C           4.7911  -12.1280  -45.5502 C.2       2 UNK         0.5000 
     61 O           5.9298  -11.6606  -45.5810 O.2       2 UNK        -0.5000 
     62 CA          4.5329  -13.5092  -46.1846 C.3       2 UNK         0.1400 
     63 CB          5.0229  -14.6203  -45.2426 C.3       2 UNK        -0.1800 
     64 N           3.1298  -13.7604  -46.5310 N.am      2 UNK        -0.5000 
     65 C           2.4673  -13.1356  -47.5149 C.2       1 UNK         0.5000 
     66 O           2.9657  -12.2454  -48.2092 O.2       1 UNK        -0.5000 
     67 C          -2.0802  -22.6454  -47.8796 C.2       11 UNK         0.5000 
     68 O          -2.0535  -23.4406  -48.8196 O.2       11 UNK        -0.5000 
     69 N          -3.0494  -22.6243  -46.9531 N.am      12 UNK        -0.5000 
     70 CA         -4.1816  -23.5458  -46.9204 C.3       12 UNK         0.1400 
     71 CB         -5.1682  -23.1263  -45.8221 C.3       12 UNK        -0.1800 
     72 C          -3.7632  -25.0169  -46.7536 C.2       12 UNK         0.5000 
     73 O          -4.3415  -25.8815  -47.4118 O.2       12 UNK        -0.5000 
     74 N          -2.7584  -25.2727  -45.9074 N.am      13 UNK        -0.5000 
     75 CA         -2.1846  -26.5999  -45.7012 C.3       13 UNK         0.1400 
     76 CB         -1.3256  -26.5945  -44.4268 C.3       13 UNK        -0.1800 
     77 C          -1.3695  -27.0856  -46.9144 C.2       13 UNK         0.5000 
     78 O          -1.5796  -28.2074  -47.3771 O.2       13 UNK        -0.5000 
     79 N          -0.4488  -26.2415  -47.3984 N.am      14 UNK        -0.5000 
     80 CA          0.5160  -26.5819  -48.4438 C.3       14 UNK         0.1400 
     81 CB          1.6538  -25.5492  -48.4442 C.3       14 UNK        -0.1800 
     82 C          -0.0998  -26.6911  -49.8477 C.2       14 UNK         0.5000 
     83 O           0.2872  -27.5837  -50.6031 O.2       14 UNK        -0.5000 
     84 N          -1.0264  -25.7831  -50.1782 N.am      15 UNK        -0.5000 
     85 CA         -1.6163  -25.6472  -51.5107 C.3       15 UNK         0.1400 
     86 CB         -1.3173  -24.2365  -52.0547 C.3       15 UNK        -0.1800 
     87 C          -3.1147  -26.0009  -51.5281 C.2       15 UNK         0.5000 
     88 O          -3.8265  -25.5416  -52.4191 O.2       15 UNK        -0.5000 
     89 N          -3.5638  -26.8257  -50.5680 N.am      16 UNK        -0.5000 
     90 CA         -4.8883  -27.4595  -50.4843 C.3       16 UNK         0.1400 
     91 CB         -5.0075  -28.5630  -51.5556 C.3       16 UNK        -0.1800 
     92 C          -6.0498  -26.4463  -50.5537 C.2       16 UNK         0.5000 
     93 O          -6.7533  -26.3684  -51.5623 O.2       16 UNK        -0.5000 
     94 N          -6.1839  -25.6562  -49.4813 N.am      17 UNK        -0.5000 
     95 CA         -7.0877  -24.5082  -49.3294 C.3       17 UNK         0.1400 
     96 CB         -8.5686  -24.9211  -49.4669 C.3       17 UNK        -0.1800 
     97 C          -6.6965  -23.3214  -50.2378 C.2       17 UNK         0.5000 
     98 O          -7.5565  -22.5232  -50.6121 O.2       17 UNK        -0.5000 
     99 N          -5.3943  -23.2267  -50.5510 N.am      18 UNK        -0.5000 
    100 CA        -4.7460  -22.2200  -51.3949 C.3       18 UNK         0.1400 
    101 CB        -4.7789  -20.8322  -50.7238 C.3       18 UNK        -0.1800 
    102 C         -5.2820  -22.2149  -52.8409 C.2       18 UNK         0.5000 
    103 O         -5.5049  -21.1473  -53.4177 O.2       18 UNK        -0.5000 
    104 N         -5.4698  -23.4130  -53.4106 N.am      19 UNK        -0.5000 
    105 CA        -5.8884  -23.6301  -54.7935 C.3       19 UNK         0.1400 
    106 CB        -6.1272  -25.1299  -55.0234 C.3       19 UNK        -0.1800 
    107 C         -4.8310  -23.0805  -55.7654 C.2       19 UNK         0.5000 
    108 O         -3.6586  -23.4450  -55.6558 O.2       19 UNK        -0.5000 
    109 N         -5.2516  -22.1560  -56.6388 N.am      20 UNK        -0.5000 
    110 CA        -4.4552  -21.3470  -57.5760 C.3       20 UNK         0.1400 
    111 CB        -3.6880  -22.2307  -58.5785 C.3       20 UNK        -0.1800 
    112 C         -3.5172  -20.3164  -56.9073 C.2       20 UNK         0.5000 
    113 O         -3.2854  -19.2562  -57.4894 O.2       20 UNK        -0.5000 
    114 N         -3.0117  -20.6215  -55.7049 N.am      21 UNK        -0.5000 
    115 CA        -2.1701  -19.7526  -54.8821 C.3       21 UNK         0.1400 
    116 CB        -1.6117  -20.5620  -53.7011 C.3       21 UNK        -0.1800 
    117 C         -2.9091  -18.4994  -54.3775 C.2       21 UNK         0.5000 
    118 O         -2.3028  -17.4301  -54.3096 O.2       21 UNK        -0.5000 
    119 N         -4.1987  -18.6488  -54.0535 N.am      22 UNK        -0.5000 
    120 CA        -5.0885  -17.5643  -53.6180 C.3       22 UNK         0.1400 
    121 C         -6.5589  -17.7589  -54.0803 C.2       22 UNK         0.5000 
    122 N         -7.0417  -18.9818  -54.2657 N.am      22 UNK        -0.7600 
    123 O         -7.2708  -16.7831  -54.3008 O.2       22 UNK        -0.5000 
    124 C124       -4.9858  -17.3138  -52.0887 C.3       23 UNK        -0.0398 
    125 S125       -5.1101  -15.5479  -51.6475 S.3       23 UNK        -0.2404 
    126 C126       -3.3639  -15.0304  -51.7091 C.3       23 UNK        -0.0205 
    127 H127        1.0887  -12.9879  -52.1542 H         1 UNK         0.0600 
    128 H128       -0.4677  -12.7130  -51.3622 H         1 UNK         0.0600 
    129 H129       -0.0896  -14.2997  -52.0341 H         1 UNK         0.0600 
    130 H130       -0.1501  -12.5156  -49.1606 H         1 UNK         0.3000 
    131 H131        0.9404  -14.6360  -47.6080 H         1 UNK         0.0600 
    132 H132        0.3462  -13.2943  -45.6555 H         1 UNK         0.0800 
    133 H133        0.2868  -11.8279  -46.5920 H         1 UNK         0.0800 
    134 H134       -1.2545  -15.3596  -46.1576 H         1 UNK         0.0800 
    135 H135       -2.9546  -15.1009  -46.4549 H         1 UNK         0.0800 
    136 H136       -3.2809  -14.1890  -49.1258 H         1 UNK         0.1150 
    137 H137       -1.6388  -17.1483  -51.7488 H         1 UNK         0.1150 
    138 H138       -0.4553  -17.0511  -47.6322 H         1 UNK         0.1150 
    139 H139        0.4082  -18.3450  -50.9376 H         1 UNK         0.0800 
    140 H140        0.7334  -18.4963  -49.2320 H         1 UNK         0.0800 
    141 H141       -2.3532  -19.9788  -47.9189 H         1 UNK         0.0800 
    142 H142       -0.7173  -19.4846  -47.6318 H         1 UNK         0.0800 
    143 H143       -0.0848  -21.9967  -48.2910 H         1 UNK         0.0600 
    144 H144       -0.5027  -20.7565  -45.8032 H         1 UNK         0.3000 
    145 H145        0.4664  -23.4872  -43.7046 H         1 UNK         0.0600 
    146 H146        1.9796  -21.6812  -42.9084 H         1 UNK         0.0600 
    147 H147        2.5477  -22.3491  -44.4304 H         1 UNK         0.0600 
    148 H148        1.7420  -20.7879  -44.4095 H         1 UNK         0.0600 
    149 H149       -0.4823  -20.7949  -43.2560 H         1 UNK         0.3000 
    150 H150       -3.9197  -21.6401  -42.8871 H         1 UNK         0.0600 
    151 H151       -2.8959  -22.2725  -40.6977 H         1 UNK         0.0600 
    152 H152       -3.5561  -20.6459  -40.6469 H         1 UNK         0.0600 
    153 H153       -1.8145  -20.8874  -40.7877 H         1 UNK         0.0600 
    154 H154       -2.4645  -19.2079  -42.4977 H         1 UNK         0.3000 
    155 H155       -2.7793  -17.9899  -45.8466 H         1 UNK         0.0600 
    156 H156       -4.0548  -17.2217  -43.1643 H         1 UNK         0.0600 
    157 H157       -4.9242  -17.5223  -44.6647 H         1 UNK         0.0600 
    158 H158       -3.8381  -16.1475  -44.5405 H         1 UNK         0.0600 
    159 H159       -1.5818  -16.6348  -43.7834 H         1 UNK         0.3000 
    160 H160        1.5695  -18.0744  -43.5593 H         1 UNK         0.0600 
    161 H161        1.0366  -15.7659  -45.4888 H         1 UNK         0.0600 
    162 H162        1.8640  -17.2629  -45.8985 H         1 UNK         0.0600 
    163 H163        2.5788  -16.1641  -44.7292 H         1 UNK         0.0600 
    164 H164        1.2474  -16.5862  -41.9928 H         1 UNK         0.3000 
    165 H165       -0.1254  -13.3690  -41.7514 H         1 UNK         0.0600 
    166 H166       -0.8153  -14.2000  -39.5204 H         1 UNK         0.0600 
    167 H167       -1.8879  -14.8378  -40.7555 H         1 UNK         0.0600 
    168 H168       -0.6480  -15.8722  -40.0563 H         1 UNK         0.0600 
    169 H169        1.6040  -14.8016  -40.0240 H         1 UNK         0.3000 
    170 H170        3.7380  -13.8075  -39.7990 H         1 UNK         0.0600 
    171 H171        4.6495  -15.7058  -42.0524 H         1 UNK         0.0600 
    172 H172        5.4695  -15.5063  -40.5055 H         1 UNK         0.0600 
    173 H173        3.8546  -16.1943  -40.5602 H         1 UNK         0.0600 
    174 H174        4.5841  -12.8308  -42.4059 H         1 UNK         0.3000 
    175 H175        6.4258  -10.2818  -41.0124 H         1 UNK         0.0600 
    176 H176        8.3077  -10.8050  -42.5579 H         1 UNK         0.0600 
    177 H177        7.7936  -12.4896  -42.6490 H         1 UNK         0.0600 
    178 H178        8.3888  -11.8265  -41.1310 H         1 UNK         0.0600 
    179 H179        5.9868  -11.2326  -43.7268 H         1 UNK         0.3000 
    180 H180        2.6500  -10.0685  -44.0212 H         1 UNK         0.0600 
    181 H181        5.2132   -9.1233  -45.4053 H         1 UNK         0.0600 
    182 H182        3.9819   -8.1083  -44.6738 H         1 UNK         0.0600 
    183 H183        3.5923   -9.0624  -46.0971 H         1 UNK         0.0600 
    184 H184        2.8921  -12.0520  -44.9102 H         1 UNK         0.3000 
    185 H185        5.1214  -13.5587  -47.1032 H         1 UNK         0.0600 
    186 H186        6.0762  -14.4861  -44.9924 H         1 UNK         0.0600 
    187 H187        4.4645  -14.6292  -44.3065 H         1 UNK         0.0600 
    188 H188        4.9245  -15.6029  -45.7043 H         1 UNK         0.0600 
    189 H189        2.6610  -14.4708  -45.9895 H         1 UNK         0.3000 
    190 H190       -3.0285  -21.9066  -46.2330 H         1 UNK         0.3000 
    191 H191       -4.6893  -23.4557  -47.8794 H         1 UNK         0.0600 
    192 H192       -5.5417  -22.1166  -45.9934 H         1 UNK         0.0600 
    193 H193       -6.0315  -23.7923  -45.7950 H         1 UNK         0.0600 
    194 H194       -4.7051  -23.1485  -44.8355 H         1 UNK         0.0600 
    195 H195       -2.3642  -24.5117  -45.3660 H         1 UNK         0.3000 
    196 H196       -3.0043  -27.3051  -45.5475 H         1 UNK         0.0600 
    197 H197       -0.8934  -27.5787  -44.2423 H         1 UNK         0.0600 
    198 H198       -1.9218  -26.3314  -43.5529 H         1 UNK         0.0600 
    199 H199       -0.5036  -25.8813  -44.4945 H         1 UNK         0.0600 
    200 H200       -0.3265  -25.3335  -46.9533 H         1 UNK         0.3000 
    201 H201        0.9488  -27.5539  -48.1976 H         1 UNK         0.0600 
    202 H202        2.1566  -25.5163  -47.4775 H         1 UNK         0.0600 
    203 H203        1.2853  -24.5461  -48.6639 H         1 UNK         0.0600 
    204 H204        2.4066  -25.7949  -49.1942 H         1 UNK         0.0600 
    205 H205       -1.3040  -25.0770  -49.5001 H         1 UNK         0.3000 
    206 H206       -1.1547  -26.3525  -52.2041 H         1 UNK         0.0600 
    207 H207       -0.2444  -24.0910  -52.1795 H         1 UNK         0.0600 
    208 H208       -1.7767  -24.0723  -53.0306 H         1 UNK         0.0600 
    209 H209       -1.6728  -23.4569  -51.3843 H         1 UNK         0.0600 
    210 H210       -2.9035  -27.1040  -49.8551 H         1 UNK         0.3000 
    211 H211       -4.9445  -27.9420  -49.5071 H         1 UNK         0.0600 
    212 H212       -4.9386  -28.1578  -52.5659 H         1 UNK         0.0600 
    213 H213       -5.9632  -29.0823  -51.4757 H         1 UNK         0.0600 
    214 H214       -4.2216  -29.3094  -51.4407 H         1 UNK         0.0600 
    215 H215       -5.5396  -25.8109  -48.7053 H         1 UNK         0.3000 
    216 H216       -6.9534  -24.1572  -48.3060 H         1 UNK         0.0600 
    217 H217       -9.2282  -24.1068  -49.1654 H         1 UNK         0.0600 
    218 H218       -8.8008  -25.7767  -48.8330 H         1 UNK         0.0600 
    219 H219       -8.8271  -25.1817  -50.4934 H         1 UNK         0.0600 
    220 H220       -4.7889  -23.9649  -50.2230 H         1 UNK         0.3000 
    221 H221       -3.7009  -22.5146  -51.4660 H         1 UNK         0.0600 
    222 H222       -5.7897  -20.4262  -50.6776 H         1 UNK         0.0600 
    223 H223       -4.3854  -20.8762  -49.7081 H         1 UNK         0.0600 
    224 H224       -4.1630  -20.1219  -51.2755 H         1 UNK         0.0600 
    225 H225       -5.1611  -24.2414  -52.9085 H         1 UNK         0.3000 
    226 H226       -6.8324  -23.1032  -54.9463 H         1 UNK         0.0600 
    227 H227       -6.8905  -25.5152  -54.3468 H         1 UNK         0.0600 
    228 H228       -6.4657  -25.3205  -56.0424 H         1 UNK         0.0600 
    229 H229       -5.2178  -25.7109  -54.8634 H         1 UNK         0.0600 
    230 H230       -6.2305  -21.9062  -56.6090 H         1 UNK         0.3000 
    231 H231       -5.1830  -20.7682  -58.1468 H         1 UNK         0.0600 
    232 H232       -2.9004  -22.8097  -58.0959 H         1 UNK         0.0600 
    233 H233       -3.2140  -21.6204  -59.3480 H         1 UNK         0.0600 
    234 H234       -4.3571  -22.9276  -59.0831 H         1 UNK         0.0600 
    235 H235       -3.2119  -21.5473  -55.3430 H         1 UNK         0.3000 
    236 H236       -1.3310  -19.4200  -55.4964 H         1 UNK         0.0600 
    237 H237       -1.0399  -21.4237  -54.0457 H         1 UNK         0.0600 
    238 H238       -0.9437  -19.9509  -53.0928 H         1 UNK         0.0600 
    239 H239       -2.4055  -20.9262  -53.0490 H         1 UNK         0.0600 
    240 H240       -4.6187  -19.5700  -54.1145 H         1 UNK         0.3000 
    241 H241       -4.7520  -16.6646  -54.1376 H         1 UNK         0.0600 
    242 H242       -6.5090  -19.8087  -54.0027 H         1 UNK         0.3800 
    243 H243       -7.9942  -19.0869  -54.5759 H         1 UNK         0.3800 
    244 H244       -5.7546  -17.8656  -51.5450 H         1 UNK         0.0800 
    245 H245       -4.0450  -17.6983  -51.6989 H         1 UNK         0.0800 
    246 H246       -2.9322  -15.3161  -52.6694 H         1 UNK         0.0800 
    247 H247       -3.3185  -13.9411  -51.6698 H         1 UNK         0.0800 
@<TRIPOS>BOND
     1    1    2 1    
     2    1  127 1    
     3    1  128 1    
     4    1  129 1    
     5    2    3 2    
     6    2    4 am   BACKBONE|DICT|INTERRES
     7    4    5 1    
     8    4  130 1    
     9    5    6 1    
    10    5   65 1    
    11    5  131 1    
    12    6    7 1    
    13    6  132 1    
    14    6  133 1    
    15    7    8 1    
    16    8    9 1    
    17    8  134 1    
    18    8  135 1    
    19    9   10 ar   
    20    9   14 ar   
    21   10   11 ar   
    22   10  136 1    
    23   11   12 ar   
    24   11  126 1    
    25   12   13 ar   
    26   12  137 1    
    27   13   14 ar   
    28   13   15 1    
    29   14  138 1    
    30   15   16 1    
    31   15  139 1    
    32   15  140 1    
    33   16   17 1    
    34   17   18 1    
    35   17  141 1    
    36   17  142 1    
    37   18   19 1    
    38   18   67 1    
    39   18  143 1    
    40   19   20 am   BACKBONE|DICT|INTERRES
    41   19  144 1    
    42   20   21 2    
    43   20   22 1    
    44   22   23 1    
    45   22   24 1    
    46   22  145 1    
    47   23  146 1    
    48   23  147 1    
    49   23  148 1    
    50   24   25 am   BACKBONE|DICT|INTERRES
    51   24  149 1    
    52   25   26 2    
    53   25   27 1    
    54   27   28 1    
    55   27   29 1    
    56   27  150 1    
    57   28  151 1    
    58   28  152 1    
    59   28  153 1    
    60   29   30 am   BACKBONE|DICT|INTERRES
    61   29  154 1    
    62   30   31 2    
    63   30   32 1    
    64   32   33 1    
    65   32   34 1    
    66   32  155 1    
    67   33  156 1    
    68   33  157 1    
    69   33  158 1    
    70   34   35 am   BACKBONE|DICT|INTERRES
    71   34  159 1    
    72   35   36 2    
    73   35   37 1    
    74   37   38 1    
    75   37   39 1    
    76   37  160 1    
    77   38  161 1    
    78   38  162 1    
    79   38  163 1    
    80   39   40 am   BACKBONE|DICT|INTERRES
    81   39  164 1    
    82   40   41 2    
    83   40   42 1    
    84   42   43 1    
    85   42   44 1    
    86   42  165 1    
    87   43  166 1    
    88   43  167 1    
    89   43  168 1    
    90   44   45 am   BACKBONE|DICT|INTERRES
    91   44  169 1    
    92   45   46 2    
    93   45   47 1    
    94   47   48 1    
    95   47   49 1    
    96   47  170 1    
    97   48  171 1    
    98   48  172 1    
    99   48  173 1    
   100   49   50 am   BACKBONE|DICT|INTERRES
   101   49  174 1    
   102   50   51 2    
   103   50   52 1    
   104   52   53 1    
   105   52   54 1    
   106   52  175 1    
   107   53  176 1    
   108   53  177 1    
   109   53  178 1    
   110   54   55 am   BACKBONE|DICT|INTERRES
   111   54  179 1    
   112   55   56 2    
   113   55   57 1    
   114   57   58 1    
   115   57   59 1    
   116   57  180 1    
   117   58  181 1    
   118   58  182 1    
   119   58  183 1    
   120   59   60 am   BACKBONE|DICT|INTERRES
   121   59  184 1    
   122   60   61 2    
   123   60   62 1    
   124   62   63 1    
   125   62   64 1    
   126   62  185 1    
   127   63  186 1    
   128   63  187 1    
   129   63  188 1    
   130   64   65 am   BACKBONE|DICT|INTERRES
   131   64  189 1    
   132   65   66 2    
   133   67   68 2    
   134   67   69 am   BACKBONE|DICT|INTERRES
   135   69   70 1    
   136   69  190 1    
   137   70   71 1    
   138   70   72 1    
   139   70  191 1    
   140   71  192 1    
   141   71  193 1    
   142   71  194 1    
   143   72   73 2    
   144   72   74 am   BACKBONE|DICT|INTERRES
   145   74   75 1    
   146   74  195 1    
   147   75   76 1    
   148   75   77 1    
   149   75  196 1    
   150   76  197 1    
   151   76  198 1    
   152   76  199 1    
   153   77   78 2    
   154   77   79 am   BACKBONE|DICT|INTERRES
   155   79   80 1    
   156   79  200 1    
   157   80   81 1    
   158   80   82 1    
   159   80  201 1    
   160   81  202 1    
   161   81  203 1    
   162   81  204 1    
   163   82   83 2    
   164   82   84 am   BACKBONE|DICT|INTERRES
   165   84   85 1    
   166   84  205 1    
   167   85   86 1    
   168   85   87 1    
   169   85  206 1    
   170   86  207 1    
   171   86  208 1    
   172   86  209 1    
   173   87   88 2    
   174   87   89 am   BACKBONE|DICT|INTERRES
   175   89   90 1    
   176   89  210 1    
   177   90   91 1    
   178   90   92 1    
   179   90  211 1    
   180   91  212 1    
   181   91  213 1    
   182   91  214 1    
   183   92   93 2    
   184   92   94 am   BACKBONE|DICT|INTERRES
   185   94   95 1    
   186   94  215 1    
   187   95   96 1    
   188   95   97 1    
   189   95  216 1    
   190   96  217 1    
   191   96  218 1    
   192   96  219 1    
   193   97   98 2    
   194   97   99 am   BACKBONE|DICT|INTERRES
   195   99  100 1    
   196   99  220 1    
   197  100  101 1    
   198  100  102 1    
   199  100  221 1    
   200  101  222 1    
   201  101  223 1    
   202  101  224 1    
   203  102  103 2    
   204  102  104 am   BACKBONE|DICT|INTERRES
   205  104  105 1    
   206  104  225 1    
   207  105  106 1    
   208  105  107 1    
   209  105  226 1    
   210  106  227 1    
   211  106  228 1    
   212  106  229 1    
   213  107  108 2    
   214  107  109 am   BACKBONE|DICT|INTERRES
   215  109  110 1    
   216  109  230 1    
   217  110  111 1    
   218  110  112 1    
   219  110  231 1    
   220  111  232 1    
   221  111  233 1    
   222  111  234 1    
   223  112  113 2    
   224  112  114 am   BACKBONE|DICT|INTERRES
   225  114  115 1    
   226  114  235 1    
   227  115  116 1    
   228  115  117 1    
   229  115  236 1    
   230  116  237 1    
   231  116  238 1    
   232  116  239 1    
   233  117  118 2    
   234  117  119 am   BACKBONE|DICT|INTERRES
   235  119  120 1    
   236  119  240 1    
   237  120  121 1    
   238  120  124 1    
   239  120  241 1    
   240  121  122 am   BACKBONE|DICT|INTERRES
   241  121  123 2    
   242  122  242 1    
   243  122  243 1    
   244  124  125 1    
   245  124  244 1    
   246  124  245 1    
   247  125  126 1    
   248  126  246 1    
   249  126  247 1    
@<TRIPOS>SUBSTRUCTURE
     1 UNK         1 GROUP             0       ****    0 ROOT    
