@<TRIPOS>MOLECULE
3R540
247   249    1
SMALL
USER_CHARGES


@<TRIPOS>ATOM
      1 CA          4.8530  -18.1056  -45.2928 C.3       0 UNK        -0.1800 
      2 C           3.7812  -17.0847  -45.6434 C.2       0 UNK         0.5000 
      3 O           3.3399  -16.3410  -44.7716 O.2       0 UNK        -0.5000 
      4 N           3.3703  -17.0400  -46.9175 N.am      1 UNK        -0.5000 
      5 CA          2.2885  -16.2007  -47.4587 C.3       1 UNK         0.1400 
      6 C6          2.0664  -16.4886  -48.9650 C.3       23 UNK        -0.0398 
      7 S7          1.4213  -18.1754  -49.2359 S.3       23 UNK        -0.2404 
      8 C8          0.5313  -18.0047  -50.8234 C.3       23 UNK        -0.0205 
      9 C9         -0.8426  -17.3294  -50.7702 C.ar      23 UNK        -0.0193 
     10 C10        -1.6814  -17.4435  -51.8844 C.ar      23 UNK        -0.1150 
     11 C11        -2.9375  -16.8295  -51.9046 C.ar      23 UNK        -0.0193 
     12 C12        -3.3616  -16.0979  -50.7923 C.ar      23 UNK        -0.1150 
     13 C13        -2.5433  -15.9737  -49.6677 C.ar      23 UNK        -0.0193 
     14 C14        -1.2857  -16.5850  -49.6695 C.ar      23 UNK        -0.1150 
     15 C15        -3.0090  -15.1409  -48.4773 C.3       23 UNK        -0.0205 
     16 S16        -2.6390  -15.8980  -46.8596 S.3       23 UNK        -0.2404 
     17 C17        -3.7468  -17.3497  -46.8531 C.3       23 UNK        -0.0398 
     18 CA         -3.0314  -18.6591  -47.2723 C.3       11 UNK         0.1400 
     19 N          -1.9526  -19.0476  -46.3496 N.am      11 UNK        -0.5000 
     20 C          -1.0219  -19.9748  -46.6202 C.2       10 UNK         0.5000 
     21 O          -0.9780  -20.5994  -47.6802 O.2       10 UNK        -0.5000 
     22 CA         -0.0338  -20.3562  -45.5039 C.3       10 UNK         0.1400 
     23 CB          1.2353  -19.5021  -45.5777 C.3       10 UNK        -0.1800 
     24 N          -0.5880  -20.3027  -44.1498 N.am      10 UNK        -0.5000 
     25 C          -1.6150  -21.0431  -43.7061 C.2       9 UNK         0.5000 
     26 O          -2.3046  -21.7589  -44.4334 O.2       9 UNK        -0.5000 
     27 CA         -1.9205  -20.9749  -42.2021 C.3       9 UNK         0.1400 
     28 CB         -0.8497  -21.7251  -41.3944 C.3       9 UNK        -0.1800 
     29 N          -1.9843  -19.5872  -41.7558 N.am      9 UNK        -0.5000 
     30 C          -3.1139  -18.8713  -41.6764 C.2       8 UNK         0.5000 
     31 O          -4.2393  -19.3451  -41.8376 O.2       8 UNK        -0.5000 
     32 CA         -2.9682  -17.3614  -41.3953 C.3       8 UNK         0.1400 
     33 CB         -3.1414  -17.0719  -39.8970 C.3       8 UNK        -0.1800 
     34 N          -1.6984  -16.7920  -41.8562 N.am      8 UNK        -0.5000 
     35 C          -1.2943  -16.7732  -43.1355 C.2       7 UNK         0.5000 
     36 O          -1.9453  -17.2608  -44.0568 O.2       7 UNK        -0.5000 
     37 CA          0.0971  -16.1812  -43.4278 C.3       7 UNK         0.1400 
     38 CB          0.0001  -14.6691  -43.6735 C.3       7 UNK        -0.1800 
     39 N           1.0871  -16.4486  -42.3820 N.am      7 UNK        -0.5000 
     40 C           1.4116  -17.6619  -41.9082 C.2       6 UNK         0.5000 
     41 O           0.9060  -18.7133  -42.3055 O.2       6 UNK        -0.5000 
     42 CA          2.4273  -17.7096  -40.7535 C.3       6 UNK         0.1400 
     43 CB          3.8571  -17.7898  -41.3023 C.3       6 UNK        -0.1800 
     44 N           2.3242  -16.5690  -39.8415 N.am      6 UNK        -0.5000 
     45 C           1.2558  -16.2509  -39.0996 C.2       5 UNK         0.5000 
     46 O           0.2132  -16.9048  -39.0991 O.2       5 UNK        -0.5000 
     47 CA          1.3404  -14.9736  -38.2383 C.3       5 UNK         0.1400 
     48 CB          2.0074  -15.2592  -36.8793 C.3       5 UNK        -0.1800 
     49 N           1.9550  -13.8221  -38.9168 N.am      5 UNK        -0.5000 
     50 C           3.2234  -13.6624  -39.3173 C.2       4 UNK         0.5000 
     51 O           4.1221  -14.4846  -39.1220 O.2       4 UNK        -0.5000 
     52 CA          3.5321  -12.3689  -40.0923 C.3       4 UNK         0.1400 
     53 CB          4.1605  -11.3193  -39.1633 C.3       4 UNK        -0.1800 
     54 N           4.4328  -12.6142  -41.2192 N.am      4 UNK        -0.5000 
     55 C           4.1471  -13.3901  -42.2729 C.2       3 UNK         0.5000 
     56 O           3.0674  -13.9663  -42.4274 O.2       3 UNK        -0.5000 
     57 CA          5.2727  -13.5642  -43.3042 C.3       3 UNK         0.1400 
     58 CB          6.0862  -14.8365  -43.0231 C.3       3 UNK        -0.1800 
     59 N           4.7306  -13.6378  -44.6592 N.am      3 UNK        -0.5000 
     60 C           4.6546  -12.5957  -45.4982 C.2       2 UNK         0.5000 
     61 O           5.0101  -11.4567  -45.1902 O.2       2 UNK        -0.5000 
     62 CA          4.1306  -12.8462  -46.9272 C.3       2 UNK         0.1400 
     63 CB          5.1985  -12.4687  -47.9686 C.3       2 UNK        -0.1800 
     64 N           3.7457  -14.2397  -47.1554 N.am      2 UNK        -0.5000 
     65 C           2.4854  -14.6855  -47.2275 C.2       1 UNK         0.5000 
     66 O           1.4959  -13.9605  -47.1210 O.2       1 UNK        -0.5000 
     67 C          -4.0514  -19.7884  -47.5582 C.2       11 UNK         0.5000 
     68 O          -4.9009  -19.6121  -48.4309 O.2       11 UNK        -0.5000 
     69 N          -3.9394  -20.9289  -46.8648 N.am      12 UNK        -0.5000 
     70 CA         -4.5655  -22.1907  -47.2400 C.3       12 UNK         0.1400 
     71 CB         -5.4642  -22.6817  -46.0937 C.3       12 UNK        -0.1800 
     72 C          -3.4813  -23.2267  -47.5816 C.2       12 UNK         0.5000 
     73 O          -3.5006  -23.7846  -48.6775 O.2       12 UNK        -0.5000 
     74 N          -2.5592  -23.4693  -46.6392 N.am      13 UNK        -0.5000 
     75 CA         -1.6062  -24.5806  -46.6609 C.3       13 UNK         0.1400 
     76 CB         -0.9365  -24.6928  -45.2823 C.3       13 UNK        -0.1800 
     77 C          -0.5399  -24.5046  -47.7672 C.2       13 UNK         0.5000 
     78 O          -0.2019  -25.5390  -48.3434 O.2       13 UNK        -0.5000 
     79 N          -0.0228  -23.3004  -48.0394 N.am      14 UNK        -0.5000 
     80 CA          0.9661  -23.0563  -49.0915 C.3       14 UNK         0.1400 
     81 CB          1.9525  -21.9700  -48.6394 C.3       14 UNK        -0.1800 
     82 C           0.2724  -22.6635  -50.4040 C.2       14 UNK         0.5000 
     83 O           0.7221  -23.0761  -51.4738 O.2       14 UNK        -0.5000 
     84 N          -0.8428  -21.9240  -50.2957 N.am      15 UNK        -0.5000 
     85 CA         -1.7215  -21.5395  -51.4028 C.3       15 UNK         0.1400 
     86 CB         -2.8748  -20.6871  -50.8623 C.3       15 UNK        -0.1800 
     87 C          -2.2738  -22.7395  -52.1938 C.2       15 UNK         0.5000 
     88 O          -2.4549  -22.6235  -53.4041 O.2       15 UNK        -0.5000 
     89 N          -2.4647  -23.8815  -51.5125 N.am      16 UNK        -0.5000 
     90 CA         -2.8795  -25.1801  -52.0537 C.3       16 UNK         0.1400 
     91 CB         -2.8043  -26.2369  -50.9422 C.3       16 UNK        -0.1800 
     92 C          -2.0984  -25.6611  -53.2928 C.2       16 UNK         0.5000 
     93 O          -2.6789  -26.3527  -54.1299 O.2       16 UNK        -0.5000 
     94 N          -0.8302  -25.2450  -53.4274 N.am      17 UNK        -0.5000 
     95 CA          0.0168  -25.4898  -54.5988 C.3       17 UNK         0.1400 
     96 CB          1.4362  -24.9866  -54.2969 C.3       17 UNK        -0.1800 
     97 C          -0.5123  -24.8556  -55.9050 C.2       17 UNK         0.5000 
     98 O          -0.1676  -25.3342  -56.9861 O.2       17 UNK        -0.5000 
     99 N          -1.3450  -23.8135  -55.7863 N.am      18 UNK        -0.5000 
    100 CA        -2.0293  -23.1281  -56.8830 C.3       18 UNK         0.1400 
    101 CB        -1.4592  -21.7028  -56.9993 C.3       18 UNK        -0.1800 
    102 C         -3.5574  -23.1257  -56.6612 C.2       18 UNK         0.5000 
    103 O         -4.2433  -22.2611  -57.2082 O.2       18 UNK        -0.5000 
    104 N         -4.0478  -24.0939  -55.8684 N.am      19 UNK        -0.5000 
    105 CA        -5.3916  -24.2344  -55.2963 C.3       19 UNK         0.1400 
    106 CB        -6.4989  -24.2088  -56.3677 C.3       19 UNK        -0.1800 
    107 C         -5.6519  -23.1970  -54.1875 C.2       19 UNK         0.5000 
    108 O         -5.4729  -21.9975  -54.3978 O.2       19 UNK        -0.5000 
    109 N         -6.1055  -23.6752  -53.0201 N.am      20 UNK        -0.5000 
    110 CA        -6.2993  -22.8775  -51.8008 C.3       20 UNK         0.1400 
    111 CB        -6.5758  -23.8257  -50.6238 C.3       20 UNK        -0.1800 
    112 C         -7.3935  -21.7940  -51.9061 C.2       20 UNK         0.5000 
    113 O         -7.4202  -20.8772  -51.0861 O.2       20 UNK        -0.5000 
    114 N         -8.2620  -21.9050  -52.9199 N.am      21 UNK        -0.5000 
    115 CA        -9.2370  -20.8843  -53.3033 C.3       21 UNK         0.1400 
    116 CB       -10.3038  -21.5385  -54.1958 C.3       21 UNK        -0.1800 
    117 C         -8.6023  -19.6723  -54.0210 C.2       21 UNK         0.5000 
    118 O         -9.2634  -18.6396  -54.1361 O.2       21 UNK        -0.5000 
    119 N         -7.3577  -19.8173  -54.5026 N.am      22 UNK        -0.5000 
    120 CA        -6.5691  -18.8094  -55.2354 C.3       22 UNK         0.1400 
    121 C         -7.1165  -18.4616  -56.6556 C.2       22 UNK         0.5000 
    122 N         -8.0017  -19.2600  -57.2403 N.am      22 UNK        -0.7600 
    123 O         -6.7136  -17.4693  -57.2572 O.2       22 UNK        -0.5000 
    124 C124       -6.2548  -17.5437  -54.3870 C.3       23 UNK        -0.0398 
    125 S125       -5.3099  -17.9149  -52.8662 S.3       23 UNK        -0.2404 
    126 C126       -3.8191  -16.9070  -53.1424 C.3       23 UNK        -0.0205 
    127 H127        5.7493  -17.6010  -44.9325 H         1 UNK         0.0600 
    128 H128        5.1269  -18.7176  -46.1524 H         1 UNK         0.0600 
    129 H129        4.4928  -18.7676  -44.5055 H         1 UNK         0.0600 
    130 H130        3.7768  -17.6841  -47.5809 H         1 UNK         0.3000 
    131 H131        1.3765  -16.4703  -46.9216 H         1 UNK         0.0600 
    132 H132        1.3762  -15.7678  -49.4054 H         1 UNK         0.0800 
    133 H133        2.9999  -16.3788  -49.5195 H         1 UNK         0.0800 
    134 H134        0.4056  -19.0099  -51.2285 H         1 UNK         0.0800 
    135 H135        1.1645  -17.4663  -51.5297 H         1 UNK         0.0800 
    136 H136       -1.3488  -18.0047  -52.7465 H         1 UNK         0.1150 
    137 H137       -4.3292  -15.6161  -50.8113 H         1 UNK         0.1150 
    138 H138       -0.6663  -16.4783  -48.7935 H         1 UNK         0.1150 
    139 H139       -2.5128  -14.1709  -48.5251 H         1 UNK         0.0800 
    140 H140       -4.0800  -14.9417  -48.5372 H         1 UNK         0.0800 
    141 H141       -4.5902  -17.1349  -47.5118 H         1 UNK         0.0800 
    142 H142       -4.1659  -17.4557  -45.8513 H         1 UNK         0.0800 
    143 H143       -2.5571  -18.4750  -48.2359 H         1 UNK         0.0600 
    144 H144       -1.9281  -18.5552  -45.4595 H         1 UNK         0.3000 
    145 H145        0.2617  -21.3923  -45.6785 H         1 UNK         0.0600 
    146 H146        1.9497  -19.7801  -44.8027 H         1 UNK         0.0600 
    147 H147        1.7353  -19.6245  -46.5381 H         1 UNK         0.0600 
    148 H148        1.0084  -18.4451  -45.4632 H         1 UNK         0.0600 
    149 H149       -0.0756  -19.7314  -43.4816 H         1 UNK         0.3000 
    150 H150       -2.8770  -21.4730  -42.0303 H         1 UNK         0.0600 
    151 H151       -0.7770  -22.7650  -41.7158 H         1 UNK         0.0600 
    152 H152       -1.0926  -21.7294  -40.3317 H         1 UNK         0.0600 
    153 H153        0.1376  -21.2761  -41.5085 H         1 UNK         0.0600 
    154 H154       -1.0993  -19.1060  -41.6507 H         1 UNK         0.3000 
    155 H155       -3.7688  -16.8515  -41.9350 H         1 UNK         0.0600 
    156 H156       -2.3829  -17.5789  -39.2999 H         1 UNK         0.0600 
    157 H157       -4.1156  -17.4135  -39.5448 H         1 UNK         0.0600 
    158 H158       -3.0766  -16.0039  -39.6884 H         1 UNK         0.0600 
    159 H159       -1.0758  -16.4359  -41.1439 H         1 UNK         0.3000 
    160 H160        0.4614  -16.6370  -44.3470 H         1 UNK         0.0600 
    161 H161       -0.7582  -14.4423  -44.4244 H         1 UNK         0.0600 
    162 H162        0.9452  -14.2733  -44.0459 H         1 UNK         0.0600 
    163 H163       -0.2595  -14.1272  -42.7636 H         1 UNK         0.0600 
    164 H164        1.6131  -15.6485  -42.0516 H         1 UNK         0.3000 
    165 H165        2.2286  -18.6150  -40.1767 H         1 UNK         0.0600 
    166 H166        4.5867  -17.8944  -40.4992 H         1 UNK         0.0600 
    167 H167        3.9750  -18.6464  -41.9671 H         1 UNK         0.0600 
    168 H168        4.1065  -16.8949  -41.8705 H         1 UNK         0.0600 
    169 H169        3.1372  -15.9641  -39.7634 H         1 UNK         0.3000 
    170 H170        0.3114  -14.6731  -38.0339 H         1 UNK         0.0600 
    171 H171        1.4627  -16.0328  -36.3365 H         1 UNK         0.0600 
    172 H172        3.0350  -15.6059  -36.9902 H         1 UNK         0.0600 
    173 H173        2.0191  -14.3687  -36.2509 H         1 UNK         0.0600 
    174 H174        1.3024  -13.0870  -39.1522 H         1 UNK         0.3000 
    175 H175        2.6002  -11.9646  -40.4934 H         1 UNK         0.0600 
    176 H176        3.5013  -11.0965  -38.3233 H         1 UNK         0.0600 
    177 H177        4.3415  -10.3823  -39.6903 H         1 UNK         0.0600 
    178 H178        5.1106  -11.6634  -38.7521 H         1 UNK         0.0600 
    179 H179        5.3540  -12.2080  -41.1478 H         1 UNK         0.3000 
    180 H180        5.9532  -12.7142  -43.2193 H         1 UNK         0.0600 
    181 H181        5.4987  -15.7363  -43.1957 H         1 UNK         0.0600 
    182 H182        6.4368  -14.8625  -41.9904 H         1 UNK         0.0600 
    183 H183        6.9641  -14.8884  -43.6670 H         1 UNK         0.0600 
    184 H184        4.2883  -14.5158  -44.9098 H         1 UNK         0.3000 
    185 H185        3.2741  -12.1845  -47.0711 H         1 UNK         0.0600 
    186 H186        5.4893  -11.4216  -47.8741 H         1 UNK         0.0600 
    187 H187        6.1005  -13.0717  -47.8571 H         1 UNK         0.0600 
    188 H188        4.8251  -12.6081  -48.9834 H         1 UNK         0.0600 
    189 H189        4.4979  -14.9086  -47.2378 H         1 UNK         0.3000 
    190 H190       -3.2274  -20.9843  -46.1462 H         1 UNK         0.3000 
    191 H191       -5.1879  -22.0684  -48.1287 H         1 UNK         0.0600 
    192 H192       -5.9142  -23.6453  -46.3359 H         1 UNK         0.0600 
    193 H193       -4.9099  -22.8002  -45.1618 H         1 UNK         0.0600 
    194 H194       -6.2776  -21.9800  -45.9089 H         1 UNK         0.0600 
    195 H195       -2.5842  -22.9289  -45.7770 H         1 UNK         0.3000 
    196 H196       -2.1797  -25.4947  -46.8289 H         1 UNK         0.0600 
    197 H197       -0.2551  -25.5438  -45.2458 H         1 UNK         0.0600 
    198 H198       -1.6762  -24.8352  -44.4942 H         1 UNK         0.0600 
    199 H199       -0.3593  -23.7996  -45.0409 H         1 UNK         0.0600 
    200 H200       -0.4106  -22.4802  -47.5882 H         1 UNK         0.3000 
    201 H201        1.5429  -23.9647  -49.2778 H         1 UNK         0.0600 
    202 H202        2.4414  -22.2429  -47.7042 H         1 UNK         0.0600 
    203 H203        1.4580  -21.0121  -48.4923 H         1 UNK         0.0600 
    204 H204        2.7334  -21.8198  -49.3857 H         1 UNK         0.0600 
    205 H205       -1.0928  -21.5733  -49.3765 H         1 UNK         0.3000 
    206 H206       -1.1347  -20.9291  -52.0918 H         1 UNK         0.0600 
    207 H207       -3.5072  -21.2583  -50.1826 H         1 UNK         0.0600 
    208 H208       -2.5046  -19.8147  -50.3246 H         1 UNK         0.0600 
    209 H209       -3.5083  -20.3242  -51.6730 H         1 UNK         0.0600 
    210 H210       -2.3517  -23.8469  -50.5061 H         1 UNK         0.3000 
    211 H211       -3.9218  -25.0852  -52.3532 H         1 UNK         0.0600 
    212 H212       -1.7962  -26.3174  -50.5340 H         1 UNK         0.0600 
    213 H213       -3.0881  -27.2220  -51.3148 H         1 UNK         0.0600 
    214 H214       -3.4810  -25.9992  -50.1220 H         1 UNK         0.0600 
    215 H215       -0.4387  -24.6490  -52.7081 H         1 UNK         0.3000 
    216 H216        0.0617  -26.5693  -54.7556 H         1 UNK         0.0600 
    217 H217        2.1102  -25.1908  -55.1298 H         1 UNK         0.0600 
    218 H218        1.8507  -25.4768  -53.4157 H         1 UNK         0.0600 
    219 H219        1.4498  -23.9105  -54.1188 H         1 UNK         0.0600 
    220 H220       -1.5937  -23.4810  -54.8565 H         1 UNK         0.3000 
    221 H221       -1.8544  -23.6467  -57.8274 H         1 UNK         0.0600 
    222 H222       -1.8956  -21.1696  -57.8447 H         1 UNK         0.0600 
    223 H223       -0.3801  -21.7216  -57.1520 H         1 UNK         0.0600 
    224 H224       -1.6609  -21.1194  -56.0998 H         1 UNK         0.0600 
    225 H225       -3.3733  -24.7531  -55.5001 H         1 UNK         0.3000 
    226 H226       -5.4036  -25.2258  -54.8406 H         1 UNK         0.0600 
    227 H227       -7.4600  -24.4891  -55.9355 H         1 UNK         0.0600 
    228 H228       -6.6226  -23.2190  -56.8081 H         1 UNK         0.0600 
    229 H229       -6.2866  -24.9119  -57.1730 H         1 UNK         0.0600 
    230 H230       -6.2840  -24.6652  -52.9322 H         1 UNK         0.3000 
    231 H231       -5.3620  -22.3559  -51.5976 H         1 UNK         0.0600 
    232 H232       -5.7408  -24.5080  -50.4625 H         1 UNK         0.0600 
    233 H233       -7.4741  -24.4216  -50.7894 H         1 UNK         0.0600 
    234 H234       -6.7176  -23.2693  -49.6966 H         1 UNK         0.0600 
    235 H235       -8.1732  -22.7003  -53.5343 H         1 UNK         0.3000 
    236 H236       -9.7265  -20.5122  -52.4008 H         1 UNK         0.0600 
    237 H237      -10.8071  -22.3539  -53.6758 H         1 UNK         0.0600 
    238 H238      -11.0701  -20.8172  -54.4832 H         1 UNK         0.0600 
    239 H239       -9.8710  -21.9406  -55.1127 H         1 UNK         0.0600 
    240 H240       -6.8697  -20.6965  -54.3557 H         1 UNK         0.3000 
    241 H241       -5.6144  -19.2966  -55.4375 H         1 UNK         0.0600 
    242 H242       -8.3419  -19.0342  -58.1618 H         1 UNK         0.3800 
    243 H243       -8.3310  -20.0877  -56.7711 H         1 UNK         0.3800 
    244 H244       -7.1736  -17.0279  -54.1066 H         1 UNK         0.0800 
    245 H245       -5.6864  -16.8253  -54.9792 H         1 UNK         0.0800 
    246 H246       -4.1118  -15.8941  -53.4232 H         1 UNK         0.0800 
    247 H247       -3.2645  -17.3156  -53.9887 H         1 UNK         0.0800 
@<TRIPOS>BOND
     1    1    2 1    
     2    1  127 1    
     3    1  128 1    
     4    1  129 1    
     5    2    3 2    
     6    2    4 am   BACKBONE|DICT|INTERRES
     7    4    5 1    
     8    4  130 1    
     9    5    6 1    
    10    5   65 1    
    11    5  131 1    
    12    6    7 1    
    13    6  132 1    
    14    6  133 1    
    15    7    8 1    
    16    8    9 1    
    17    8  134 1    
    18    8  135 1    
    19    9   10 ar   
    20    9   14 ar   
    21   10   11 ar   
    22   10  136 1    
    23   11   12 ar   
    24   11  126 1    
    25   12   13 ar   
    26   12  137 1    
    27   13   14 ar   
    28   13   15 1    
    29   14  138 1    
    30   15   16 1    
    31   15  139 1    
    32   15  140 1    
    33   16   17 1    
    34   17   18 1    
    35   17  141 1    
    36   17  142 1    
    37   18   19 1    
    38   18   67 1    
    39   18  143 1    
    40   19   20 am   BACKBONE|DICT|INTERRES
    41   19  144 1    
    42   20   21 2    
    43   20   22 1    
    44   22   23 1    
    45   22   24 1    
    46   22  145 1    
    47   23  146 1    
    48   23  147 1    
    49   23  148 1    
    50   24   25 am   BACKBONE|DICT|INTERRES
    51   24  149 1    
    52   25   26 2    
    53   25   27 1    
    54   27   28 1    
    55   27   29 1    
    56   27  150 1    
    57   28  151 1    
    58   28  152 1    
    59   28  153 1    
    60   29   30 am   BACKBONE|DICT|INTERRES
    61   29  154 1    
    62   30   31 2    
    63   30   32 1    
    64   32   33 1    
    65   32   34 1    
    66   32  155 1    
    67   33  156 1    
    68   33  157 1    
    69   33  158 1    
    70   34   35 am   BACKBONE|DICT|INTERRES
    71   34  159 1    
    72   35   36 2    
    73   35   37 1    
    74   37   38 1    
    75   37   39 1    
    76   37  160 1    
    77   38  161 1    
    78   38  162 1    
    79   38  163 1    
    80   39   40 am   BACKBONE|DICT|INTERRES
    81   39  164 1    
    82   40   41 2    
    83   40   42 1    
    84   42   43 1    
    85   42   44 1    
    86   42  165 1    
    87   43  166 1    
    88   43  167 1    
    89   43  168 1    
    90   44   45 am   BACKBONE|DICT|INTERRES
    91   44  169 1    
    92   45   46 2    
    93   45   47 1    
    94   47   48 1    
    95   47   49 1    
    96   47  170 1    
    97   48  171 1    
    98   48  172 1    
    99   48  173 1    
   100   49   50 am   BACKBONE|DICT|INTERRES
   101   49  174 1    
   102   50   51 2    
   103   50   52 1    
   104   52   53 1    
   105   52   54 1    
   106   52  175 1    
   107   53  176 1    
   108   53  177 1    
   109   53  178 1    
   110   54   55 am   BACKBONE|DICT|INTERRES
   111   54  179 1    
   112   55   56 2    
   113   55   57 1    
   114   57   58 1    
   115   57   59 1    
   116   57  180 1    
   117   58  181 1    
   118   58  182 1    
   119   58  183 1    
   120   59   60 am   BACKBONE|DICT|INTERRES
   121   59  184 1    
   122   60   61 2    
   123   60   62 1    
   124   62   63 1    
   125   62   64 1    
   126   62  185 1    
   127   63  186 1    
   128   63  187 1    
   129   63  188 1    
   130   64   65 am   BACKBONE|DICT|INTERRES
   131   64  189 1    
   132   65   66 2    
   133   67   68 2    
   134   67   69 am   BACKBONE|DICT|INTERRES
   135   69   70 1    
   136   69  190 1    
   137   70   71 1    
   138   70   72 1    
   139   70  191 1    
   140   71  192 1    
   141   71  193 1    
   142   71  194 1    
   143   72   73 2    
   144   72   74 am   BACKBONE|DICT|INTERRES
   145   74   75 1    
   146   74  195 1    
   147   75   76 1    
   148   75   77 1    
   149   75  196 1    
   150   76  197 1    
   151   76  198 1    
   152   76  199 1    
   153   77   78 2    
   154   77   79 am   BACKBONE|DICT|INTERRES
   155   79   80 1    
   156   79  200 1    
   157   80   81 1    
   158   80   82 1    
   159   80  201 1    
   160   81  202 1    
   161   81  203 1    
   162   81  204 1    
   163   82   83 2    
   164   82   84 am   BACKBONE|DICT|INTERRES
   165   84   85 1    
   166   84  205 1    
   167   85   86 1    
   168   85   87 1    
   169   85  206 1    
   170   86  207 1    
   171   86  208 1    
   172   86  209 1    
   173   87   88 2    
   174   87   89 am   BACKBONE|DICT|INTERRES
   175   89   90 1    
   176   89  210 1    
   177   90   91 1    
   178   90   92 1    
   179   90  211 1    
   180   91  212 1    
   181   91  213 1    
   182   91  214 1    
   183   92   93 2    
   184   92   94 am   BACKBONE|DICT|INTERRES
   185   94   95 1    
   186   94  215 1    
   187   95   96 1    
   188   95   97 1    
   189   95  216 1    
   190   96  217 1    
   191   96  218 1    
   192   96  219 1    
   193   97   98 2    
   194   97   99 am   BACKBONE|DICT|INTERRES
   195   99  100 1    
   196   99  220 1    
   197  100  101 1    
   198  100  102 1    
   199  100  221 1    
   200  101  222 1    
   201  101  223 1    
   202  101  224 1    
   203  102  103 2    
   204  102  104 am   BACKBONE|DICT|INTERRES
   205  104  105 1    
   206  104  225 1    
   207  105  106 1    
   208  105  107 1    
   209  105  226 1    
   210  106  227 1    
   211  106  228 1    
   212  106  229 1    
   213  107  108 2    
   214  107  109 am   BACKBONE|DICT|INTERRES
   215  109  110 1    
   216  109  230 1    
   217  110  111 1    
   218  110  112 1    
   219  110  231 1    
   220  111  232 1    
   221  111  233 1    
   222  111  234 1    
   223  112  113 2    
   224  112  114 am   BACKBONE|DICT|INTERRES
   225  114  115 1    
   226  114  235 1    
   227  115  116 1    
   228  115  117 1    
   229  115  236 1    
   230  116  237 1    
   231  116  238 1    
   232  116  239 1    
   233  117  118 2    
   234  117  119 am   BACKBONE|DICT|INTERRES
   235  119  120 1    
   236  119  240 1    
   237  120  121 1    
   238  120  124 1    
   239  120  241 1    
   240  121  122 am   BACKBONE|DICT|INTERRES
   241  121  123 2    
   242  122  242 1    
   243  122  243 1    
   244  124  125 1    
   245  124  244 1    
   246  124  245 1    
   247  125  126 1    
   248  126  246 1    
   249  126  247 1    
@<TRIPOS>SUBSTRUCTURE
     1 UNK         1 GROUP             0       ****    0 ROOT    
