@<TRIPOS>MOLECULE
3R540
247   249    1
SMALL
USER_CHARGES


@<TRIPOS>ATOM
      1 CA         -1.3680  -12.6348  -51.0115 C.3       0 UNK        -0.1800 
      2 C          -1.1719  -13.3347  -49.6746 C.2       0 UNK         0.5000 
      3 O          -0.1286  -13.1702  -49.0428 O.2       0 UNK        -0.5000 
      4 N          -2.1740  -14.1043  -49.2343 N.am      1 UNK        -0.5000 
      5 CA         -2.1866  -14.8965  -47.9969 C.3       1 UNK         0.1400 
      6 C6         -3.1754  -16.0822  -48.1090 C.3       23 UNK        -0.0398 
      7 S7         -2.6404  -17.2698  -49.3847 S.3       23 UNK        -0.2404 
      8 C8         -2.8244  -18.8492  -48.4996 C.3       23 UNK        -0.0205 
      9 C9         -4.2857  -19.1949  -48.2580 C.ar      23 UNK        -0.0193 
     10 C10        -5.1654  -19.2956  -49.3374 C.ar      23 UNK        -0.1150 
     11 C11        -6.5186  -19.5708  -49.1366 C.ar      23 UNK        -0.0193 
     12 C12        -6.9805  -19.8080  -47.8394 C.ar      23 UNK        -0.1150 
     13 C13        -6.1055  -19.7422  -46.7503 C.ar      23 UNK        -0.0193 
     14 C14        -4.7625  -19.4128  -46.9636 C.ar      23 UNK        -0.1150 
     15 C15        -6.6199  -20.0207  -45.3467 C.3       23 UNK        -0.0205 
     16 S16        -6.4020  -21.7714  -44.8874 S.3       23 UNK        -0.2404 
     17 C17        -4.6247  -21.8233  -44.4809 C.3       23 UNK        -0.0398 
     18 CA         -3.7770  -22.6072  -45.5184 C.3       11 UNK         0.1400 
     19 N          -2.4258  -22.0398  -45.6460 N.am      11 UNK        -0.5000 
     20 C          -1.4248  -22.5203  -46.4029 C.2       10 UNK         0.5000 
     21 O          -1.5487  -23.4863  -47.1562 O.2       10 UNK        -0.5000 
     22 CA         -0.0405  -21.8498  -46.2861 C.3       10 UNK         0.1400 
     23 CB          0.3019  -21.0831  -47.5716 C.3       10 UNK        -0.1800 
     24 N           0.0967  -20.9526  -45.1369 N.am      10 UNK        -0.5000 
     25 C           0.0520  -21.3323  -43.8498 C.2       9 UNK         0.5000 
     26 O          -0.0750  -22.5048  -43.4938 O.2       9 UNK        -0.5000 
     27 CA          0.1062  -20.2228  -42.7801 C.3       9 UNK         0.1400 
     28 CB          1.4806  -20.2046  -42.0951 C.3       9 UNK        -0.1800 
     29 N          -0.2076  -18.8853  -43.2973 N.am      9 UNK        -0.5000 
     30 C          -1.4146  -18.5152  -43.7564 C.2       8 UNK         0.5000 
     31 O          -2.3793  -19.2781  -43.7931 O.2       8 UNK        -0.5000 
     32 CA         -1.5837  -17.0793  -44.2947 C.3       8 UNK         0.1400 
     33 CB         -2.2131  -16.1839  -43.2172 C.3       8 UNK        -0.1800 
     34 N          -0.3484  -16.4542  -44.7673 N.am      8 UNK        -0.5000 
     35 C           0.4580  -16.9227  -45.7286 C.2       7 UNK         0.5000 
     36 O           0.2083  -17.9239  -46.3994 O.2       7 UNK        -0.5000 
     37 CA          1.8011  -16.1877  -45.9170 C.3       7 UNK         0.1400 
     38 CB          1.6916  -15.0982  -46.9915 C.3       7 UNK        -0.1800 
     39 N           2.3277  -15.5981  -44.6798 N.am      7 UNK        -0.5000 
     40 C           2.6519  -16.2968  -43.5808 C.2       6 UNK         0.5000 
     41 O           2.4998  -17.5153  -43.4945 O.2       6 UNK        -0.5000 
     42 CA          3.2124  -15.5122  -42.3750 C.3       6 UNK         0.1400 
     43 CB          4.0211  -16.4012  -41.4075 C.3       6 UNK        -0.1800 
     44 N           3.9833  -14.3230  -42.7478 N.am      6 UNK        -0.5000 
     45 C           5.0815  -14.2620  -43.5195 C.2       5 UNK         0.5000 
     46 O           5.6339  -15.2538  -43.9980 O.2       5 UNK        -0.5000 
     47 CA          5.6726  -12.8590  -43.7974 C.3       5 UNK         0.1400 
     48 CB          6.1882  -12.7190  -45.2453 C.3       5 UNK        -0.1800 
     49 N           4.7741  -11.7474  -43.4525 N.am      5 UNK        -0.5000 
     50 C           3.5786  -11.4754  -43.9935 C.2       4 UNK         0.5000 
     51 O           3.0744  -12.1095  -44.9229 O.2       4 UNK        -0.5000 
     52 CA          2.7835  -10.3352  -43.3324 C.3       4 UNK         0.1400 
     53 CB          2.6179   -9.1512  -44.2973 C.3       4 UNK        -0.1800 
     54 N           1.4630  -10.7965  -42.9070 N.am      4 UNK        -0.5000 
     55 C           1.2228  -11.7837  -42.0300 C.2       3 UNK         0.5000 
     56 O           2.1041  -12.3563  -41.3871 O.2       3 UNK        -0.5000 
     57 CA         -0.2470  -12.2259  -41.8698 C.3       3 UNK         0.1400 
     58 CB         -0.8992  -11.5149  -40.6751 C.3       3 UNK        -0.1800 
     59 N          -1.0416  -11.9733  -43.0759 N.am      3 UNK        -0.5000 
     60 C          -0.8771  -12.6361  -44.2277 C.2       2 UNK         0.5000 
     61 O          -0.1337  -13.6132  -44.3457 O.2       2 UNK        -0.5000 
     62 CA         -1.6258  -12.0657  -45.4455 C.3       2 UNK         0.1400 
     63 CB         -0.9681  -10.7541  -45.9067 C.3       2 UNK        -0.1800 
     64 N          -1.6099  -12.9948  -46.5701 N.am      2 UNK        -0.5000 
     65 C          -2.4563  -14.0110  -46.7584 C.2       1 UNK         0.5000 
     66 O          -3.4162  -14.2403  -46.0210 O.2       1 UNK        -0.5000 
     67 C          -3.7587  -24.1121  -45.1668 C.2       11 UNK         0.5000 
     68 O          -4.5004  -24.8944  -45.7621 O.2       11 UNK        -0.5000 
     69 N          -2.8574  -24.4923  -44.2481 N.am      12 UNK        -0.5000 
     70 CA         -2.6387  -25.8679  -43.7932 C.3       12 UNK         0.1400 
     71 CB         -1.7366  -25.8346  -42.5501 C.3       12 UNK        -0.1800 
     72 C          -2.0365  -26.7944  -44.8696 C.2       12 UNK         0.5000 
     73 O          -2.1507  -28.0142  -44.7481 O.2       12 UNK        -0.5000 
     74 N          -1.4237  -26.2043  -45.9029 N.am      13 UNK        -0.5000 
     75 CA         -0.8433  -26.8856  -47.0578 C.3       13 UNK         0.1400 
     76 CB          0.5595  -26.3029  -47.3086 C.3       13 UNK        -0.1800 
     77 C          -1.7454  -26.7550  -48.3021 C.2       13 UNK         0.5000 
     78 O          -1.2549  -26.9249  -49.4186 O.2       13 UNK        -0.5000 
     79 N          -3.0329  -26.4257  -48.1047 N.am      14 UNK        -0.5000 
     80 CA         -4.0532  -26.1951  -49.1350 C.3       14 UNK         0.1400 
     81 CB         -4.3760  -27.5000  -49.8931 C.3       14 UNK        -0.1800 
     82 C          -3.6717  -25.0306  -50.0705 C.2       14 UNK         0.5000 
     83 O          -3.6934  -25.1756  -51.2942 O.2       14 UNK        -0.5000 
     84 N          -3.2702  -23.9094  -49.4552 N.am      15 UNK        -0.5000 
     85 CA         -2.7341  -22.6993  -50.0843 C.3       15 UNK         0.1400 
     86 CB         -3.8016  -22.0091  -50.9524 C.3       15 UNK        -0.1800 
     87 C          -1.4208  -22.9818  -50.8392 C.2       15 UNK         0.5000 
     88 O          -1.2296  -22.4936  -51.9534 O.2       15 UNK        -0.5000 
     89 N          -0.5588  -23.8016  -50.2176 N.am      16 UNK        -0.5000 
     90 CA          0.6923  -24.3444  -50.7600 C.3       16 UNK         0.1400 
     91 CB          1.7464  -23.2270  -50.9113 C.3       16 UNK        -0.1800 
     92 C           0.4550  -25.1334  -52.0652 C.2       16 UNK         0.5000 
     93 O           1.1034  -24.8682  -53.0767 O.2       16 UNK        -0.5000 
     94 N          -0.5219  -26.0517  -52.0288 N.am      17 UNK        -0.5000 
     95 CA         -1.0682  -26.8035  -53.1655 C.3       17 UNK         0.1400 
     96 CB         -0.0491  -27.8473  -53.6666 C.3       17 UNK        -0.1800 
     97 C          -1.5853  -25.8699  -54.2835 C.2       17 UNK         0.5000 
     98 O          -1.2634  -26.0589  -55.4577 O.2       17 UNK        -0.5000 
     99 N          -2.3465  -24.8486  -53.8675 N.am      18 UNK        -0.5000 
    100 CA        -2.9168  -23.7475  -54.6508 C.3       18 UNK         0.1400 
    101 CB        -3.8825  -24.2781  -55.7299 C.3       18 UNK        -0.1800 
    102 C         -1.8984  -22.7418  -55.2340 C.2       18 UNK         0.5000 
    103 O         -2.3234  -21.7960  -55.9000 O.2       18 UNK        -0.5000 
    104 N         -0.5927  -22.9083  -54.9714 N.am      19 UNK        -0.5000 
    105 CA         0.4687  -22.0355  -55.4849 C.3       19 UNK         0.1400 
    106 CB         1.8384  -22.6921  -55.2627 C.3       19 UNK        -0.1800 
    107 C          0.4536  -20.6169  -54.8842 C.2       19 UNK         0.5000 
    108 O          0.9113  -19.6828  -55.5439 O.2       19 UNK        -0.5000 
    109 N         -0.0829  -20.4676  -53.6649 N.am      20 UNK        -0.5000 
    110 CA        -0.2586  -19.1773  -52.9935 C.3       20 UNK         0.1400 
    111 CB        -0.2759  -19.4033  -51.4729 C.3       20 UNK        -0.1800 
    112 C         -1.5296  -18.4292  -53.4507 C.2       20 UNK         0.5000 
    113 O         -1.7292  -17.2865  -53.0361 O.2       20 UNK        -0.5000 
    114 N         -2.3630  -19.0751  -54.2836 N.am      21 UNK        -0.5000 
    115 CA        -3.6782  -18.6281  -54.7473 C.3       21 UNK         0.1400 
    116 CB        -3.5588  -17.3811  -55.6530 C.3       21 UNK        -0.1800 
    117 C         -4.6442  -18.4730  -53.5558 C.2       21 UNK         0.5000 
    118 O         -4.8977  -19.4636  -52.8720 O.2       21 UNK        -0.5000 
    119 N         -5.1611  -17.2627  -53.3222 N.am      22 UNK        -0.5000 
    120 CA        -6.0055  -16.9069  -52.1724 C.3       22 UNK         0.1400 
    121 C         -5.9610  -15.3809  -51.8702 C.2       22 UNK         0.5000 
    122 N         -4.8538  -14.6988  -52.1458 N.am      22 UNK        -0.7600 
    123 O         -6.9290  -14.7952  -51.3940 O.2       22 UNK        -0.5000 
    124 C124       -7.4344  -17.5198  -52.2680 C.3       23 UNK        -0.0398 
    125 S125       -8.1612  -17.9391  -50.6436 S.3       23 UNK        -0.2404 
    126 C126       -7.4795  -19.6000  -50.3155 C.3       23 UNK        -0.0205 
    127 H127       -2.3388  -12.8637  -51.4511 H         1 UNK         0.0600 
    128 H128       -0.5950  -12.9467  -51.7138 H         1 UNK         0.0600 
    129 H129       -1.2983  -11.5546  -50.8831 H         1 UNK         0.0600 
    130 H130       -3.0075  -14.1861  -49.7981 H         1 UNK         0.3000 
    131 H131       -1.1908  -15.3196  -47.8520 H         1 UNK         0.0600 
    132 H132       -4.1803  -15.7332  -48.3523 H         1 UNK         0.0800 
    133 H133       -3.2598  -16.6058  -47.1568 H         1 UNK         0.0800 
    134 H134       -2.3698  -19.6389  -49.0957 H         1 UNK         0.0800 
    135 H135       -2.2681  -18.8049  -47.5620 H         1 UNK         0.0800 
    136 H136       -4.7897  -19.1430  -50.3370 H         1 UNK         0.1150 
    137 H137       -8.0239  -20.0393  -47.6769 H         1 UNK         0.1150 
    138 H138       -4.0858  -19.3342  -46.1253 H         1 UNK         0.1150 
    139 H139       -6.1241  -19.3732  -44.6216 H         1 UNK         0.0800 
    140 H140       -7.6816  -19.7759  -45.2879 H         1 UNK         0.0800 
    141 H141       -4.5075  -22.2246  -43.4722 H         1 UNK         0.0800 
    142 H142       -4.2761  -20.7970  -44.4034 H         1 UNK         0.0800 
    143 H143       -4.2376  -22.5038  -46.5033 H         1 UNK         0.0600 
    144 H144       -2.2270  -21.2380  -45.0618 H         1 UNK         0.3000 
    145 H145        0.6891  -22.6535  -46.1687 H         1 UNK         0.0600 
    146 H146       -0.3744  -20.2456  -47.7341 H         1 UNK         0.0600 
    147 H147        1.3168  -20.6869  -47.5354 H         1 UNK         0.0600 
    148 H148        0.2393  -21.7292  -48.4466 H         1 UNK         0.0600 
    149 H149        0.1928  -19.9662  -45.3464 H         1 UNK         0.3000 
    150 H150       -0.6425  -20.4670  -42.0237 H         1 UNK         0.0600 
    151 H151        1.6760  -21.1519  -41.5911 H         1 UNK         0.0600 
    152 H152        1.5408  -19.4175  -41.3433 H         1 UNK         0.0600 
    153 H153        2.2856  -20.0478  -42.8136 H         1 UNK         0.0600 
    154 H154        0.5659  -18.2303  -43.3438 H         1 UNK         0.3000 
    155 H155       -2.2703  -17.1336  -45.1398 H         1 UNK         0.0600 
    156 H156       -3.1400  -16.6167  -42.8386 H         1 UNK         0.0600 
    157 H157       -2.4582  -15.1996  -43.6146 H         1 UNK         0.0600 
    158 H158       -1.5423  -16.0447  -42.3685 H         1 UNK         0.0600 
    159 H159       -0.0942  -15.5690  -44.3378 H         1 UNK         0.3000 
    160 H160        2.5263  -16.9280  -46.2603 H         1 UNK         0.0600 
    161 H161        1.0151  -14.2997  -46.6876 H         1 UNK         0.0600 
    162 H162        1.3186  -15.5082  -47.9310 H         1 UNK         0.0600 
    163 H163        2.6630  -14.6480  -47.1966 H         1 UNK         0.0600 
    164 H164        2.4413  -14.5924  -44.6701 H         1 UNK         0.3000 
    165 H165        2.3406  -15.1467  -41.8308 H         1 UNK         0.0600 
    166 H166        4.8819  -16.8550  -41.8994 H         1 UNK         0.0600 
    167 H167        4.3848  -15.8271  -40.5554 H         1 UNK         0.0600 
    168 H168        3.4068  -17.2110  -41.0118 H         1 UNK         0.0600 
    169 H169        3.6017  -13.4505  -42.3995 H         1 UNK         0.3000 
    170 H170        6.5333  -12.7644  -43.1339 H         1 UNK         0.0600 
    171 H171        5.3982  -12.8918  -45.9767 H         1 UNK         0.0600 
    172 H172        6.6001  -11.7258  -45.4237 H         1 UNK         0.0600 
    173 H173        6.9820  -13.4383  -45.4498 H         1 UNK         0.0600 
    174 H174        5.0818  -11.1793  -42.6748 H         1 UNK         0.3000 
    175 H175        3.3180   -9.9866  -42.4463 H         1 UNK         0.0600 
    176 H176        2.0644   -9.4355  -45.1933 H         1 UNK         0.0600 
    177 H177        2.0878   -8.3253  -43.8227 H         1 UNK         0.0600 
    178 H178        3.5890   -8.7721  -44.6184 H         1 UNK         0.0600 
    179 H179        0.6764  -10.4073  -43.4025 H         1 UNK         0.3000 
    180 H180       -0.2500  -13.3003  -41.6725 H         1 UNK         0.0600 
    181 H181       -0.3418  -11.7048  -39.7568 H         1 UNK         0.0600 
    182 H182       -1.9179  -11.8682  -40.5143 H         1 UNK         0.0600 
    183 H183       -0.9361  -10.4344  -40.8193 H         1 UNK         0.0600 
    184 H184       -1.6813  -11.1926  -43.0404 H         1 UNK         0.3000 
    185 H185       -2.6595  -11.8633  -45.1575 H         1 UNK         0.0600 
    186 H186       -1.4747  -10.3465  -46.7819 H         1 UNK         0.0600 
    187 H187       -1.0096   -9.9913  -45.1286 H         1 UNK         0.0600 
    188 H188        0.0811  -10.9024  -46.1680 H         1 UNK         0.0600 
    189 H189       -0.8493  -12.8922  -47.2350 H         1 UNK         0.3000 
    190 H190       -2.2489  -23.7900  -43.8482 H         1 UNK         0.3000 
    191 H191       -3.6053  -26.2869  -43.5059 H         1 UNK         0.0600 
    192 H192       -0.7617  -25.3989  -42.7737 H         1 UNK         0.0600 
    193 H193       -2.1894  -25.2497  -41.7493 H         1 UNK         0.0600 
    194 H194       -1.5668  -26.8393  -42.1608 H         1 UNK         0.0600 
    195 H195       -1.4240  -25.1927  -45.9532 H         1 UNK         0.3000 
    196 H196       -0.7341  -27.9527  -46.8556 H         1 UNK         0.0600 
    197 H197        1.1908  -26.4094  -46.4264 H         1 UNK         0.0600 
    198 H198        0.5183  -25.2433  -47.5616 H         1 UNK         0.0600 
    199 H199        1.0624  -26.8203  -48.1265 H         1 UNK         0.0600 
    200 H200       -3.3380  -26.2627  -47.1532 H         1 UNK         0.3000 
    201 H201       -4.9584  -25.8849  -48.6107 H         1 UNK         0.0600 
    202 H202       -5.2109  -27.3541  -50.5794 H         1 UNK         0.0600 
    203 H203       -4.6578  -28.2961  -49.2041 H         1 UNK         0.0600 
    204 H204       -3.5287  -27.8512  -50.4828 H         1 UNK         0.0600 
    205 H205       -3.1884  -23.9320  -48.4462 H         1 UNK         0.3000 
    206 H206       -2.4807  -22.0159  -49.2744 H         1 UNK         0.0600 
    207 H207       -4.7130  -21.8296  -50.3838 H         1 UNK         0.0600 
    208 H208       -4.0728  -22.6036  -51.8224 H         1 UNK         0.0600 
    209 H209       -3.4424  -21.0455  -51.3134 H         1 UNK         0.0600 
    210 H210       -0.8296  -24.1459  -49.3059 H         1 UNK         0.3000 
    211 H211        1.0702  -25.0617  -50.0311 H         1 UNK         0.0600 
    212 H212        1.9211  -22.7184  -49.9637 H         1 UNK         0.0600 
    213 H213        2.7026  -23.6356  -51.2397 H         1 UNK         0.0600 
    214 H214        1.4444  -22.4774  -51.6433 H         1 UNK         0.0600 
    215 H215       -0.9659  -26.2341  -51.1311 H         1 UNK         0.3000 
    216 H216       -1.9380  -27.3427  -52.7872 H         1 UNK         0.0600 
    217 H217       -0.4875  -28.4807  -54.4385 H         1 UNK         0.0600 
    218 H218        0.8374  -27.3773  -54.0936 H         1 UNK         0.0600 
    219 H219        0.2750  -28.5003  -52.8564 H         1 UNK         0.0600 
    220 H220       -2.5743  -24.8194  -52.8772 H         1 UNK         0.3000 
    221 H221       -3.5142  -23.1717  -53.9453 H         1 UNK         0.0600 
    222 H222       -3.3552  -24.8091  -56.5226 H         1 UNK         0.0600 
    223 H223       -4.6187  -24.9576  -55.3005 H         1 UNK         0.0600 
    224 H224       -4.4327  -23.4612  -56.1983 H         1 UNK         0.0600 
    225 H225       -0.3034  -23.6751  -54.3764 H         1 UNK         0.3000 
    226 H226        0.3182  -21.9359  -56.5618 H         1 UNK         0.0600 
    227 H227        1.8618  -23.7087  -55.6559 H         1 UNK         0.0600 
    228 H228        2.6248  -22.1290  -55.7666 H         1 UNK         0.0600 
    229 H229        2.0968  -22.7321  -54.2042 H         1 UNK         0.0600 
    230 H230       -0.4492  -21.2841  -53.1785 H         1 UNK         0.3000 
    231 H231        0.5968  -18.5393  -53.2248 H         1 UNK         0.0600 
    232 H232       -0.2491  -18.4532  -50.9386 H         1 UNK         0.0600 
    233 H233        0.5851  -19.9854  -51.1439 H         1 UNK         0.0600 
    234 H234       -1.1778  -19.9269  -51.1589 H         1 UNK         0.0600 
    235 H235       -2.1095  -20.0133  -54.5661 H         1 UNK         0.3000 
    236 H236       -4.0775  -19.4392  -55.3580 H         1 UNK         0.0600 
    237 H237       -2.8944  -17.5782  -56.4945 H         1 UNK         0.0600 
    238 H238       -4.5281  -17.1060  -56.0706 H         1 UNK         0.0600 
    239 H239       -3.1661  -16.5134  -55.1228 H         1 UNK         0.0600 
    240 H240       -4.9192  -16.4985  -53.9366 H         1 UNK         0.3000 
    241 H241       -5.5180  -17.3383  -51.3008 H         1 UNK         0.0600 
    242 H242       -4.0238  -15.1612  -52.4837 H         1 UNK         0.3800 
    243 H243       -4.8435  -13.7047  -51.9818 H         1 UNK         0.3800 
    244 H244       -8.1092  -16.8393  -52.7895 H         1 UNK         0.0800 
    245 H245       -7.4334  -18.4284  -52.8703 H         1 UNK         0.0800 
    246 H246       -6.9748  -19.9963  -51.1974 H         1 UNK         0.0800 
    247 H247       -8.3032  -20.2842  -50.1068 H         1 UNK         0.0800 
@<TRIPOS>BOND
     1    1    2 1    
     2    1  127 1    
     3    1  128 1    
     4    1  129 1    
     5    2    3 2    
     6    2    4 am   BACKBONE|DICT|INTERRES
     7    4    5 1    
     8    4  130 1    
     9    5    6 1    
    10    5   65 1    
    11    5  131 1    
    12    6    7 1    
    13    6  132 1    
    14    6  133 1    
    15    7    8 1    
    16    8    9 1    
    17    8  134 1    
    18    8  135 1    
    19    9   10 ar   
    20    9   14 ar   
    21   10   11 ar   
    22   10  136 1    
    23   11   12 ar   
    24   11  126 1    
    25   12   13 ar   
    26   12  137 1    
    27   13   14 ar   
    28   13   15 1    
    29   14  138 1    
    30   15   16 1    
    31   15  139 1    
    32   15  140 1    
    33   16   17 1    
    34   17   18 1    
    35   17  141 1    
    36   17  142 1    
    37   18   19 1    
    38   18   67 1    
    39   18  143 1    
    40   19   20 am   BACKBONE|DICT|INTERRES
    41   19  144 1    
    42   20   21 2    
    43   20   22 1    
    44   22   23 1    
    45   22   24 1    
    46   22  145 1    
    47   23  146 1    
    48   23  147 1    
    49   23  148 1    
    50   24   25 am   BACKBONE|DICT|INTERRES
    51   24  149 1    
    52   25   26 2    
    53   25   27 1    
    54   27   28 1    
    55   27   29 1    
    56   27  150 1    
    57   28  151 1    
    58   28  152 1    
    59   28  153 1    
    60   29   30 am   BACKBONE|DICT|INTERRES
    61   29  154 1    
    62   30   31 2    
    63   30   32 1    
    64   32   33 1    
    65   32   34 1    
    66   32  155 1    
    67   33  156 1    
    68   33  157 1    
    69   33  158 1    
    70   34   35 am   BACKBONE|DICT|INTERRES
    71   34  159 1    
    72   35   36 2    
    73   35   37 1    
    74   37   38 1    
    75   37   39 1    
    76   37  160 1    
    77   38  161 1    
    78   38  162 1    
    79   38  163 1    
    80   39   40 am   BACKBONE|DICT|INTERRES
    81   39  164 1    
    82   40   41 2    
    83   40   42 1    
    84   42   43 1    
    85   42   44 1    
    86   42  165 1    
    87   43  166 1    
    88   43  167 1    
    89   43  168 1    
    90   44   45 am   BACKBONE|DICT|INTERRES
    91   44  169 1    
    92   45   46 2    
    93   45   47 1    
    94   47   48 1    
    95   47   49 1    
    96   47  170 1    
    97   48  171 1    
    98   48  172 1    
    99   48  173 1    
   100   49   50 am   BACKBONE|DICT|INTERRES
   101   49  174 1    
   102   50   51 2    
   103   50   52 1    
   104   52   53 1    
   105   52   54 1    
   106   52  175 1    
   107   53  176 1    
   108   53  177 1    
   109   53  178 1    
   110   54   55 am   BACKBONE|DICT|INTERRES
   111   54  179 1    
   112   55   56 2    
   113   55   57 1    
   114   57   58 1    
   115   57   59 1    
   116   57  180 1    
   117   58  181 1    
   118   58  182 1    
   119   58  183 1    
   120   59   60 am   BACKBONE|DICT|INTERRES
   121   59  184 1    
   122   60   61 2    
   123   60   62 1    
   124   62   63 1    
   125   62   64 1    
   126   62  185 1    
   127   63  186 1    
   128   63  187 1    
   129   63  188 1    
   130   64   65 am   BACKBONE|DICT|INTERRES
   131   64  189 1    
   132   65   66 2    
   133   67   68 2    
   134   67   69 am   BACKBONE|DICT|INTERRES
   135   69   70 1    
   136   69  190 1    
   137   70   71 1    
   138   70   72 1    
   139   70  191 1    
   140   71  192 1    
   141   71  193 1    
   142   71  194 1    
   143   72   73 2    
   144   72   74 am   BACKBONE|DICT|INTERRES
   145   74   75 1    
   146   74  195 1    
   147   75   76 1    
   148   75   77 1    
   149   75  196 1    
   150   76  197 1    
   151   76  198 1    
   152   76  199 1    
   153   77   78 2    
   154   77   79 am   BACKBONE|DICT|INTERRES
   155   79   80 1    
   156   79  200 1    
   157   80   81 1    
   158   80   82 1    
   159   80  201 1    
   160   81  202 1    
   161   81  203 1    
   162   81  204 1    
   163   82   83 2    
   164   82   84 am   BACKBONE|DICT|INTERRES
   165   84   85 1    
   166   84  205 1    
   167   85   86 1    
   168   85   87 1    
   169   85  206 1    
   170   86  207 1    
   171   86  208 1    
   172   86  209 1    
   173   87   88 2    
   174   87   89 am   BACKBONE|DICT|INTERRES
   175   89   90 1    
   176   89  210 1    
   177   90   91 1    
   178   90   92 1    
   179   90  211 1    
   180   91  212 1    
   181   91  213 1    
   182   91  214 1    
   183   92   93 2    
   184   92   94 am   BACKBONE|DICT|INTERRES
   185   94   95 1    
   186   94  215 1    
   187   95   96 1    
   188   95   97 1    
   189   95  216 1    
   190   96  217 1    
   191   96  218 1    
   192   96  219 1    
   193   97   98 2    
   194   97   99 am   BACKBONE|DICT|INTERRES
   195   99  100 1    
   196   99  220 1    
   197  100  101 1    
   198  100  102 1    
   199  100  221 1    
   200  101  222 1    
   201  101  223 1    
   202  101  224 1    
   203  102  103 2    
   204  102  104 am   BACKBONE|DICT|INTERRES
   205  104  105 1    
   206  104  225 1    
   207  105  106 1    
   208  105  107 1    
   209  105  226 1    
   210  106  227 1    
   211  106  228 1    
   212  106  229 1    
   213  107  108 2    
   214  107  109 am   BACKBONE|DICT|INTERRES
   215  109  110 1    
   216  109  230 1    
   217  110  111 1    
   218  110  112 1    
   219  110  231 1    
   220  111  232 1    
   221  111  233 1    
   222  111  234 1    
   223  112  113 2    
   224  112  114 am   BACKBONE|DICT|INTERRES
   225  114  115 1    
   226  114  235 1    
   227  115  116 1    
   228  115  117 1    
   229  115  236 1    
   230  116  237 1    
   231  116  238 1    
   232  116  239 1    
   233  117  118 2    
   234  117  119 am   BACKBONE|DICT|INTERRES
   235  119  120 1    
   236  119  240 1    
   237  120  121 1    
   238  120  124 1    
   239  120  241 1    
   240  121  122 am   BACKBONE|DICT|INTERRES
   241  121  123 2    
   242  122  242 1    
   243  122  243 1    
   244  124  125 1    
   245  124  244 1    
   246  124  245 1    
   247  125  126 1    
   248  126  246 1    
   249  126  247 1    
@<TRIPOS>SUBSTRUCTURE
     1 UNK         1 GROUP             0       ****    0 ROOT    
