@<TRIPOS>MOLECULE
3R540
247   249    1
SMALL
USER_CHARGES


@<TRIPOS>ATOM
      1 CA          1.0624   -9.8117  -49.5684 C.3       0 UNK        -0.1800 
      2 C           1.2753  -11.0840  -50.3843 C.2       0 UNK         0.5000 
      3 O           0.9083  -11.1170  -51.5565 O.2       0 UNK        -0.5000 
      4 N           1.8663  -12.1480  -49.8243 N.am      1 UNK        -0.5000 
      5 CA          2.3040  -12.3043  -48.4311 C.3       1 UNK         0.1400 
      6 C6          3.3750  -13.4180  -48.2673 C.3       23 UNK        -0.0398 
      7 S7          3.0533  -14.9392  -49.2322 S.3       23 UNK        -0.2404 
      8 C8          2.3402  -16.0497  -47.9819 C.3       23 UNK        -0.0205 
      9 C9          1.7991  -17.3129  -48.6343 C.ar      23 UNK        -0.0193 
     10 C10         0.6428  -17.2523  -49.4144 C.ar      23 UNK        -0.1150 
     11 C11         0.1547  -18.3929  -50.0552 C.ar      23 UNK        -0.0193 
     12 C12         0.8188  -19.6111  -49.8867 C.ar      23 UNK        -0.1150 
     13 C13         1.9642  -19.6982  -49.0822 C.ar      23 UNK        -0.0193 
     14 C14         2.4505  -18.5382  -48.4691 C.ar      23 UNK        -0.1150 
     15 C15         2.7348  -21.0039  -48.8731 C.3       23 UNK        -0.0205 
     16 S16         1.8369  -22.5452  -49.2656 S.3       23 UNK        -0.2404 
     17 C17         0.4451  -22.4949  -48.0896 C.3       23 UNK        -0.0398 
     18 CA          0.0890  -23.9091  -47.5769 C.3       11 UNK         0.1400 
     19 N           1.0918  -24.4501  -46.6549 N.am      11 UNK        -0.5000 
     20 C           1.1901  -25.7447  -46.3222 C.2       10 UNK         0.5000 
     21 O           0.4495  -26.6217  -46.7648 O.2       10 UNK        -0.5000 
     22 CA          2.2632  -26.1111  -45.2813 C.3       10 UNK         0.1400 
     23 CB          3.6558  -26.1550  -45.9280 C.3       10 UNK        -0.1800 
     24 N           2.2807  -25.1854  -44.1484 N.am      10 UNK        -0.5000 
     25 C           1.2706  -25.0296  -43.2806 C.2       9 UNK         0.5000 
     26 O           0.2338  -25.6903  -43.3142 O.2       9 UNK        -0.5000 
     27 CA          1.4192  -23.9131  -42.2302 C.3       9 UNK         0.1400 
     28 CB          2.0953  -24.4551  -40.9623 C.3       9 UNK        -0.1800 
     29 N           2.1562  -22.7397  -42.7093 N.am      9 UNK        -0.5000 
     30 C           1.8094  -21.9888  -43.7631 C.2       8 UNK         0.5000 
     31 O           0.8499  -22.2366  -44.4992 O.2       8 UNK        -0.5000 
     32 CA          2.7354  -20.8009  -44.0792 C.3       8 UNK         0.1400 
     33 CB          3.9477  -21.2812  -44.8924 C.3       8 UNK        -0.1800 
     34 N           2.0397  -19.7544  -44.8285 N.am      8 UNK        -0.5000 
     35 C           1.0911  -18.9636  -44.3123 C.2       7 UNK         0.5000 
     36 O           0.7408  -18.9930  -43.1291 O.2       7 UNK        -0.5000 
     37 CA          0.4140  -17.9914  -45.2948 C.3       7 UNK         0.1400 
     38 CB         -0.6551  -18.7129  -46.1264 C.3       7 UNK        -0.1800 
     39 N          -0.2053  -16.8698  -44.5917 N.am      7 UNK        -0.5000 
     40 C           0.4730  -15.8126  -44.1347 C.2       6 UNK         0.5000 
     41 O           1.6649  -15.6008  -44.3791 O.2       6 UNK        -0.5000 
     42 CA         -0.3123  -14.8328  -43.2518 C.3       6 UNK         0.1400 
     43 CB         -0.5302  -15.4166  -41.8425 C.3       6 UNK        -0.1800 
     44 N           0.4421  -13.5890  -43.1698 N.am      6 UNK        -0.5000 
     45 C          -0.0261  -12.4017  -42.7760 C.2       5 UNK         0.5000 
     46 O          -1.1878  -12.2087  -42.4154 O.2       5 UNK        -0.5000 
     47 CA          0.9597  -11.2242  -42.7892 C.3       5 UNK         0.1400 
     48 CB          2.4441  -11.6428  -42.7592 C.3       5 UNK        -0.1800 
     49 N           0.7120  -10.4457  -43.9940 N.am      5 UNK        -0.5000 
     50 C           0.5044   -9.1257  -44.0398 C.2       4 UNK         0.5000 
     51 O           0.4980   -8.3921  -43.0503 O.2       4 UNK        -0.5000 
     52 CA          0.2631   -8.5219  -45.4316 C.3       4 UNK         0.1400 
     53 CB          1.5944   -8.3365  -46.1778 C.3       4 UNK        -0.1800 
     54 N          -0.6239   -9.3621  -46.2357 N.am      4 UNK        -0.5000 
     55 C          -1.9514   -9.2030  -46.3253 C.2       3 UNK         0.5000 
     56 O          -2.5782   -8.3363  -45.7149 O.2       3 UNK        -0.5000 
     57 CA         -2.7114  -10.1511  -47.2754 C.3       3 UNK         0.1400 
     58 CB         -2.9823   -9.4552  -48.6187 C.3       3 UNK        -0.1800 
     59 N          -1.9973  -11.4032  -47.5308 N.am      3 UNK        -0.5000 
     60 C          -1.9543  -12.4357  -46.6792 C.2       2 UNK         0.5000 
     61 O          -2.5579  -12.4661  -45.6079 O.2       2 UNK        -0.5000 
     62 CA         -1.0645  -13.6262  -47.0804 C.3       2 UNK         0.1400 
     63 CB         -1.8838  -14.7123  -47.7930 C.3       2 UNK        -0.1800 
     64 N           0.0905  -13.2547  -47.9053 N.am      2 UNK        -0.5000 
     65 C           1.1213  -12.5181  -47.4658 C.2       1 UNK         0.5000 
     66 O           1.1449  -11.9827  -46.3573 O.2       1 UNK        -0.5000 
     67 C          -1.3230  -23.9294  -46.9652 C.2       11 UNK         0.5000 
     68 O          -2.2897  -24.1224  -47.7034 O.2       11 UNK        -0.5000 
     69 N          -1.4267  -23.7519  -45.6417 N.am      12 UNK        -0.5000 
     70 CA         -2.6754  -23.8960  -44.8953 C.3       12 UNK         0.1400 
     71 CB         -2.4959  -23.3548  -43.4696 C.3       12 UNK        -0.1800 
     72 C          -3.1744  -25.3532  -44.8878 C.2       12 UNK         0.5000 
     73 O          -4.3471  -25.5908  -45.1765 O.2       12 UNK        -0.5000 
     74 N          -2.2689  -26.3015  -44.6054 N.am      13 UNK        -0.5000 
     75 CA         -2.5381  -27.7416  -44.5897 C.3       13 UNK         0.1400 
     76 CB         -1.3283  -28.4831  -44.0009 C.3       13 UNK        -0.1800 
     77 C          -2.8970  -28.3080  -45.9757 C.2       13 UNK         0.5000 
     78 O          -3.8060  -29.1325  -46.0778 O.2       13 UNK        -0.5000 
     79 N          -2.1981  -27.8392  -47.0188 N.am      14 UNK        -0.5000 
     80 CA         -2.4441  -28.2026  -48.4172 C.3       14 UNK         0.1400 
     81 CB         -1.2089  -27.8243  -49.2505 C.3       14 UNK        -0.1800 
     82 C          -3.7037  -27.5445  -49.0165 C.2       14 UNK         0.5000 
     83 O          -4.1271  -27.9443  -50.1011 O.2       14 UNK        -0.5000 
     84 N          -4.2466  -26.5281  -48.3286 N.am      15 UNK        -0.5000 
     85 CA         -5.3497  -25.6476  -48.7327 C.3       15 UNK         0.1400 
     86 CB         -6.6521  -26.4359  -48.9776 C.3       15 UNK        -0.1800 
     87 C          -4.9950  -24.7101  -49.9068 C.2       15 UNK         0.5000 
     88 O          -5.8832  -24.0640  -50.4623 O.2       15 UNK        -0.5000 
     89 N          -3.6983  -24.5931  -50.2225 N.am      16 UNK        -0.5000 
     90 CA         -3.1326  -23.6628  -51.1986 C.3       16 UNK         0.1400 
     91 CB         -1.6394  -23.9758  -51.3772 C.3       16 UNK        -0.1800 
     92 C          -3.3277  -22.1952  -50.7830 C.2       16 UNK         0.5000 
     93 O          -3.5348  -21.3411  -51.6453 O.2       16 UNK        -0.5000 
     94 N          -3.2976  -21.9423  -49.4668 N.am      17 UNK        -0.5000 
     95 CA         -3.5985  -20.6473  -48.8604 C.3       17 UNK         0.1400 
     96 CB         -3.2223  -20.6872  -47.3733 C.3       17 UNK        -0.1800 
     97 C          -5.0768  -20.2534  -49.0275 C.2       17 UNK         0.5000 
     98 O          -5.3671  -19.1010  -49.3459 O.2       17 UNK        -0.5000 
     99 N          -5.9775  -21.2266  -48.8291 N.am      18 UNK        -0.5000 
    100 CA        -7.4268  -21.0615  -48.9537 C.3       18 UNK         0.1400 
    101 CB        -8.1347  -22.2555  -48.2945 C.3       18 UNK        -0.1800 
    102 C         -7.8715  -20.8993  -50.4174 C.2       18 UNK         0.5000 
    103 O         -8.7355  -20.0705  -50.7051 O.2       18 UNK        -0.5000 
    104 N         -7.2501  -21.6737  -51.3168 N.am      19 UNK        -0.5000 
    105 CA        -7.4533  -21.6058  -52.7645 C.3       19 UNK         0.1400 
    106 CB        -6.8612  -22.8729  -53.4019 C.3       19 UNK        -0.1800 
    107 C         -6.8345  -20.3516  -53.4134 C.2       19 UNK         0.5000 
    108 O         -7.2108  -20.0133  -54.5361 O.2       19 UNK        -0.5000 
    109 N         -5.8848  -19.7118  -52.7125 N.am      20 UNK        -0.5000 
    110 CA        -5.0349  -18.6045  -53.1619 C.3       20 UNK         0.1400 
    111 CB        -5.8630  -17.3274  -53.4096 C.3       20 UNK        -0.1800 
    112 C         -4.1578  -19.0101  -54.3646 C.2       20 UNK         0.5000 
    113 O         -3.9747  -18.2327  -55.3040 O.2       20 UNK        -0.5000 
    114 N         -3.6183  -20.2365  -54.3020 N.am      21 UNK        -0.5000 
    115 CA        -2.8007  -20.8685  -55.3427 C.3       21 UNK         0.1400 
    116 CB        -2.5974  -22.3467  -54.9807 C.3       21 UNK        -0.1800 
    117 C         -1.4464  -20.1691  -55.5744 C.2       21 UNK         0.5000 
    118 O         -0.8343  -20.3544  -56.6268 O.2       21 UNK        -0.5000 
    119 N         -1.0249  -19.3589  -54.5978 N.am      22 UNK        -0.5000 
    120 CA         0.0874  -18.4067  -54.6863 C.3       22 UNK         0.1400 
    121 C         -0.1468  -17.2114  -55.6614 C.2       22 UNK         0.5000 
    122 N         -1.3662  -16.9408  -56.1163 N.am      22 UNK        -0.7600 
    123 O          0.8039  -16.5232  -56.0226 O.2       22 UNK        -0.5000 
    124 C124        0.5080  -17.9204  -53.2759 C.3       23 UNK        -0.0398 
    125 S125       -0.8561  -17.1436  -52.3293 S.3       23 UNK        -0.2404 
    126 C126       -1.0808  -18.3038  -50.9415 C.3       23 UNK        -0.0205 
    127 H127        0.3769   -9.9891  -48.7436 H         1 UNK         0.0600 
    128 H128        0.6336   -9.0260  -50.1908 H         1 UNK         0.0600 
    129 H129        2.0066   -9.4389  -49.1722 H         1 UNK         0.0600 
    130 H130        2.0199  -12.9662  -50.3979 H         1 UNK         0.3000 
    131 H131        2.7814  -11.3725  -48.1227 H         1 UNK         0.0600 
    132 H132        3.5383  -13.6686  -47.2169 H         1 UNK         0.0800 
    133 H133        4.3325  -13.0293  -48.6167 H         1 UNK         0.0800 
    134 H134        3.1008  -16.2901  -47.2373 H         1 UNK         0.0800 
    135 H135        1.5331  -15.5497  -47.4468 H         1 UNK         0.0800 
    136 H136        0.1424  -16.3057  -49.5572 H         1 UNK         0.1150 
    137 H137        0.4425  -20.4850  -50.3972 H         1 UNK         0.1150 
    138 H138        3.3494  -18.5862  -47.8703 H         1 UNK         0.1150 
    139 H139        3.0780  -21.0617  -47.8416 H         1 UNK         0.0800 
    140 H140        3.6325  -20.9694  -49.4916 H         1 UNK         0.0800 
    141 H141       -0.3982  -22.0458  -48.6172 H         1 UNK         0.0800 
    142 H142        0.6772  -21.8291  -47.2568 H         1 UNK         0.0800 
    143 H143        0.0502  -24.5766  -48.4404 H         1 UNK         0.0600 
    144 H144        1.6949  -23.7806  -46.2008 H         1 UNK         0.3000 
    145 H145        2.0310  -27.1079  -44.9002 H         1 UNK         0.0600 
    146 H146        3.6724  -26.8479  -46.7703 H         1 UNK         0.0600 
    147 H147        4.4099  -26.4922  -45.2166 H         1 UNK         0.0600 
    148 H148        3.9604  -25.1766  -46.3017 H         1 UNK         0.0600 
    149 H149        3.0969  -24.6014  -44.0452 H         1 UNK         0.3000 
    150 H150        0.4148  -23.5798  -41.9628 H         1 UNK         0.0600 
    151 H151        3.1211  -24.7712  -41.1561 H         1 UNK         0.0600 
    152 H152        1.5546  -25.3175  -40.5697 H         1 UNK         0.0600 
    153 H153        2.1181  -23.7023  -40.1741 H         1 UNK         0.0600 
    154 H154        2.9695  -22.4767  -42.1715 H         1 UNK         0.3000 
    155 H155        3.0904  -20.3699  -43.1406 H         1 UNK         0.0600 
    156 H156        3.6460  -21.8361  -45.7804 H         1 UNK         0.0600 
    157 H157        4.5760  -21.9450  -44.2973 H         1 UNK         0.0600 
    158 H158        4.5726  -20.4460  -45.2095 H         1 UNK         0.0600 
    159 H159        2.2429  -19.6969  -45.8140 H         1 UNK         0.3000 
    160 H160        1.1781  -17.6061  -45.9679 H         1 UNK         0.0600 
    161 H161       -1.4243  -19.1527  -45.4906 H         1 UNK         0.0600 
    162 H162       -0.2133  -19.5168  -46.7157 H         1 UNK         0.0600 
    163 H163       -1.1403  -18.0321  -46.8260 H         1 UNK         0.0600 
    164 H164       -1.1654  -16.9986  -44.3077 H         1 UNK         0.3000 
    165 H165       -1.2767  -14.6349  -43.7245 H         1 UNK         0.0600 
    166 H166       -1.0718  -16.3623  -41.8864 H         1 UNK         0.0600 
    167 H167        0.4180  -15.6058  -41.3378 H         1 UNK         0.0600 
    168 H168       -1.1138  -14.7422  -41.2160 H         1 UNK         0.0600 
    169 H169        1.3973  -13.6721  -43.4975 H         1 UNK         0.3000 
    170 H170        0.7537  -10.6336  -41.8942 H         1 UNK         0.0600 
    171 H171        2.7420  -12.1678  -43.6679 H         1 UNK         0.0600 
    172 H172        2.6537  -12.2933  -41.9090 H         1 UNK         0.0600 
    173 H173        3.0888  -10.7691  -42.6617 H         1 UNK         0.0600 
    174 H174        0.7126  -10.9770  -44.8612 H         1 UNK         0.3000 
    175 H175       -0.1828   -7.5339  -45.2966 H         1 UNK         0.0600 
    176 H176        2.2804   -7.7139  -45.6020 H         1 UNK         0.0600 
    177 H177        2.0932   -9.2884  -46.3636 H         1 UNK         0.0600 
    178 H178        1.4403   -7.8449  -47.1383 H         1 UNK         0.0600 
    179 H179       -0.1989  -10.1444  -46.7102 H         1 UNK         0.3000 
    180 H180       -3.6735  -10.3814  -46.8126 H         1 UNK         0.0600 
    181 H181       -2.0571   -9.1970  -49.1351 H         1 UNK         0.0600 
    182 H182       -3.5447   -8.5318  -48.4736 H         1 UNK         0.0600 
    183 H183       -3.5707  -10.0908  -49.2807 H         1 UNK         0.0600 
    184 H184       -1.5003  -11.4790  -48.4055 H         1 UNK         0.3000 
    185 H185       -0.6811  -14.0548  -46.1542 H         1 UNK         0.0600 
    186 H186       -2.7856  -14.9570  -47.2300 H         1 UNK         0.0600 
    187 H187       -2.1937  -14.3977  -48.7902 H         1 UNK         0.0600 
    188 H188       -1.3118  -15.6340  -47.8884 H         1 UNK         0.0600 
    189 H189        0.1272  -13.6302  -48.8420 H         1 UNK         0.3000 
    190 H190       -0.5929  -23.5167  -45.1134 H         1 UNK         0.3000 
    191 H191       -3.4356  -23.2882  -45.3891 H         1 UNK         0.0600 
    192 H192       -2.1428  -22.3232  -43.4807 H         1 UNK         0.0600 
    193 H193       -3.4417  -23.3711  -42.9271 H         1 UNK         0.0600 
    194 H194       -1.7825  -23.9468  -42.8978 H         1 UNK         0.0600 
    195 H195       -1.3302  -26.0186  -44.3352 H         1 UNK         0.3000 
    196 H196       -3.3927  -27.9127  -43.9321 H         1 UNK         0.0600 
    197 H197       -1.5037  -29.5592  -43.9716 H         1 UNK         0.0600 
    198 H198       -1.1272  -28.1588  -42.9798 H         1 UNK         0.0600 
    199 H199       -0.4262  -28.3115  -44.5894 H         1 UNK         0.0600 
    200 H200       -1.4109  -27.2206  -46.8436 H         1 UNK         0.3000 
    201 H201       -2.5789  -29.2845  -48.4768 H         1 UNK         0.0600 
    202 H202       -1.3350  -28.1105  -50.2955 H         1 UNK         0.0600 
    203 H203       -0.3157  -28.3298  -48.8830 H         1 UNK         0.0600 
    204 H204       -1.0206  -26.7503  -49.2246 H         1 UNK         0.0600 
    205 H205       -3.8092  -26.2815  -47.4502 H         1 UNK         0.3000 
    206 H206       -5.5243  -24.9926  -47.8780 H         1 UNK         0.0600 
    207 H207       -6.8799  -27.0913  -48.1369 H         1 UNK         0.0600 
    208 H208       -7.4995  -25.7606  -49.1001 H         1 UNK         0.0600 
    209 H209       -6.5956  -27.0484  -49.8775 H         1 UNK         0.0600 
    210 H210       -3.0394  -25.0955  -49.6446 H         1 UNK         0.3000 
    211 H211       -3.6406  -23.8134  -52.1530 H         1 UNK         0.0600 
    212 H212       -1.1673  -23.2831  -52.0738 H         1 UNK         0.0600 
    213 H213       -1.4924  -24.9827  -51.7683 H         1 UNK         0.0600 
    214 H214       -1.0979  -23.9011  -50.4348 H         1 UNK         0.0600 
    215 H215       -3.1033  -22.7142  -48.8367 H         1 UNK         0.3000 
    216 H216       -2.9864  -19.8892  -49.3505 H         1 UNK         0.0600 
    217 H217       -2.1695  -20.9297  -47.2378 H         1 UNK         0.0600 
    218 H218       -3.8076  -21.4286  -46.8294 H         1 UNK         0.0600 
    219 H219       -3.4008  -19.7201  -46.9020 H         1 UNK         0.0600 
    220 H220       -5.6457  -22.1525  -48.6080 H         1 UNK         0.3000 
    221 H221       -7.7151  -20.1564  -48.4147 H         1 UNK         0.0600 
    222 H222       -7.8840  -23.1969  -48.7841 H         1 UNK         0.0600 
    223 H223       -7.8649  -22.3424  -47.2419 H         1 UNK         0.0600 
    224 H224       -9.2182  -22.1403  -48.3432 H         1 UNK         0.0600 
    225 H225       -6.6103  -22.3911  -50.9846 H         1 UNK         0.3000 
    226 H226       -8.5268  -21.5880  -52.9633 H         1 UNK         0.0600 
    227 H227       -7.3241  -23.7725  -52.9957 H         1 UNK         0.0600 
    228 H228       -7.0223  -22.8827  -54.4806 H         1 UNK         0.0600 
    229 H229       -5.7866  -22.9427  -53.2292 H         1 UNK         0.0600 
    230 H230       -5.6398  -20.1006  -51.8122 H         1 UNK         0.3000 
    231 H231       -4.3475  -18.3966  -52.3403 H         1 UNK         0.0600 
    232 H232       -6.5324  -17.4342  -54.2635 H         1 UNK         0.0600 
    233 H233       -5.2123  -16.4756  -53.6102 H         1 UNK         0.0600 
    234 H234       -6.4673  -17.0760  -52.5379 H         1 UNK         0.0600 
    235 H235       -3.7595  -20.7712  -53.4488 H         1 UNK         0.3000 
    236 H236       -3.3580  -20.8176  -56.2801 H         1 UNK         0.0600 
    237 H237       -2.0396  -22.4532  -54.0514 H         1 UNK         0.0600 
    238 H238       -3.5515  -22.8608  -54.8622 H         1 UNK         0.0600 
    239 H239       -2.0407  -22.8682  -55.7602 H         1 UNK         0.0600 
    240 H240       -1.6085  -19.2687  -53.7803 H         1 UNK         0.3000 
    241 H241        0.9358  -18.9548  -55.1003 H         1 UNK         0.0600 
    242 H242       -1.4940  -16.1679  -56.7496 H         1 UNK         0.3800 
    243 H243       -2.1731  -17.4791  -55.8195 H         1 UNK         0.3800 
    244 H244        0.9061  -18.7657  -52.7142 H         1 UNK         0.0800 
    245 H245        1.3316  -17.2074  -53.3419 H         1 UNK         0.0800 
    246 H246       -1.9219  -17.9614  -50.3375 H         1 UNK         0.0800 
    247 H247       -1.3579  -19.2845  -51.3318 H         1 UNK         0.0800 
@<TRIPOS>BOND
     1    1    2 1    
     2    1  127 1    
     3    1  128 1    
     4    1  129 1    
     5    2    3 2    
     6    2    4 am   BACKBONE|DICT|INTERRES
     7    4    5 1    
     8    4  130 1    
     9    5    6 1    
    10    5   65 1    
    11    5  131 1    
    12    6    7 1    
    13    6  132 1    
    14    6  133 1    
    15    7    8 1    
    16    8    9 1    
    17    8  134 1    
    18    8  135 1    
    19    9   10 ar   
    20    9   14 ar   
    21   10   11 ar   
    22   10  136 1    
    23   11   12 ar   
    24   11  126 1    
    25   12   13 ar   
    26   12  137 1    
    27   13   14 ar   
    28   13   15 1    
    29   14  138 1    
    30   15   16 1    
    31   15  139 1    
    32   15  140 1    
    33   16   17 1    
    34   17   18 1    
    35   17  141 1    
    36   17  142 1    
    37   18   19 1    
    38   18   67 1    
    39   18  143 1    
    40   19   20 am   BACKBONE|DICT|INTERRES
    41   19  144 1    
    42   20   21 2    
    43   20   22 1    
    44   22   23 1    
    45   22   24 1    
    46   22  145 1    
    47   23  146 1    
    48   23  147 1    
    49   23  148 1    
    50   24   25 am   BACKBONE|DICT|INTERRES
    51   24  149 1    
    52   25   26 2    
    53   25   27 1    
    54   27   28 1    
    55   27   29 1    
    56   27  150 1    
    57   28  151 1    
    58   28  152 1    
    59   28  153 1    
    60   29   30 am   BACKBONE|DICT|INTERRES
    61   29  154 1    
    62   30   31 2    
    63   30   32 1    
    64   32   33 1    
    65   32   34 1    
    66   32  155 1    
    67   33  156 1    
    68   33  157 1    
    69   33  158 1    
    70   34   35 am   BACKBONE|DICT|INTERRES
    71   34  159 1    
    72   35   36 2    
    73   35   37 1    
    74   37   38 1    
    75   37   39 1    
    76   37  160 1    
    77   38  161 1    
    78   38  162 1    
    79   38  163 1    
    80   39   40 am   BACKBONE|DICT|INTERRES
    81   39  164 1    
    82   40   41 2    
    83   40   42 1    
    84   42   43 1    
    85   42   44 1    
    86   42  165 1    
    87   43  166 1    
    88   43  167 1    
    89   43  168 1    
    90   44   45 am   BACKBONE|DICT|INTERRES
    91   44  169 1    
    92   45   46 2    
    93   45   47 1    
    94   47   48 1    
    95   47   49 1    
    96   47  170 1    
    97   48  171 1    
    98   48  172 1    
    99   48  173 1    
   100   49   50 am   BACKBONE|DICT|INTERRES
   101   49  174 1    
   102   50   51 2    
   103   50   52 1    
   104   52   53 1    
   105   52   54 1    
   106   52  175 1    
   107   53  176 1    
   108   53  177 1    
   109   53  178 1    
   110   54   55 am   BACKBONE|DICT|INTERRES
   111   54  179 1    
   112   55   56 2    
   113   55   57 1    
   114   57   58 1    
   115   57   59 1    
   116   57  180 1    
   117   58  181 1    
   118   58  182 1    
   119   58  183 1    
   120   59   60 am   BACKBONE|DICT|INTERRES
   121   59  184 1    
   122   60   61 2    
   123   60   62 1    
   124   62   63 1    
   125   62   64 1    
   126   62  185 1    
   127   63  186 1    
   128   63  187 1    
   129   63  188 1    
   130   64   65 am   BACKBONE|DICT|INTERRES
   131   64  189 1    
   132   65   66 2    
   133   67   68 2    
   134   67   69 am   BACKBONE|DICT|INTERRES
   135   69   70 1    
   136   69  190 1    
   137   70   71 1    
   138   70   72 1    
   139   70  191 1    
   140   71  192 1    
   141   71  193 1    
   142   71  194 1    
   143   72   73 2    
   144   72   74 am   BACKBONE|DICT|INTERRES
   145   74   75 1    
   146   74  195 1    
   147   75   76 1    
   148   75   77 1    
   149   75  196 1    
   150   76  197 1    
   151   76  198 1    
   152   76  199 1    
   153   77   78 2    
   154   77   79 am   BACKBONE|DICT|INTERRES
   155   79   80 1    
   156   79  200 1    
   157   80   81 1    
   158   80   82 1    
   159   80  201 1    
   160   81  202 1    
   161   81  203 1    
   162   81  204 1    
   163   82   83 2    
   164   82   84 am   BACKBONE|DICT|INTERRES
   165   84   85 1    
   166   84  205 1    
   167   85   86 1    
   168   85   87 1    
   169   85  206 1    
   170   86  207 1    
   171   86  208 1    
   172   86  209 1    
   173   87   88 2    
   174   87   89 am   BACKBONE|DICT|INTERRES
   175   89   90 1    
   176   89  210 1    
   177   90   91 1    
   178   90   92 1    
   179   90  211 1    
   180   91  212 1    
   181   91  213 1    
   182   91  214 1    
   183   92   93 2    
   184   92   94 am   BACKBONE|DICT|INTERRES
   185   94   95 1    
   186   94  215 1    
   187   95   96 1    
   188   95   97 1    
   189   95  216 1    
   190   96  217 1    
   191   96  218 1    
   192   96  219 1    
   193   97   98 2    
   194   97   99 am   BACKBONE|DICT|INTERRES
   195   99  100 1    
   196   99  220 1    
   197  100  101 1    
   198  100  102 1    
   199  100  221 1    
   200  101  222 1    
   201  101  223 1    
   202  101  224 1    
   203  102  103 2    
   204  102  104 am   BACKBONE|DICT|INTERRES
   205  104  105 1    
   206  104  225 1    
   207  105  106 1    
   208  105  107 1    
   209  105  226 1    
   210  106  227 1    
   211  106  228 1    
   212  106  229 1    
   213  107  108 2    
   214  107  109 am   BACKBONE|DICT|INTERRES
   215  109  110 1    
   216  109  230 1    
   217  110  111 1    
   218  110  112 1    
   219  110  231 1    
   220  111  232 1    
   221  111  233 1    
   222  111  234 1    
   223  112  113 2    
   224  112  114 am   BACKBONE|DICT|INTERRES
   225  114  115 1    
   226  114  235 1    
   227  115  116 1    
   228  115  117 1    
   229  115  236 1    
   230  116  237 1    
   231  116  238 1    
   232  116  239 1    
   233  117  118 2    
   234  117  119 am   BACKBONE|DICT|INTERRES
   235  119  120 1    
   236  119  240 1    
   237  120  121 1    
   238  120  124 1    
   239  120  241 1    
   240  121  122 am   BACKBONE|DICT|INTERRES
   241  121  123 2    
   242  122  242 1    
   243  122  243 1    
   244  124  125 1    
   245  124  244 1    
   246  124  245 1    
   247  125  126 1    
   248  126  246 1    
   249  126  247 1    
@<TRIPOS>SUBSTRUCTURE
     1 UNK         1 GROUP             0       ****    0 ROOT    
