@<TRIPOS>MOLECULE
3R540
247   249    1
SMALL
USER_CHARGES


@<TRIPOS>ATOM
      1 CA         -2.8747   -9.6498  -49.3734 C.3       0 UNK        -0.1800 
      2 C          -1.5931  -10.4705  -49.3845 C.2       0 UNK         0.5000 
      3 O          -0.5086   -9.9175  -49.2024 O.2       0 UNK        -0.5000 
      4 N          -1.7127  -11.7881  -49.5916 N.am      1 UNK        -0.5000 
      5 CA         -0.5948  -12.7413  -49.6216 C.3       1 UNK         0.1400 
      6 C6         -0.9699  -14.0302  -50.3937 C.3       23 UNK        -0.0398 
      7 S7         -2.3164  -14.9974  -49.6168 S.3       23 UNK        -0.2404 
      8 C8         -2.2803  -16.5425  -50.5854 C.3       23 UNK        -0.0205 
      9 C9         -0.9083  -17.2071  -50.6326 C.ar      23 UNK        -0.0193 
     10 C10        -0.3758  -17.6087  -51.8600 C.ar      23 UNK        -0.1150 
     11 C11         0.8704  -18.2353  -51.9300 C.ar      23 UNK        -0.0193 
     12 C12         1.6057  -18.4318  -50.7589 C.ar      23 UNK        -0.1150 
     13 C13         1.0902  -18.0278  -49.5238 C.ar      23 UNK        -0.0193 
     14 C14        -0.1714  -17.4282  -49.4646 C.ar      23 UNK        -0.1150 
     15 C15         1.8923  -18.2543  -48.2527 C.3       23 UNK        -0.0205 
     16 S16         1.8181  -19.9919  -47.7282 S.3       23 UNK        -0.2404 
     17 C17         0.0438  -20.1450  -47.3292 C.3       23 UNK        -0.0398 
     18 CA         -0.2535  -21.4401  -46.5421 C.3       11 UNK         0.1400 
     19 N           0.4249  -21.4606  -45.2417 N.am      11 UNK        -0.5000 
     20 C           0.7573  -22.5638  -44.5621 C.2       10 UNK         0.5000 
     21 O           0.4587  -23.7012  -44.9252 O.2       10 UNK        -0.5000 
     22 CA          1.4974  -22.3529  -43.2299 C.3       10 UNK         0.1400 
     23 CB          2.9726  -22.0003  -43.4743 C.3       10 UNK        -0.1800 
     24 N           0.8717  -21.3196  -42.4023 N.am      10 UNK        -0.5000 
     25 C          -0.3483  -21.4274  -41.8568 C.2       9 UNK         0.5000 
     26 O          -1.0560  -22.4277  -41.9685 O.2       9 UNK        -0.5000 
     27 CA         -0.8801  -20.2135  -41.0739 C.3       9 UNK         0.1400 
     28 CB         -0.3005  -20.1865  -39.6517 C.3       9 UNK        -0.1800 
     29 N          -0.6034  -18.9428  -41.7426 N.am      9 UNK        -0.5000 
     30 C          -1.1450  -18.5613  -42.9085 C.2       8 UNK         0.5000 
     31 O          -1.9834  -19.2199  -43.5237 O.2       8 UNK        -0.5000 
     32 CA         -0.6359  -17.2360  -43.5079 C.3       8 UNK         0.1400 
     33 CB         -1.3457  -16.0359  -42.8660 C.3       8 UNK        -0.1800 
     34 N           0.8121  -17.0692  -43.3756 N.am      8 UNK        -0.5000 
     35 C           1.7221  -17.8926  -43.9142 C.2       7 UNK         0.5000 
     36 O           1.4363  -18.8692  -44.6028 O.2       7 UNK        -0.5000 
     37 CA          3.1942  -17.6155  -43.5729 C.3       7 UNK         0.1400 
     38 CB          3.7514  -16.4578  -44.4165 C.3       7 UNK        -0.1800 
     39 N           3.3707  -17.3332  -42.1484 N.am      7 UNK        -0.5000 
     40 C           3.1957  -18.2387  -41.1742 C.2       6 UNK         0.5000 
     41 O           2.9105  -19.4182  -41.3786 O.2       6 UNK        -0.5000 
     42 CA          3.3159  -17.7288  -39.7270 C.3       6 UNK         0.1400 
     43 CB          4.7867  -17.6879  -39.2866 C.3       6 UNK        -0.1800 
     44 N           2.7186  -16.4048  -39.5498 N.am      6 UNK        -0.5000 
     45 C           1.4090  -16.1410  -39.6656 C.2       5 UNK         0.5000 
     46 O           0.5559  -16.9973  -39.8934 O.2       5 UNK        -0.5000 
     47 CA          0.9945  -14.6615  -39.5648 C.3       5 UNK         0.1400 
     48 CB          0.7777  -14.2576  -38.0990 C.3       5 UNK        -0.1800 
     49 N           1.9690  -13.7576  -40.1832 N.am      5 UNK        -0.5000 
     50 C           2.2622  -13.7504  -41.4891 C.2       4 UNK         0.5000 
     51 O           1.7317  -14.4997  -42.3155 O.2       4 UNK        -0.5000 
     52 CA          3.3630  -12.7840  -41.9407 C.3       4 UNK         0.1400 
     53 CB          4.7566  -13.4002  -41.7276 C.3       4 UNK        -0.1800 
     54 N           3.1571  -12.5069  -43.3540 N.am      4 UNK        -0.5000 
     55 C           3.5107  -11.3936  -44.0030 C.2       3 UNK         0.5000 
     56 O           4.1568  -10.4781  -43.4913 O.2       3 UNK        -0.5000 
     57 CA          3.0524  -11.2751  -45.4710 C.3       3 UNK         0.1400 
     58 CB          4.1908  -11.6739  -46.4224 C.3       3 UNK        -0.1800 
     59 N           1.8712  -12.0846  -45.7848 N.am      3 UNK        -0.5000 
     60 C           0.6403  -11.8880  -45.2964 C.2       2 UNK         0.5000 
     61 O           0.3487  -10.9608  -44.5389 O.2       2 UNK        -0.5000 
     62 CA         -0.4376  -12.8932  -45.7519 C.3       2 UNK         0.1400 
     63 CB         -1.7299  -12.7844  -44.9224 C.3       2 UNK        -0.1800 
     64 N          -0.7798  -12.7200  -47.1622 N.am      2 UNK        -0.5000 
     65 C          -0.0238  -13.0564  -48.2172 C.2       1 UNK         0.5000 
     66 O           1.0793  -13.5968  -48.1161 O.2       1 UNK        -0.5000 
     67 C          -1.7694  -21.7278  -46.4571 C.2       11 UNK         0.5000 
     68 O          -2.4407  -21.6976  -47.4879 O.2       11 UNK        -0.5000 
     69 N          -2.2872  -22.0513  -45.2625 N.am      12 UNK        -0.5000 
     70 CA         -3.6068  -22.6591  -45.0792 C.3       12 UNK         0.1400 
     71 CB         -4.0138  -22.5607  -43.6022 C.3       12 UNK        -0.1800 
     72 C          -3.6391  -24.1275  -45.5571 C.2       12 UNK         0.5000 
     73 O          -4.7166  -24.6419  -45.8596 O.2       12 UNK        -0.5000 
     74 N          -2.4637  -24.7693  -45.6414 N.am      13 UNK        -0.5000 
     75 CA         -2.2646  -26.0839  -46.2475 C.3       13 UNK         0.1400 
     76 CB         -0.8737  -26.6023  -45.8471 C.3       13 UNK        -0.1800 
     77 C          -2.4096  -26.0450  -47.7832 C.2       13 UNK         0.5000 
     78 O          -2.4717  -24.9669  -48.3832 O.2       13 UNK        -0.5000 
     79 N          -2.4565  -27.2411  -48.3884 N.am      14 UNK        -0.5000 
     80 CA         -2.5812  -27.4914  -49.8301 C.3       14 UNK         0.1400 
     81 CB         -1.3044  -27.0440  -50.5736 C.3       14 UNK        -0.1800 
     82 C          -3.8657  -26.8734  -50.4165 C.2       14 UNK         0.5000 
     83 O          -3.8107  -26.1742  -51.4282 O.2       14 UNK        -0.5000 
     84 N          -4.9928  -27.1110  -49.7277 N.am      15 UNK        -0.5000 
     85 CA         -6.3312  -26.5803  -50.0183 C.3       15 UNK         0.1400 
     86 CB         -6.8719  -27.1574  -51.3446 C.3       15 UNK        -0.1800 
     87 C          -6.3910  -25.0378  -49.9694 C.2       15 UNK         0.5000 
     88 O          -7.1099  -24.4283  -50.7601 O.2       15 UNK        -0.5000 
     89 N          -5.6221  -24.4429  -49.0447 N.am      16 UNK        -0.5000 
     90 CA         -5.4027  -23.0062  -48.8633 C.3       16 UNK         0.1400 
     91 CB         -6.6944  -22.2964  -48.4072 C.3       16 UNK        -0.1800 
     92 C          -4.7646  -22.3746  -50.1141 C.2       16 UNK         0.5000 
     93 O          -5.3996  -21.5670  -50.7960 O.2       16 UNK        -0.5000 
     94 N          -3.5279  -22.8024  -50.4097 N.am      17 UNK        -0.5000 
     95 CA         -2.7014  -22.3728  -51.5445 C.3       17 UNK         0.1400 
     96 CB         -2.2775  -20.8972  -51.3778 C.3       17 UNK        -0.1800 
     97 C          -3.3842  -22.6541  -52.8997 C.2       17 UNK         0.5000 
     98 O          -3.5431  -21.7503  -53.7247 O.2       17 UNK        -0.5000 
     99 N          -3.8324  -23.9056  -53.0748 N.am      18 UNK        -0.5000 
    100 CA        -4.5564  -24.4516  -54.2295 C.3       18 UNK         0.1400 
    101 CB        -3.6764  -24.3924  -55.4965 C.3       18 UNK        -0.1800 
    102 C         -5.9481  -23.8236  -54.4620 C.2       18 UNK         0.5000 
    103 O         -6.5318  -24.0328  -55.5263 O.2       18 UNK        -0.5000 
    104 N         -6.4425  -23.0502  -53.4822 N.am      19 UNK        -0.5000 
    105 CA        -7.6570  -22.2281  -53.5053 C.3       19 UNK         0.1400 
    106 CB        -8.9179  -23.1131  -53.5923 C.3       19 UNK        -0.1800 
    107 C         -7.6269  -21.1276  -54.5905 C.2       19 UNK         0.5000 
    108 O         -8.6835  -20.6410  -54.9979 O.2       19 UNK        -0.5000 
    109 N         -6.4227  -20.7610  -55.0497 N.am      20 UNK        -0.5000 
    110 CA        -6.1945  -19.8757  -56.1908 C.3       20 UNK         0.1400 
    111 CB        -6.2469  -20.6993  -57.4931 C.3       20 UNK        -0.1800 
    112 C         -4.8782  -19.0928  -56.0453 C.2       20 UNK         0.5000 
    113 O         -4.2956  -18.6953  -57.0557 O.2       20 UNK        -0.5000 
    114 N         -4.4183  -18.9019  -54.7984 N.am      21 UNK        -0.5000 
    115 CA        -3.1948  -18.1908  -54.4062 C.3       21 UNK         0.1400 
    116 CB        -3.3909  -16.6686  -54.5623 C.3       21 UNK        -0.1800 
    117 C         -1.9341  -18.7143  -55.1297 C.2       21 UNK         0.5000 
    118 O         -1.1627  -17.9319  -55.6870 O.2       21 UNK        -0.5000 
    119 N         -1.7825  -20.0429  -55.1258 N.am      22 UNK        -0.5000 
    120 CA        -0.7358  -20.8215  -55.8098 C.3       22 UNK         0.1400 
    121 C         -0.8908  -20.9013  -57.3600 C.2       22 UNK         0.5000 
    122 N         -1.9380  -20.3556  -57.9682 N.am      22 UNK        -0.7600 
    123 O         -0.0565  -21.5037  -58.0301 O.2       22 UNK        -0.5000 
    124 C124        0.7191  -20.4486  -55.3940 C.3       23 UNK        -0.0398 
    125 S125        0.9852  -20.4429  -53.5851 S.3       23 UNK        -0.2404 
    126 C126        1.4130  -18.6987  -53.2719 C.3       23 UNK        -0.0205 
    127 H127       -2.9939   -9.1533  -48.4104 H         1 UNK         0.0600 
    128 H128       -3.7546  -10.2692  -49.5481 H         1 UNK         0.0600 
    129 H129       -2.8376   -8.8857  -50.1498 H         1 UNK         0.0600 
    130 H130       -2.6287  -12.1915  -49.7333 H         1 UNK         0.3000 
    131 H131        0.2194  -12.2693  -50.1759 H         1 UNK         0.0600 
    132 H132       -1.2728  -13.7768  -51.4105 H         1 UNK         0.0800 
    133 H133       -0.0834  -14.6570  -50.4994 H         1 UNK         0.0800 
    134 H134       -2.9939  -17.2457  -50.1543 H         1 UNK         0.0800 
    135 H135       -2.6367  -16.3213  -51.5921 H         1 UNK         0.0800 
    136 H136       -0.9318  -17.4368  -52.7676 H         1 UNK         0.1150 
    137 H137        2.5722  -18.9138  -50.8054 H         1 UNK         0.1150 
    138 H138       -0.5772  -17.1238  -48.5101 H         1 UNK         0.1150 
    139 H139        2.9337  -17.9786  -48.4244 H         1 UNK         0.0800 
    140 H140        1.5351  -17.6137  -47.4445 H         1 UNK         0.0800 
    141 H141       -0.5042  -20.1278  -48.2729 H         1 UNK         0.0800 
    142 H142       -0.2814  -19.2710  -46.7624 H         1 UNK         0.0800 
    143 H143        0.1520  -22.2656  -47.1315 H         1 UNK         0.0600 
    144 H144        0.7297  -20.5546  -44.8898 H         1 UNK         0.3000 
    145 H145        1.4625  -23.2941  -42.6774 H         1 UNK         0.0600 
    146 H146        3.5221  -21.9349  -42.5352 H         1 UNK         0.0600 
    147 H147        3.4604  -22.7612  -44.0847 H         1 UNK         0.0600 
    148 H148        3.0797  -21.0460  -43.9909 H         1 UNK         0.0600 
    149 H149        1.4191  -20.4828  -42.2279 H         1 UNK         0.3000 
    150 H150       -1.9640  -20.3205  -40.9945 H         1 UNK         0.0600 
    151 H151       -0.5046  -21.1214  -39.1282 H         1 UNK         0.0600 
    152 H152       -0.7404  -19.3815  -39.0628 H         1 UNK         0.0600 
    153 H153        0.7803  -20.0425  -39.6593 H         1 UNK         0.0600 
    154 H154        0.0300  -18.3076  -41.2667 H         1 UNK         0.3000 
    155 H155       -0.8697  -17.2405  -44.5746 H         1 UNK         0.0600 
    156 H156       -2.4219  -16.0812  -43.0364 H         1 UNK         0.0600 
    157 H157       -0.9851  -15.0986  -43.2866 H         1 UNK         0.0600 
    158 H158       -1.1837  -15.9997  -41.7887 H         1 UNK         0.0600 
    159 H159        1.1335  -16.2663  -42.8428 H         1 UNK         0.3000 
    160 H160        3.7671  -18.5135  -43.8140 H         1 UNK         0.0600 
    161 H161        3.2203  -15.5242  -44.2345 H         1 UNK         0.0600 
    162 H162        3.6642  -16.6788  -45.4811 H         1 UNK         0.0600 
    163 H163        4.8075  -16.2891  -44.2060 H         1 UNK         0.0600 
    164 H164        3.5557  -16.3759  -41.8925 H         1 UNK         0.3000 
    165 H165        2.7843  -18.4307  -39.0809 H         1 UNK         0.0600 
    166 H166        4.8765  -17.4007  -38.2388 H         1 UNK         0.0600 
    167 H167        5.2531  -18.6681  -39.3947 H         1 UNK         0.0600 
    168 H168        5.3675  -16.9806  -39.8801 H         1 UNK         0.0600 
    169 H169        3.3486  -15.6405  -39.3572 H         1 UNK         0.3000 
    170 H170        0.0461  -14.5471  -40.0939 H         1 UNK         0.0600 
    171 H171        0.0418  -14.9056  -37.6210 H         1 UNK         0.0600 
    172 H172        1.6998  -14.3249  -37.5203 H         1 UNK         0.0600 
    173 H173        0.4065  -13.2354  -38.0226 H         1 UNK         0.0600 
    174 H174        2.4464  -13.1165  -39.5657 H         1 UNK         0.3000 
    175 H175        3.2721  -11.8588  -41.3677 H         1 UNK         0.0600 
    176 H176        4.8800  -14.3232  -42.2953 H         1 UNK         0.0600 
    177 H177        5.5426  -12.7118  -42.0382 H         1 UNK         0.0600 
    178 H178        4.9284  -13.6330  -40.6761 H         1 UNK         0.0600 
    179 H179        2.5834  -13.1921  -43.8284 H         1 UNK         0.3000 
    180 H180        2.8017  -10.2282  -45.6537 H         1 UNK         0.0600 
    181 H181        4.4711  -12.7205  -46.2964 H         1 UNK         0.0600 
    182 H182        5.0815  -11.0706  -46.2418 H         1 UNK         0.0600 
    183 H183        3.9045  -11.5259  -47.4640 H         1 UNK         0.0600 
    184 H184        1.9893  -12.8208  -46.4734 H         1 UNK         0.3000 
    185 H185       -0.0325  -13.8975  -45.6089 H         1 UNK         0.0600 
    186 H186       -1.5206  -12.8624  -43.8549 H         1 UNK         0.0600 
    187 H187       -2.2351  -11.8316  -45.0854 H         1 UNK         0.0600 
    188 H188       -2.4284  -13.5823  -45.1757 H         1 UNK         0.0600 
    189 H189       -1.6598  -12.2643  -47.3523 H         1 UNK         0.3000 
    190 H190       -1.6869  -22.0158  -44.4501 H         1 UNK         0.3000 
    191 H191       -4.3324  -22.0962  -45.6698 H         1 UNK         0.0600 
    192 H192       -3.3803  -23.1815  -42.9686 H         1 UNK         0.0600 
    193 H193       -3.9507  -21.5341  -43.2402 H         1 UNK         0.0600 
    194 H194       -5.0423  -22.8950  -43.4609 H         1 UNK         0.0600 
    195 H195       -1.6201  -24.2665  -45.3944 H         1 UNK         0.3000 
    196 H196       -3.0208  -26.7630  -45.8484 H         1 UNK         0.0600 
    197 H197       -0.7216  -27.6297  -46.1791 H         1 UNK         0.0600 
    198 H198       -0.7435  -26.5912  -44.7647 H         1 UNK         0.0600 
    199 H199       -0.0793  -25.9968  -46.2853 H         1 UNK         0.0600 
    200 H200       -2.4019  -28.0692  -47.8115 H         1 UNK         0.3000 
    201 H201       -2.6745  -28.5711  -49.9555 H         1 UNK         0.0600 
    202 H202       -0.4166  -27.5112  -50.1476 H         1 UNK         0.0600 
    203 H203       -1.1660  -25.9631  -50.5330 H         1 UNK         0.0600 
    204 H204       -1.3466  -27.3274  -51.6259 H         1 UNK         0.0600 
    205 H205       -4.9229  -27.6835  -48.8981 H         1 UNK         0.3000 
    206 H206       -6.9823  -26.9326  -49.2171 H         1 UNK         0.0600 
    207 H207       -6.8178  -28.2459  -51.3529 H         1 UNK         0.0600 
    208 H208       -7.9176  -26.8847  -51.4918 H         1 UNK         0.0600 
    209 H209       -6.3157  -26.7865  -52.2059 H         1 UNK         0.0600 
    210 H210       -5.0522  -25.0343  -48.4560 H         1 UNK         0.3000 
    211 H211       -4.6767  -22.9049  -48.0588 H         1 UNK         0.0600 
    212 H212       -7.4761  -22.3350  -49.1663 H         1 UNK         0.0600 
    213 H213       -6.5008  -21.2449  -48.1931 H         1 UNK         0.0600 
    214 H214       -7.0878  -22.7470  -47.4961 H         1 UNK         0.0600 
    215 H215       -3.1044  -23.4846  -49.7876 H         1 UNK         0.3000 
    216 H216       -1.7970  -22.9821  -51.5204 H         1 UNK         0.0600 
    217 H217       -1.5993  -20.5923  -52.1738 H         1 UNK         0.0600 
    218 H218       -1.7565  -20.7408  -50.4333 H         1 UNK         0.0600 
    219 H219       -3.1312  -20.2199  -51.4039 H         1 UNK         0.0600 
    220 H220       -3.6999  -24.5800  -52.3221 H         1 UNK         0.3000 
    221 H221       -4.7362  -25.5026  -53.9999 H         1 UNK         0.0600 
    222 H222       -3.5270  -23.3687  -55.8417 H         1 UNK         0.0600 
    223 H223       -2.6958  -24.8329  -55.3168 H         1 UNK         0.0600 
    224 H224       -4.1332  -24.9471  -56.3167 H         1 UNK         0.0600 
    225 H225       -5.8932  -22.9588  -52.6367 H         1 UNK         0.3000 
    226 H226       -7.6839  -21.7089  -52.5463 H         1 UNK         0.0600 
    227 H227       -8.9100  -23.8866  -52.8245 H         1 UNK         0.0600 
    228 H228       -9.8221  -22.5217  -53.4445 H         1 UNK         0.0600 
    229 H229       -9.0038  -23.6037  -54.5621 H         1 UNK         0.0600 
    230 H230       -5.6015  -21.2102  -54.6605 H         1 UNK         0.3000 
    231 H231       -6.9848  -19.1233  -56.2266 H         1 UNK         0.0600 
    232 H232       -5.4549  -21.4489  -57.5210 H         1 UNK         0.0600 
    233 H233       -6.1324  -20.0627  -58.3711 H         1 UNK         0.0600 
    234 H234       -7.2000  -21.2181  -57.5961 H         1 UNK         0.0600 
    235 H235       -4.9562  -19.2924  -54.0378 H         1 UNK         0.3000 
    236 H236       -3.0480  -18.4000  -53.3458 H         1 UNK         0.0600 
    237 H237       -4.2523  -16.3224  -53.9913 H         1 UNK         0.0600 
    238 H238       -2.5211  -16.1195  -54.2004 H         1 UNK         0.0600 
    239 H239       -3.5446  -16.3870  -55.6045 H         1 UNK         0.0600 
    240 H240       -2.4868  -20.6028  -54.6482 H         1 UNK         0.3000 
    241 H241       -0.9039  -21.8448  -55.4724 H         1 UNK         0.0600 
    242 H242       -2.0173  -20.4335  -58.9695 H         1 UNK         0.3800 
    243 H243       -2.6294  -19.8201  -57.4562 H         1 UNK         0.3800 
    244 H244        1.4211  -21.1709  -55.8135 H         1 UNK         0.0800 
    245 H245        1.0036  -19.4866  -55.8213 H         1 UNK         0.0800 
    246 H246        2.4974  -18.5836  -53.3021 H         1 UNK         0.0800 
    247 H247        1.0170  -18.0575  -54.0599 H         1 UNK         0.0800 
@<TRIPOS>BOND
     1    1    2 1    
     2    1  127 1    
     3    1  128 1    
     4    1  129 1    
     5    2    3 2    
     6    2    4 am   BACKBONE|DICT|INTERRES
     7    4    5 1    
     8    4  130 1    
     9    5    6 1    
    10    5   65 1    
    11    5  131 1    
    12    6    7 1    
    13    6  132 1    
    14    6  133 1    
    15    7    8 1    
    16    8    9 1    
    17    8  134 1    
    18    8  135 1    
    19    9   10 ar   
    20    9   14 ar   
    21   10   11 ar   
    22   10  136 1    
    23   11   12 ar   
    24   11  126 1    
    25   12   13 ar   
    26   12  137 1    
    27   13   14 ar   
    28   13   15 1    
    29   14  138 1    
    30   15   16 1    
    31   15  139 1    
    32   15  140 1    
    33   16   17 1    
    34   17   18 1    
    35   17  141 1    
    36   17  142 1    
    37   18   19 1    
    38   18   67 1    
    39   18  143 1    
    40   19   20 am   BACKBONE|DICT|INTERRES
    41   19  144 1    
    42   20   21 2    
    43   20   22 1    
    44   22   23 1    
    45   22   24 1    
    46   22  145 1    
    47   23  146 1    
    48   23  147 1    
    49   23  148 1    
    50   24   25 am   BACKBONE|DICT|INTERRES
    51   24  149 1    
    52   25   26 2    
    53   25   27 1    
    54   27   28 1    
    55   27   29 1    
    56   27  150 1    
    57   28  151 1    
    58   28  152 1    
    59   28  153 1    
    60   29   30 am   BACKBONE|DICT|INTERRES
    61   29  154 1    
    62   30   31 2    
    63   30   32 1    
    64   32   33 1    
    65   32   34 1    
    66   32  155 1    
    67   33  156 1    
    68   33  157 1    
    69   33  158 1    
    70   34   35 am   BACKBONE|DICT|INTERRES
    71   34  159 1    
    72   35   36 2    
    73   35   37 1    
    74   37   38 1    
    75   37   39 1    
    76   37  160 1    
    77   38  161 1    
    78   38  162 1    
    79   38  163 1    
    80   39   40 am   BACKBONE|DICT|INTERRES
    81   39  164 1    
    82   40   41 2    
    83   40   42 1    
    84   42   43 1    
    85   42   44 1    
    86   42  165 1    
    87   43  166 1    
    88   43  167 1    
    89   43  168 1    
    90   44   45 am   BACKBONE|DICT|INTERRES
    91   44  169 1    
    92   45   46 2    
    93   45   47 1    
    94   47   48 1    
    95   47   49 1    
    96   47  170 1    
    97   48  171 1    
    98   48  172 1    
    99   48  173 1    
   100   49   50 am   BACKBONE|DICT|INTERRES
   101   49  174 1    
   102   50   51 2    
   103   50   52 1    
   104   52   53 1    
   105   52   54 1    
   106   52  175 1    
   107   53  176 1    
   108   53  177 1    
   109   53  178 1    
   110   54   55 am   BACKBONE|DICT|INTERRES
   111   54  179 1    
   112   55   56 2    
   113   55   57 1    
   114   57   58 1    
   115   57   59 1    
   116   57  180 1    
   117   58  181 1    
   118   58  182 1    
   119   58  183 1    
   120   59   60 am   BACKBONE|DICT|INTERRES
   121   59  184 1    
   122   60   61 2    
   123   60   62 1    
   124   62   63 1    
   125   62   64 1    
   126   62  185 1    
   127   63  186 1    
   128   63  187 1    
   129   63  188 1    
   130   64   65 am   BACKBONE|DICT|INTERRES
   131   64  189 1    
   132   65   66 2    
   133   67   68 2    
   134   67   69 am   BACKBONE|DICT|INTERRES
   135   69   70 1    
   136   69  190 1    
   137   70   71 1    
   138   70   72 1    
   139   70  191 1    
   140   71  192 1    
   141   71  193 1    
   142   71  194 1    
   143   72   73 2    
   144   72   74 am   BACKBONE|DICT|INTERRES
   145   74   75 1    
   146   74  195 1    
   147   75   76 1    
   148   75   77 1    
   149   75  196 1    
   150   76  197 1    
   151   76  198 1    
   152   76  199 1    
   153   77   78 2    
   154   77   79 am   BACKBONE|DICT|INTERRES
   155   79   80 1    
   156   79  200 1    
   157   80   81 1    
   158   80   82 1    
   159   80  201 1    
   160   81  202 1    
   161   81  203 1    
   162   81  204 1    
   163   82   83 2    
   164   82   84 am   BACKBONE|DICT|INTERRES
   165   84   85 1    
   166   84  205 1    
   167   85   86 1    
   168   85   87 1    
   169   85  206 1    
   170   86  207 1    
   171   86  208 1    
   172   86  209 1    
   173   87   88 2    
   174   87   89 am   BACKBONE|DICT|INTERRES
   175   89   90 1    
   176   89  210 1    
   177   90   91 1    
   178   90   92 1    
   179   90  211 1    
   180   91  212 1    
   181   91  213 1    
   182   91  214 1    
   183   92   93 2    
   184   92   94 am   BACKBONE|DICT|INTERRES
   185   94   95 1    
   186   94  215 1    
   187   95   96 1    
   188   95   97 1    
   189   95  216 1    
   190   96  217 1    
   191   96  218 1    
   192   96  219 1    
   193   97   98 2    
   194   97   99 am   BACKBONE|DICT|INTERRES
   195   99  100 1    
   196   99  220 1    
   197  100  101 1    
   198  100  102 1    
   199  100  221 1    
   200  101  222 1    
   201  101  223 1    
   202  101  224 1    
   203  102  103 2    
   204  102  104 am   BACKBONE|DICT|INTERRES
   205  104  105 1    
   206  104  225 1    
   207  105  106 1    
   208  105  107 1    
   209  105  226 1    
   210  106  227 1    
   211  106  228 1    
   212  106  229 1    
   213  107  108 2    
   214  107  109 am   BACKBONE|DICT|INTERRES
   215  109  110 1    
   216  109  230 1    
   217  110  111 1    
   218  110  112 1    
   219  110  231 1    
   220  111  232 1    
   221  111  233 1    
   222  111  234 1    
   223  112  113 2    
   224  112  114 am   BACKBONE|DICT|INTERRES
   225  114  115 1    
   226  114  235 1    
   227  115  116 1    
   228  115  117 1    
   229  115  236 1    
   230  116  237 1    
   231  116  238 1    
   232  116  239 1    
   233  117  118 2    
   234  117  119 am   BACKBONE|DICT|INTERRES
   235  119  120 1    
   236  119  240 1    
   237  120  121 1    
   238  120  124 1    
   239  120  241 1    
   240  121  122 am   BACKBONE|DICT|INTERRES
   241  121  123 2    
   242  122  242 1    
   243  122  243 1    
   244  124  125 1    
   245  124  244 1    
   246  124  245 1    
   247  125  126 1    
   248  126  246 1    
   249  126  247 1    
@<TRIPOS>SUBSTRUCTURE
     1 UNK         1 GROUP             0       ****    0 ROOT    
