@<TRIPOS>MOLECULE
3R540
247   249    1
SMALL
USER_CHARGES


@<TRIPOS>ATOM
      1 CA         -4.5684  -13.5108  -50.5631 C.3       0 UNK        -0.1800 
      2 C          -3.1447  -12.9720  -50.5672 C.2       0 UNK         0.5000 
      3 O          -2.9120  -11.8534  -51.0266 O.2       0 UNK        -0.5000 
      4 N          -2.1937  -13.7677  -50.0628 N.am      1 UNK        -0.5000 
      5 CA         -0.7904  -13.3833  -49.8680 C.3       1 UNK         0.1400 
      6 C6          0.1008  -14.6382  -49.6927 C.3       23 UNK        -0.0398 
      7 S7          1.8527  -14.3869  -50.1376 S.3       23 UNK        -0.2404 
      8 C8          2.1669  -15.7489  -51.3227 C.3       23 UNK        -0.0205 
      9 C9          1.9319  -17.1467  -50.7487 C.ar      23 UNK        -0.0193 
     10 C10         1.2182  -18.0963  -51.4897 C.ar      23 UNK        -0.1150 
     11 C11         0.9481  -19.3625  -50.9596 C.ar      23 UNK        -0.0193 
     12 C12         1.4218  -19.6854  -49.6872 C.ar      23 UNK        -0.1150 
     13 C13         2.1753  -18.7679  -48.9515 C.ar      23 UNK        -0.0193 
     14 C14         2.4280  -17.5017  -49.4892 C.ar      23 UNK        -0.1150 
     15 C15         2.6649  -19.1170  -47.5539 C.3       23 UNK        -0.0205 
     16 S16         3.9483  -20.4121  -47.5331 S.3       23 UNK        -0.2404 
     17 C17         2.9617  -21.9494  -47.5742 C.3       23 UNK        -0.0398 
     18 CA          3.5160  -23.0473  -46.6317 C.3       11 UNK         0.1400 
     19 N           3.4179  -22.6672  -45.2160 N.am      11 UNK        -0.5000 
     20 C           4.0652  -23.2783  -44.2132 C.2       10 UNK         0.5000 
     21 O           4.8802  -24.1867  -44.3772 O.2       10 UNK        -0.5000 
     22 CA          3.7111  -22.8274  -42.7857 C.3       10 UNK         0.1400 
     23 CB          4.5143  -21.5795  -42.3859 C.3       10 UNK        -0.1800 
     24 N           2.2786  -22.5594  -42.6453 N.am      10 UNK        -0.5000 
     25 C           1.3429  -23.5034  -42.4698 C.2       9 UNK         0.5000 
     26 O           1.5965  -24.7040  -42.3728 O.2       9 UNK        -0.5000 
     27 CA         -0.1258  -23.0378  -42.4065 C.3       9 UNK         0.1400 
     28 CB         -0.5242  -22.7109  -40.9595 C.3       9 UNK        -0.1800 
     29 N          -0.4019  -21.8731  -43.2456 N.am      9 UNK        -0.5000 
     30 C          -0.3700  -21.8667  -44.5848 C.2       8 UNK         0.5000 
     31 O          -0.1450  -22.8600  -45.2756 O.2       8 UNK        -0.5000 
     32 CA         -0.5754  -20.5028  -45.2669 C.3       8 UNK         0.1400 
     33 CB         -2.0734  -20.2486  -45.4550 C.3       8 UNK        -0.1800 
     34 N           0.0300  -19.3779  -44.5433 N.am      8 UNK        -0.5000 
     35 C           1.3159  -19.3060  -44.1654 C.2       7 UNK         0.5000 
     36 O           2.1380  -20.1916  -44.3953 O.2       7 UNK        -0.5000 
     37 CA          1.7661  -18.0639  -43.3851 C.3       7 UNK         0.1400 
     38 CB          2.3363  -17.0064  -44.3321 C.3       7 UNK        -0.1800 
     39 N           0.6861  -17.4851  -42.5888 N.am      7 UNK        -0.5000 
     40 C           0.3479  -17.9259  -41.3695 C.2       6 UNK         0.5000 
     41 O           0.9397  -18.8293  -40.7778 O.2       6 UNK        -0.5000 
     42 CA         -0.8808  -17.2698  -40.7165 C.3       6 UNK         0.1400 
     43 CB         -0.4996  -15.9492  -40.0307 C.3       6 UNK        -0.1800 
     44 N          -1.9582  -17.0346  -41.6782 N.am      6 UNK        -0.5000 
     45 C          -2.6673  -18.0126  -42.2595 C.2       5 UNK         0.5000 
     46 O          -2.5003  -19.2092  -42.0212 O.2       5 UNK        -0.5000 
     47 CA         -3.7356  -17.5957  -43.2880 C.3       5 UNK         0.1400 
     48 CB         -5.1151  -17.5120  -42.6179 C.3       5 UNK        -0.1800 
     49 N          -3.4652  -16.3334  -43.9772 N.am      5 UNK        -0.5000 
     50 C          -2.4069  -16.0604  -44.7542 C.2       4 UNK         0.5000 
     51 O          -1.4748  -16.8472  -44.9365 O.2       4 UNK        -0.5000 
     52 CA         -2.3986  -14.6789  -45.4506 C.3       4 UNK         0.1400 
     53 CB         -3.5290  -13.7350  -44.9840 C.3       4 UNK        -0.1800 
     54 N          -1.1221  -13.9603  -45.3812 N.am      4 UNK        -0.5000 
     55 C          -0.3335  -13.7566  -44.3144 C.2       3 UNK         0.5000 
     56 O          -0.5274  -14.2671  -43.2099 O.2       3 UNK        -0.5000 
     57 CA          0.8643  -12.7971  -44.4966 C.3       3 UNK         0.1400 
     58 CB          2.2007  -13.4924  -44.2086 C.3       3 UNK        -0.1800 
     59 N           0.9343  -12.2104  -45.8383 N.am      3 UNK        -0.5000 
     60 C           0.5420  -10.9693  -46.1521 C.2       2 UNK         0.5000 
     61 O           0.1007  -10.1609  -45.3342 O.2       2 UNK        -0.5000 
     62 CA          0.6430  -10.5612  -47.6374 C.3       2 UNK         0.1400 
     63 CB          2.0079   -9.9154  -47.9211 C.3       2 UNK        -0.1800 
     64 N           0.4167  -11.6420  -48.6073 N.am      2 UNK        -0.5000 
     65 C          -0.6763  -12.4142  -48.6690 C.2       1 UNK         0.5000 
     66 O          -1.5657  -12.3947  -47.8151 O.2       1 UNK        -0.5000 
     67 C           2.8231  -24.3982  -46.9302 C.2       11 UNK         0.5000 
     68 O           3.1369  -25.0163  -47.9480 O.2       11 UNK        -0.5000 
     69 N           1.8926  -24.8156  -46.0563 N.am      12 UNK        -0.5000 
     70 CA          1.0010  -25.9750  -46.1744 C.3       12 UNK         0.1400 
     71 CB          1.7958  -27.2972  -46.1530 C.3       12 UNK        -0.1800 
     72 C           0.0534  -25.8420  -47.3851 C.2       12 UNK         0.5000 
     73 O          -0.1340  -26.7926  -48.1474 O.2       12 UNK        -0.5000 
     74 N          -0.4991  -24.6346  -47.5500 N.am      13 UNK        -0.5000 
     75 CA         -1.3886  -24.2567  -48.6435 C.3       13 UNK         0.1400 
     76 CB         -1.3547  -22.7281  -48.7714 C.3       13 UNK        -0.1800 
     77 C          -2.8247  -24.7716  -48.4212 C.2       13 UNK         0.5000 
     78 O          -3.2199  -25.0457  -47.2855 O.2       13 UNK        -0.5000 
     79 N          -3.5871  -24.8819  -49.5163 N.am      14 UNK        -0.5000 
     80 CA         -4.9517  -25.4229  -49.5363 C.3       14 UNK         0.1400 
     81 CB         -5.2554  -25.9299  -50.9560 C.3       14 UNK        -0.1800 
     82 C          -6.0397  -24.4308  -49.0700 C.2       14 UNK         0.5000 
     83 O          -7.1894  -24.8369  -48.8950 O.2       14 UNK        -0.5000 
     84 N          -5.6740  -23.1591  -48.8867 N.am      15 UNK        -0.5000 
     85 CA         -6.5200  -22.0582  -48.4329 C.3       15 UNK         0.1400 
     86 CB         -7.4233  -21.5643  -49.5821 C.3       15 UNK        -0.1800 
     87 C          -5.6016  -20.9605  -47.8663 C.2       15 UNK         0.5000 
     88 O          -4.4012  -21.2014  -47.7198 O.2       15 UNK        -0.5000 
     89 N          -6.1509  -19.7761  -47.5645 N.am      16 UNK        -0.5000 
     90 CA         -5.4713  -18.6337  -46.9322 C.3       16 UNK         0.1400 
     91 CB         -6.5378  -17.6846  -46.3561 C.3       16 UNK        -0.1800 
     92 C          -4.4404  -17.8942  -47.8241 C.2       16 UNK         0.5000 
     93 O          -4.4124  -16.6618  -47.8427 O.2       16 UNK        -0.5000 
     94 N          -3.5891  -18.6704  -48.5053 N.am      17 UNK        -0.5000 
     95 CA         -2.4732  -18.2849  -49.3717 C.3       17 UNK         0.1400 
     96 CB         -1.4394  -17.4735  -48.5701 C.3       17 UNK        -0.1800 
     97 C          -2.8908  -17.5931  -50.6934 C.2       17 UNK         0.5000 
     98 O          -4.0550  -17.2432  -50.8882 O.2       17 UNK        -0.5000 
     99 N          -1.9120  -17.4587  -51.6000 N.am      18 UNK        -0.5000 
    100 CA        -2.0232  -16.9806  -52.9849 C.3       18 UNK         0.1400 
    101 CB        -2.4029  -15.4861  -53.0408 C.3       18 UNK        -0.1800 
    102 C         -2.8836  -17.9004  -53.8806 C.2       18 UNK         0.5000 
    103 O         -2.6472  -19.1132  -53.9040 O.2       18 UNK        -0.5000 
    104 N         -3.8049  -17.3105  -54.6556 N.am      19 UNK        -0.5000 
    105 CA        -4.6541  -17.9752  -55.6459 C.3       19 UNK         0.1400 
    106 CB        -5.5284  -16.9226  -56.3439 C.3       19 UNK        -0.1800 
    107 C         -5.5284  -19.0812  -55.0310 C.2       19 UNK         0.5000 
    108 O         -6.0656  -18.8975  -53.9372 O.2       19 UNK        -0.5000 
    109 N         -5.6199  -20.2187  -55.7337 N.am      20 UNK        -0.5000 
    110 CA        -6.2877  -21.4788  -55.3669 C.3       20 UNK         0.1400 
    111 CB        -7.7943  -21.2725  -55.1175 C.3       20 UNK        -0.1800 
    112 C         -5.6281  -22.2372  -54.1950 C.2       20 UNK         0.5000 
    113 O         -5.6492  -23.4682  -54.1890 O.2       20 UNK        -0.5000 
    114 N         -5.0386  -21.5047  -53.2431 N.am      21 UNK        -0.5000 
    115 CA        -4.2856  -22.0215  -52.1059 C.3       21 UNK         0.1400 
    116 CB        -3.9812  -20.8611  -51.1564 C.3       21 UNK        -0.1800 
    117 C         -2.9773  -22.7044  -52.5366 C.2       21 UNK         0.5000 
    118 O         -2.6595  -23.7803  -52.0280 O.2       21 UNK        -0.5000 
    119 N         -2.2624  -22.0653  -53.4694 N.am      22 UNK        -0.5000 
    120 CA        -1.0997  -22.6179  -54.1765 C.3       22 UNK         0.1400 
    121 C         -0.8404  -21.9521  -55.5578 C.2       22 UNK         0.5000 
    122 N         -1.3742  -20.7694  -55.8476 N.am      22 UNK        -0.7600 
    123 O         -0.1635  -22.5366  -56.3991 O.2       22 UNK        -0.5000 
    124 C124        0.1769  -22.7371  -53.2938 C.3       23 UNK        -0.0398 
    125 S125        1.1247  -21.1964  -53.0185 S.3       23 UNK        -0.2404 
    126 C126        0.1299  -20.3811  -51.7403 C.3       23 UNK        -0.0205 
    127 H127       -5.2090  -12.8723  -49.9550 H         1 UNK         0.0600 
    128 H128       -4.6172  -14.5233  -50.1598 H         1 UNK         0.0600 
    129 H129       -4.9670  -13.5301  -51.5774 H         1 UNK         0.0600 
    130 H130       -2.4717  -14.6504  -49.6610 H         1 UNK         0.3000 
    131 H131       -0.4691  -12.8516  -50.7665 H         1 UNK         0.0600 
    132 H132        0.0543  -15.0219  -48.6723 H         1 UNK         0.0800 
    133 H133       -0.2800  -15.4300  -50.3365 H         1 UNK         0.0800 
    134 H134        3.2017  -15.6845  -51.6609 H         1 UNK         0.0800 
    135 H135        1.5452  -15.5871  -52.2048 H         1 UNK         0.0800 
    136 H136        0.8742  -17.8525  -52.4838 H         1 UNK         0.1150 
    137 H137        1.2055  -20.6566  -49.2719 H         1 UNK         0.1150 
    138 H138        2.9946  -16.7803  -48.9175 H         1 UNK         0.1150 
    139 H139        3.0805  -18.2296  -47.0779 H         1 UNK         0.0800 
    140 H140        1.8140  -19.4162  -46.9477 H         1 UNK         0.0800 
    141 H141        1.9239  -21.7345  -47.3162 H         1 UNK         0.0800 
    142 H142        2.9568  -22.2952  -48.6099 H         1 UNK         0.0800 
    143 H143        4.5740  -23.1847  -46.8651 H         1 UNK         0.0600 
    144 H144        2.8282  -21.8691  -44.9954 H         1 UNK         0.3000 
    145 H145        3.9856  -23.6331  -42.1013 H         1 UNK         0.0600 
    146 H146        4.2740  -21.2645  -41.3704 H         1 UNK         0.0600 
    147 H147        4.3229  -20.7380  -43.0518 H         1 UNK         0.0600 
    148 H148        5.5854  -21.7822  -42.4187 H         1 UNK         0.0600 
    149 H149        1.9856  -21.6030  -42.7962 H         1 UNK         0.3000 
    150 H150       -0.7504  -23.8621  -42.7572 H         1 UNK         0.0600 
    151 H151       -0.3540  -23.5658  -40.3038 H         1 UNK         0.0600 
    152 H152       -1.5813  -22.4534  -40.8904 H         1 UNK         0.0600 
    153 H153        0.0509  -21.8722  -40.5641 H         1 UNK         0.0600 
    154 H154       -0.6112  -21.0066  -42.7687 H         1 UNK         0.3000 
    155 H155       -0.1130  -20.5516  -46.2536 H         1 UNK         0.0600 
    156 H156       -2.5197  -21.0388  -46.0548 H         1 UNK         0.0600 
    157 H157       -2.2638  -19.3020  -45.9581 H         1 UNK         0.0600 
    158 H158       -2.5988  -20.2458  -44.5016 H         1 UNK         0.0600 
    159 H159       -0.5609  -18.5673  -44.3908 H         1 UNK         0.3000 
    160 H160        2.5748  -18.3760  -42.7203 H         1 UNK         0.0600 
    161 H161        1.5736  -16.5990  -44.9975 H         1 UNK         0.0600 
    162 H162        3.1350  -17.4222  -44.9455 H         1 UNK         0.0600 
    163 H163        2.7759  -16.1917  -43.7605 H         1 UNK         0.0600 
    164 H164        0.1319  -16.7552  -43.0188 H         1 UNK         0.3000 
    165 H165       -1.2542  -17.9520  -39.9496 H         1 UNK         0.0600 
    166 H166       -1.3573  -15.5047  -39.5256 H         1 UNK         0.0600 
    167 H167        0.2727  -16.1113  -39.2777 H         1 UNK         0.0600 
    168 H168       -0.1135  -15.2192  -40.7423 H         1 UNK         0.0600 
    169 H169       -2.1252  -16.0774  -41.9560 H         1 UNK         0.3000 
    170 H170       -3.7820  -18.3734  -44.0487 H         1 UNK         0.0600 
    171 H171       -5.1484  -16.7243  -41.8642 H         1 UNK         0.0600 
    172 H172       -5.9005  -17.3131  -43.3466 H         1 UNK         0.0600 
    173 H173       -5.3665  -18.4509  -42.1224 H         1 UNK         0.0600 
    174 H174       -4.1666  -15.6149  -43.8730 H         1 UNK         0.3000 
    175 H175       -2.5656  -14.8856  -46.5084 H         1 UNK         0.0600 
    176 H176       -3.4477  -13.4980  -43.9223 H         1 UNK         0.0600 
    177 H177       -3.4963  -12.7936  -45.5334 H         1 UNK         0.0600 
    178 H178       -4.5142  -14.1668  -45.1650 H         1 UNK         0.0600 
    179 H179       -0.9045  -13.4356  -46.2200 H         1 UNK         0.3000 
    180 H180        0.7396  -12.0116  -43.7486 H         1 UNK         0.0600 
    181 H181        3.0182  -12.7715  -44.1905 H         1 UNK         0.0600 
    182 H182        2.4339  -14.2355  -44.9706 H         1 UNK         0.0600 
    183 H183        2.1876  -13.9871  -43.2367 H         1 UNK         0.0600 
    184 H184        1.2952  -12.7998  -46.5744 H         1 UNK         0.3000 
    185 H185       -0.1290   -9.8093  -47.8131 H         1 UNK         0.0600 
    186 H186        2.0514   -9.5101  -48.9322 H         1 UNK         0.0600 
    187 H187        2.2017   -9.0903  -47.2342 H         1 UNK         0.0600 
    188 H188        2.8222  -10.6327  -47.8107 H         1 UNK         0.0600 
    189 H189        1.1202  -11.7458  -49.3252 H         1 UNK         0.3000 
    190 H190        1.6736  -24.1901  -45.2922 H         1 UNK         0.3000 
    191 H191        0.3657  -25.9600  -45.2876 H         1 UNK         0.0600 
    192 H192        1.1228  -28.1539  -46.1059 H         1 UNK         0.0600 
    193 H193        2.4486  -27.3488  -45.2816 H         1 UNK         0.0600 
    194 H194        2.4135  -27.4175  -47.0432 H         1 UNK         0.0600 
    195 H195       -0.3501  -23.9398  -46.8230 H         1 UNK         0.3000 
    196 H196       -1.0022  -24.6893  -49.5691 H         1 UNK         0.0600 
    197 H197       -1.8421  -22.4109  -49.6893 H         1 UNK         0.0600 
    198 H198       -0.3306  -22.3592  -48.8087 H         1 UNK         0.0600 
    199 H199       -1.8561  -22.2406  -47.9362 H         1 UNK         0.0600 
    200 H200       -3.1974  -24.6155  -50.4181 H         1 UNK         0.3000 
    201 H201       -4.9924  -26.2799  -48.8607 H         1 UNK         0.0600 
    202 H202       -4.5299  -26.6806  -51.2698 H         1 UNK         0.0600 
    203 H203       -5.2375  -25.1225  -51.6884 H         1 UNK         0.0600 
    204 H204       -6.2413  -26.3937  -51.0054 H         1 UNK         0.0600 
    205 H205       -4.6911  -22.9247  -48.9333 H         1 UNK         0.3000 
    206 H206       -7.1451  -22.4108  -47.6104 H         1 UNK         0.0600 
    207 H207       -8.0648  -22.3652  -49.9496 H         1 UNK         0.0600 
    208 H208       -8.0823  -20.7592  -49.2569 H         1 UNK         0.0600 
    209 H209       -6.8451  -21.1964  -50.4280 H         1 UNK         0.0600 
    210 H210       -7.1339  -19.6449  -47.7532 H         1 UNK         0.3000 
    211 H211       -4.9037  -19.0262  -46.0868 H         1 UNK         0.0600 
    212 H212       -7.1583  -17.2557  -47.1438 H         1 UNK         0.0600 
    213 H213       -6.0790  -16.8575  -45.8127 H         1 UNK         0.0600 
    214 H214       -7.1923  -18.2035  -45.6556 H         1 UNK         0.0600 
    215 H215       -3.7227  -19.6715  -48.3826 H         1 UNK         0.3000 
    216 H216       -1.9945  -19.2242  -49.6511 H         1 UNK         0.0600 
    217 H217       -0.5092  -17.3716  -49.1233 H         1 UNK         0.0600 
    218 H218       -1.1864  -17.9679  -47.6324 H         1 UNK         0.0600 
    219 H219       -1.8043  -16.4757  -48.3297 H         1 UNK         0.0600 
    220 H220       -0.9946  -17.7977  -51.3481 H         1 UNK         0.3000 
    221 H221       -1.0218  -17.0542  -53.4077 H         1 UNK         0.0600 
    222 H222       -3.3927  -15.2984  -52.6256 H         1 UNK         0.0600 
    223 H223       -1.6813  -14.8887  -52.4863 H         1 UNK         0.0600 
    224 H224       -2.3908  -15.1068  -54.0632 H         1 UNK         0.0600 
    225 H225       -3.9463  -16.3175  -54.5483 H         1 UNK         0.3000 
    226 H226       -3.9934  -18.4238  -56.3905 H         1 UNK         0.0600 
    227 H227       -4.9185  -16.1663  -56.8385 H         1 UNK         0.0600 
    228 H228       -6.1582  -17.3810  -57.1075 H         1 UNK         0.0600 
    229 H229       -6.1865  -16.4151  -55.6372 H         1 UNK         0.0600 
    230 H230       -5.1183  -20.2606  -56.6103 H         1 UNK         0.3000 
    231 H231       -6.1896  -22.1241  -56.2413 H         1 UNK         0.0600 
    232 H232       -8.2982  -22.2302  -54.9819 H         1 UNK         0.0600 
    233 H233       -8.2693  -20.7720  -55.9612 H         1 UNK         0.0600 
    234 H234       -7.9847  -20.6791  -54.2230 H         1 UNK         0.0600 
    235 H235       -5.1261  -20.4961  -53.3161 H         1 UNK         0.3000 
    236 H236       -4.9133  -22.7482  -51.5893 H         1 UNK         0.0600 
    237 H237       -3.2070  -20.2174  -51.5675 H         1 UNK         0.0600 
    238 H238       -4.8564  -20.2400  -50.9690 H         1 UNK         0.0600 
    239 H239       -3.6270  -21.2265  -50.1970 H         1 UNK         0.0600 
    240 H240       -2.5914  -21.1645  -53.7948 H         1 UNK         0.3000 
    241 H241       -1.3864  -23.6400  -54.4328 H         1 UNK         0.0600 
    242 H242       -1.1932  -20.3742  -56.7563 H         1 UNK         0.3800 
    243 H243       -1.8534  -20.2078  -55.1511 H         1 UNK         0.3800 
    244 H244        0.8621  -23.4419  -53.7669 H         1 UNK         0.0800 
    245 H245       -0.0610  -23.1853  -52.3288 H         1 UNK         0.0800 
    246 H246       -0.7224  -19.8989  -52.2161 H         1 UNK         0.0800 
    247 H247       -0.2806  -21.1308  -51.0643 H         1 UNK         0.0800 
@<TRIPOS>BOND
     1    1    2 1    
     2    1  127 1    
     3    1  128 1    
     4    1  129 1    
     5    2    3 2    
     6    2    4 am   BACKBONE|DICT|INTERRES
     7    4    5 1    
     8    4  130 1    
     9    5    6 1    
    10    5   65 1    
    11    5  131 1    
    12    6    7 1    
    13    6  132 1    
    14    6  133 1    
    15    7    8 1    
    16    8    9 1    
    17    8  134 1    
    18    8  135 1    
    19    9   10 ar   
    20    9   14 ar   
    21   10   11 ar   
    22   10  136 1    
    23   11   12 ar   
    24   11  126 1    
    25   12   13 ar   
    26   12  137 1    
    27   13   14 ar   
    28   13   15 1    
    29   14  138 1    
    30   15   16 1    
    31   15  139 1    
    32   15  140 1    
    33   16   17 1    
    34   17   18 1    
    35   17  141 1    
    36   17  142 1    
    37   18   19 1    
    38   18   67 1    
    39   18  143 1    
    40   19   20 am   BACKBONE|DICT|INTERRES
    41   19  144 1    
    42   20   21 2    
    43   20   22 1    
    44   22   23 1    
    45   22   24 1    
    46   22  145 1    
    47   23  146 1    
    48   23  147 1    
    49   23  148 1    
    50   24   25 am   BACKBONE|DICT|INTERRES
    51   24  149 1    
    52   25   26 2    
    53   25   27 1    
    54   27   28 1    
    55   27   29 1    
    56   27  150 1    
    57   28  151 1    
    58   28  152 1    
    59   28  153 1    
    60   29   30 am   BACKBONE|DICT|INTERRES
    61   29  154 1    
    62   30   31 2    
    63   30   32 1    
    64   32   33 1    
    65   32   34 1    
    66   32  155 1    
    67   33  156 1    
    68   33  157 1    
    69   33  158 1    
    70   34   35 am   BACKBONE|DICT|INTERRES
    71   34  159 1    
    72   35   36 2    
    73   35   37 1    
    74   37   38 1    
    75   37   39 1    
    76   37  160 1    
    77   38  161 1    
    78   38  162 1    
    79   38  163 1    
    80   39   40 am   BACKBONE|DICT|INTERRES
    81   39  164 1    
    82   40   41 2    
    83   40   42 1    
    84   42   43 1    
    85   42   44 1    
    86   42  165 1    
    87   43  166 1    
    88   43  167 1    
    89   43  168 1    
    90   44   45 am   BACKBONE|DICT|INTERRES
    91   44  169 1    
    92   45   46 2    
    93   45   47 1    
    94   47   48 1    
    95   47   49 1    
    96   47  170 1    
    97   48  171 1    
    98   48  172 1    
    99   48  173 1    
   100   49   50 am   BACKBONE|DICT|INTERRES
   101   49  174 1    
   102   50   51 2    
   103   50   52 1    
   104   52   53 1    
   105   52   54 1    
   106   52  175 1    
   107   53  176 1    
   108   53  177 1    
   109   53  178 1    
   110   54   55 am   BACKBONE|DICT|INTERRES
   111   54  179 1    
   112   55   56 2    
   113   55   57 1    
   114   57   58 1    
   115   57   59 1    
   116   57  180 1    
   117   58  181 1    
   118   58  182 1    
   119   58  183 1    
   120   59   60 am   BACKBONE|DICT|INTERRES
   121   59  184 1    
   122   60   61 2    
   123   60   62 1    
   124   62   63 1    
   125   62   64 1    
   126   62  185 1    
   127   63  186 1    
   128   63  187 1    
   129   63  188 1    
   130   64   65 am   BACKBONE|DICT|INTERRES
   131   64  189 1    
   132   65   66 2    
   133   67   68 2    
   134   67   69 am   BACKBONE|DICT|INTERRES
   135   69   70 1    
   136   69  190 1    
   137   70   71 1    
   138   70   72 1    
   139   70  191 1    
   140   71  192 1    
   141   71  193 1    
   142   71  194 1    
   143   72   73 2    
   144   72   74 am   BACKBONE|DICT|INTERRES
   145   74   75 1    
   146   74  195 1    
   147   75   76 1    
   148   75   77 1    
   149   75  196 1    
   150   76  197 1    
   151   76  198 1    
   152   76  199 1    
   153   77   78 2    
   154   77   79 am   BACKBONE|DICT|INTERRES
   155   79   80 1    
   156   79  200 1    
   157   80   81 1    
   158   80   82 1    
   159   80  201 1    
   160   81  202 1    
   161   81  203 1    
   162   81  204 1    
   163   82   83 2    
   164   82   84 am   BACKBONE|DICT|INTERRES
   165   84   85 1    
   166   84  205 1    
   167   85   86 1    
   168   85   87 1    
   169   85  206 1    
   170   86  207 1    
   171   86  208 1    
   172   86  209 1    
   173   87   88 2    
   174   87   89 am   BACKBONE|DICT|INTERRES
   175   89   90 1    
   176   89  210 1    
   177   90   91 1    
   178   90   92 1    
   179   90  211 1    
   180   91  212 1    
   181   91  213 1    
   182   91  214 1    
   183   92   93 2    
   184   92   94 am   BACKBONE|DICT|INTERRES
   185   94   95 1    
   186   94  215 1    
   187   95   96 1    
   188   95   97 1    
   189   95  216 1    
   190   96  217 1    
   191   96  218 1    
   192   96  219 1    
   193   97   98 2    
   194   97   99 am   BACKBONE|DICT|INTERRES
   195   99  100 1    
   196   99  220 1    
   197  100  101 1    
   198  100  102 1    
   199  100  221 1    
   200  101  222 1    
   201  101  223 1    
   202  101  224 1    
   203  102  103 2    
   204  102  104 am   BACKBONE|DICT|INTERRES
   205  104  105 1    
   206  104  225 1    
   207  105  106 1    
   208  105  107 1    
   209  105  226 1    
   210  106  227 1    
   211  106  228 1    
   212  106  229 1    
   213  107  108 2    
   214  107  109 am   BACKBONE|DICT|INTERRES
   215  109  110 1    
   216  109  230 1    
   217  110  111 1    
   218  110  112 1    
   219  110  231 1    
   220  111  232 1    
   221  111  233 1    
   222  111  234 1    
   223  112  113 2    
   224  112  114 am   BACKBONE|DICT|INTERRES
   225  114  115 1    
   226  114  235 1    
   227  115  116 1    
   228  115  117 1    
   229  115  236 1    
   230  116  237 1    
   231  116  238 1    
   232  116  239 1    
   233  117  118 2    
   234  117  119 am   BACKBONE|DICT|INTERRES
   235  119  120 1    
   236  119  240 1    
   237  120  121 1    
   238  120  124 1    
   239  120  241 1    
   240  121  122 am   BACKBONE|DICT|INTERRES
   241  121  123 2    
   242  122  242 1    
   243  122  243 1    
   244  124  125 1    
   245  124  244 1    
   246  124  245 1    
   247  125  126 1    
   248  126  246 1    
   249  126  247 1    
@<TRIPOS>SUBSTRUCTURE
     1 UNK         1 GROUP             0       ****    0 ROOT    
