@<TRIPOS>MOLECULE
3R540
247   249    1
SMALL
USER_CHARGES


@<TRIPOS>ATOM
      1 CA         -4.1281  -15.3681  -46.1226 C.3       0 UNK        -0.1800 
      2 C          -3.0456  -14.3837  -46.5445 C.2       0 UNK         0.5000 
      3 O          -3.3607  -13.3072  -47.0521 O.2       0 UNK        -0.5000 
      4 N          -1.7750  -14.7536  -46.3468 N.am      1 UNK        -0.5000 
      5 CA         -0.5981  -13.9363  -46.6542 C.3       1 UNK         0.1400 
      6 C6          0.7187  -14.7436  -46.5495 C.3       23 UNK        -0.0398 
      7 S7          0.7455  -16.1977  -47.6445 S.3       23 UNK        -0.2404 
      8 C8          1.9956  -15.7096  -48.8691 C.3       23 UNK        -0.0205 
      9 C9          2.3792  -16.9008  -49.7275 C.ar      23 UNK        -0.0193 
     10 C10         1.8666  -17.0534  -51.0188 C.ar      23 UNK        -0.1150 
     11 C11         2.2036  -18.1744  -51.7853 C.ar      23 UNK        -0.0193 
     12 C12         3.0645  -19.1400  -51.2525 C.ar      23 UNK        -0.1150 
     13 C13         3.5535  -19.0103  -49.9502 C.ar      23 UNK        -0.0193 
     14 C14         3.2265  -17.8779  -49.2034 C.ar      23 UNK        -0.1150 
     15 C15         4.3647  -20.1263  -49.3086 C.3       23 UNK        -0.0205 
     16 S16         3.3576  -21.5997  -48.9053 S.3       23 UNK        -0.2404 
     17 C17         1.6795  -20.9234  -48.6356 C.3       23 UNK        -0.0398 
     18 CA          0.7792  -21.8849  -47.8280 C.3       11 UNK         0.1400 
     19 N           1.1325  -21.9085  -46.4103 N.am      11 UNK        -0.5000 
     20 C           1.3584  -23.0295  -45.7150 C.2       10 UNK         0.5000 
     21 O           1.1749  -24.1651  -46.1556 O.2       10 UNK        -0.5000 
     22 CA          1.9154  -22.8596  -44.2919 C.3       10 UNK         0.1400 
     23 CB          3.3967  -22.4520  -44.3394 C.3       10 UNK        -0.1800 
     24 N           1.1649  -21.8939  -43.4926 N.am      10 UNK        -0.5000 
     25 C          -0.0760  -22.0995  -43.0304 C.2       9 UNK         0.5000 
     26 O          -0.7215  -23.1285  -43.2323 O.2       9 UNK        -0.5000 
     27 CA         -0.7030  -20.9681  -42.1948 C.3       9 UNK         0.1400 
     28 CB         -0.2340  -21.0503  -40.7342 C.3       9 UNK        -0.1800 
     29 N          -0.4144  -19.6352  -42.7216 N.am      9 UNK        -0.5000 
     30 C          -0.8412  -19.1803  -43.9065 C.2       8 UNK         0.5000 
     31 O          -1.5392  -19.8314  -44.6803 O.2       8 UNK        -0.5000 
     32 CA         -0.3750  -17.7750  -44.3187 C.3       8 UNK         0.1400 
     33 CB         -1.1584  -16.6909  -43.5623 C.3       8 UNK        -0.1800 
     34 N           1.0599  -17.5850  -44.1247 N.am      8 UNK        -0.5000 
     35 C           2.0112  -18.3047  -44.7392 C.2       7 UNK         0.5000 
     36 O           1.7843  -19.1865  -45.5696 O.2       7 UNK        -0.5000 
     37 CA          3.4585  -18.0249  -44.3031 C.3       7 UNK         0.1400 
     38 CB          4.0161  -16.7809  -45.0134 C.3       7 UNK        -0.1800 
     39 N           3.5639  -17.8553  -42.8526 N.am      7 UNK        -0.5000 
     40 C           3.3440  -18.8304  -41.9576 C.2       6 UNK         0.5000 
     41 O           3.0738  -19.9913  -42.2610 O.2       6 UNK        -0.5000 
     42 CA          3.3802  -18.4246  -40.4736 C.3       6 UNK         0.1400 
     43 CB          4.8276  -18.3451  -39.9656 C.3       6 UNK        -0.1800 
     44 N           2.7083  -17.1474  -40.2325 N.am      6 UNK        -0.5000 
     45 C           1.3945  -16.9364  -40.4003 C.2       5 UNK         0.5000 
     46 O           0.5982  -17.8182  -40.7182 O.2       5 UNK        -0.5000 
     47 CA          0.8969  -15.4885  -40.2304 C.3       5 UNK         0.1400 
     48 CB          0.4798  -15.2283  -38.7755 C.3       5 UNK        -0.1800 
     49 N           1.8985  -14.4986  -40.6346 N.am      5 UNK        -0.5000 
     50 C           2.3255  -14.3278  -41.8919 C.2       4 UNK         0.5000 
     51 O           1.8904  -14.9570  -42.8606 O.2       4 UNK        -0.5000 
     52 CA          3.4912  -13.3527  -42.0808 C.3       4 UNK         0.1400 
     53 CB          4.8285  -14.1087  -41.9395 C.3       4 UNK        -0.1800 
     54 N           3.3852  -12.7318  -43.3963 N.am      4 UNK        -0.5000 
     55 C           4.1044  -11.6845  -43.8176 C.2       3 UNK         0.5000 
     56 O           4.9486  -11.1085  -43.1299 O.2       3 UNK        -0.5000 
     57 CA          3.8312  -11.1875  -45.2484 C.3       3 UNK         0.1400 
     58 CB          4.5349  -12.0903  -46.2748 C.3       3 UNK        -0.1800 
     59 N           2.4085  -11.1039  -45.5803 N.am      3 UNK        -0.5000 
     60 C           1.5166  -10.2858  -44.9998 C.2       2 UNK         0.5000 
     61 O           1.7901   -9.5166  -44.0780 O.2       2 UNK        -0.5000 
     62 CA          0.0788  -10.3139  -45.5589 C.3       2 UNK         0.1400 
     63 CB         -0.1613   -9.1089  -46.4818 C.3       2 UNK        -0.1800 
     64 N          -0.2105  -11.5436  -46.3014 N.am      2 UNK        -0.5000 
     65 C          -0.5143  -12.7116  -45.7229 C.2       1 UNK         0.5000 
     66 O          -0.6653  -12.8558  -44.5080 O.2       1 UNK        -0.5000 
     67 C          -0.7087  -21.5506  -48.0086 C.2       11 UNK         0.5000 
     68 O          -1.4754  -22.4385  -48.3803 O.2       11 UNK        -0.5000 
     69 N          -1.0922  -20.2832  -47.7923 N.am      12 UNK        -0.5000 
     70 CA         -2.3972  -19.7320  -48.1807 C.3       12 UNK         0.1400 
     71 CB         -2.4538  -18.2349  -47.8512 C.3       12 UNK        -0.1800 
     72 C          -3.6172  -20.4619  -47.5912 C.2       12 UNK         0.5000 
     73 O          -4.5970  -20.6660  -48.3051 O.2       12 UNK        -0.5000 
     74 N          -3.5294  -20.8713  -46.3209 N.am      13 UNK        -0.5000 
     75 CA         -4.5710  -21.6194  -45.6162 C.3       13 UNK         0.1400 
     76 CB         -4.2445  -21.6428  -44.1156 C.3       13 UNK        -0.1800 
     77 C          -4.7618  -23.0536  -46.1469 C.2       13 UNK         0.5000 
     78 O          -5.8735  -23.5783  -46.0744 O.2       13 UNK        -0.5000 
     79 N          -3.6860  -23.6599  -46.6663 N.am      14 UNK        -0.5000 
     80 CA         -3.7034  -24.9895  -47.2747 C.3       14 UNK         0.1400 
     81 CB         -2.3130  -25.6302  -47.1373 C.3       14 UNK        -0.1800 
     82 C          -4.1358  -24.9234  -48.7492 C.2       14 UNK         0.5000 
     83 O          -4.9094  -25.7700  -49.1971 O.2       14 UNK        -0.5000 
     84 N          -3.6281  -23.9155  -49.4702 N.am      15 UNK        -0.5000 
     85 CA         -3.9286  -23.6360  -50.8717 C.3       15 UNK         0.1400 
     86 CB         -2.9549  -22.5654  -51.3760 C.3       15 UNK        -0.1800 
     87 C          -5.3865  -23.1977  -51.0909 C.2       15 UNK         0.5000 
     88 O          -6.0435  -23.7031  -52.0033 O.2       15 UNK        -0.5000 
     89 N          -5.8598  -22.2698  -50.2456 N.am      16 UNK        -0.5000 
     90 CA         -7.2237  -21.7360  -50.1616 C.3       16 UNK         0.1400 
     91 CB         -8.1696  -22.8220  -49.6092 C.3       16 UNK        -0.1800 
     92 C          -7.7534  -21.1088  -51.4706 C.2       16 UNK         0.5000 
     93 O          -8.9693  -21.0398  -51.6594 O.2       16 UNK        -0.5000 
     94 N          -6.8393  -20.6925  -52.3616 N.am      17 UNK        -0.5000 
     95 CA         -7.0768  -20.2522  -53.7406 C.3       17 UNK         0.1400 
     96 CB         -7.7926  -18.8859  -53.7557 C.3       17 UNK        -0.1800 
     97 C          -7.7896  -21.3148  -54.6154 C.2       17 UNK         0.5000 
     98 O          -8.4742  -20.9499  -55.5738 O.2       17 UNK        -0.5000 
     99 N          -7.6411  -22.6014  -54.2648 N.am      18 UNK        -0.5000 
    100 CA        -8.3553  -23.7243  -54.8699 C.3       18 UNK         0.1400 
    101 CB        -9.4752  -24.1830  -53.9208 C.3       18 UNK        -0.1800 
    102 C         -7.4054  -24.8818  -55.2079 C.2       18 UNK         0.5000 
    103 O         -7.3808  -25.3259  -56.3566 O.2       18 UNK        -0.5000 
    104 N         -6.6345  -25.3501  -54.2164 N.am      19 UNK        -0.5000 
    105 CA        -5.6357  -26.4122  -54.3804 C.3       19 UNK         0.1400 
    106 CB        -5.3599  -27.0637  -53.0168 C.3       19 UNK        -0.1800 
    107 C         -4.3338  -25.8869  -55.0147 C.2       19 UNK         0.5000 
    108 O         -3.6252  -26.6413  -55.6819 O.2       19 UNK        -0.5000 
    109 N         -4.0713  -24.5931  -54.8196 N.am      20 UNK        -0.5000 
    110 CA        -3.0535  -23.7890  -55.4777 C.3       20 UNK         0.1400 
    111 CB        -1.7022  -23.9362  -54.7569 C.3       20 UNK        -0.1800 
    112 C         -3.5646  -22.3409  -55.4695 C.2       20 UNK         0.5000 
    113 O         -4.5259  -22.0406  -54.7580 O.2       20 UNK        -0.5000 
    114 N         -2.9292  -21.4679  -56.2586 N.am      21 UNK        -0.5000 
    115 CA        -3.3413  -20.0719  -56.4473 C.3       21 UNK         0.1400 
    116 CB        -2.5696  -19.4899  -57.6423 C.3       21 UNK        -0.1800 
    117 C         -3.1663  -19.1707  -55.2064 C.2       21 UNK         0.5000 
    118 O         -3.7778  -18.1029  -55.1515 O.2       21 UNK        -0.5000 
    119 N         -2.3215  -19.5945  -54.2590 N.am      22 UNK        -0.5000 
    120 CA        -1.9982  -18.8749  -53.0182 C.3       22 UNK         0.1400 
    121 C         -3.2176  -18.7082  -52.0660 C.2       22 UNK         0.5000 
    122 N         -3.2768  -17.6194  -51.3118 N.am      22 UNK        -0.7600 
    123 O         -4.0858  -19.5722  -51.9706 O.2       22 UNK        -0.5000 
    124 C124       -0.8068  -19.5256  -52.2664 C.3       23 UNK        -0.0398 
    125 S125        0.6328  -19.8740  -53.3390 S.3       23 UNK        -0.2404 
    126 C126        1.6241  -18.3520  -53.1813 C.3       23 UNK        -0.0205 
    127 H127       -4.7369  -15.6468  -46.9828 H         1 UNK         0.0600 
    128 H128       -4.7787  -14.9123  -45.3763 H         1 UNK         0.0600 
    129 H129       -3.7089  -16.2788  -45.6957 H         1 UNK         0.0600 
    130 H130       -1.5786  -15.6461  -45.9236 H         1 UNK         0.3000 
    131 H131       -0.7018  -13.5864  -47.6837 H         1 UNK         0.0600 
    132 H132        1.5762  -14.1095  -46.7799 H         1 UNK         0.0800 
    133 H133        0.8764  -15.0932  -45.5280 H         1 UNK         0.0800 
    134 H134        2.8849  -15.3311  -48.3627 H         1 UNK         0.0800 
    135 H135        1.6093  -14.8943  -49.4825 H         1 UNK         0.0800 
    136 H136        1.1962  -16.3065  -51.4200 H         1 UNK         0.1150 
    137 H137        3.3088  -20.0201  -51.8308 H         1 UNK         0.1150 
    138 H138        3.5906  -17.7795  -48.1914 H         1 UNK         0.1150 
    139 H139        5.1745  -20.4200  -49.9778 H         1 UNK         0.0800 
    140 H140        4.8405  -19.7719  -48.3928 H         1 UNK         0.0800 
    141 H141        1.2516  -20.7283  -49.6213 H         1 UNK         0.0800 
    142 H142        1.7481  -19.9601  -48.1296 H         1 UNK         0.0800 
    143 H143        0.9124  -22.8780  -48.2632 H         1 UNK         0.0600 
    144 H144        1.3045  -21.0070  -45.9724 H         1 UNK         0.3000 
    145 H145        1.8533  -23.8296  -43.7939 H         1 UNK         0.0600 
    146 H146        3.8341  -22.4418  -43.3411 H         1 UNK         0.0600 
    147 H147        3.9769  -23.1527  -44.9410 H         1 UNK         0.0600 
    148 H148        3.5282  -21.4597  -44.7727 H         1 UNK         0.0600 
    149 H149        1.6515  -21.0415  -43.2343 H         1 UNK         0.3000 
    150 H150       -1.7860  -21.1046  -42.2101 H         1 UNK         0.0600 
    151 H151       -0.4476  -22.0315  -40.3086 H         1 UNK         0.0600 
    152 H152       -0.7412  -20.3096  -40.1158 H         1 UNK         0.0600 
    153 H153        0.8396  -20.8790  -40.6469 H         1 UNK         0.0600 
    154 H154        0.1211  -19.0146  -42.1202 H         1 UNK         0.3000 
    155 H155       -0.5707  -17.6583  -45.3843 H         1 UNK         0.0600 
    156 H156       -2.2201  -16.7381  -43.8047 H         1 UNK         0.0600 
    157 H157       -0.8060  -15.6900  -43.8105 H         1 UNK         0.0600 
    158 H158       -1.0730  -16.8088  -42.4832 H         1 UNK         0.0600 
    159 H159        1.3431  -16.8534  -43.4823 H         1 UNK         0.3000 
    160 H160        4.0668  -18.8848  -44.5912 H         1 UNK         0.0600 
    161 H161        3.4554  -15.8805  -44.7638 H         1 UNK         0.0600 
    162 H162        3.9716  -16.8977  -46.0958 H         1 UNK         0.0600 
    163 H163        5.0596  -16.6102  -44.7490 H         1 UNK         0.0600 
    164 H164        3.7378  -16.9209  -42.5168 H         1 UNK         0.3000 
    165 H165        2.8585  -19.1963  -39.9033 H         1 UNK         0.0600 
    166 H166        4.8588  -18.1327  -38.8968 H         1 UNK         0.0600 
    167 H167        5.3480  -19.2908  -40.1231 H         1 UNK         0.0600 
    168 H168        5.3955  -17.5682  -40.4792 H         1 UNK         0.0600 
    169 H169        3.2884  -16.3707  -39.9539 H         1 UNK         0.3000 
    170 H170        0.0183  -15.3604  -40.8658 H         1 UNK         0.0600 
    171 H171       -0.2832  -15.9396  -38.4560 H         1 UNK         0.0600 
    172 H172        1.3232  -15.3216  -38.0903 H         1 UNK         0.0600 
    173 H173        0.0598  -14.2292  -38.6584 H         1 UNK         0.0600 
    174 H174        2.3090  -13.9466  -39.8951 H         1 UNK         0.3000 
    175 H175        3.4257  -12.5735  -41.3185 H         1 UNK         0.0600 
    176 H176        4.9569  -14.8477  -42.7310 H         1 UNK         0.0600 
    177 H177        5.6801  -13.4301  -41.9791 H         1 UNK         0.0600 
    178 H178        4.8872  -14.6336  -40.9853 H         1 UNK         0.0600 
    179 H179        2.6830  -13.1412  -43.9981 H         1 UNK         0.3000 
    180 H180        4.2512  -10.1832  -45.3351 H         1 UNK         0.0600 
    181 H181        4.1344  -13.1050  -46.2644 H         1 UNK         0.0600 
    182 H182        5.6034  -12.1584  -46.0663 H         1 UNK         0.0600 
    183 H183        4.4279  -11.6971  -47.2859 H         1 UNK         0.0600 
    184 H184        2.0923  -11.6765  -46.3466 H         1 UNK         0.3000 
    185 H185       -0.6077  -10.2361  -44.7129 H         1 UNK         0.0600 
    186 H186        0.0155   -8.1709  -45.9538 H         1 UNK         0.0600 
    187 H187        0.4995   -9.1265  -47.3494 H         1 UNK         0.0600 
    188 H188       -1.1899   -9.0875  -46.8426 H         1 UNK         0.0600 
    189 H189       -0.1315  -11.4907  -47.3072 H         1 UNK         0.3000 
    190 H190       -0.4198  -19.6263  -47.4236 H         1 UNK         0.3000 
    191 H191       -2.4666  -19.8295  -49.2654 H         1 UNK         0.0600 
    192 H192       -1.6721  -17.6868  -48.3754 H         1 UNK         0.0600 
    193 H193       -2.3449  -18.0561  -46.7829 H         1 UNK         0.0600 
    194 H194       -3.4075  -17.8039  -48.1580 H         1 UNK         0.0600 
    195 H195       -2.7016  -20.6171  -45.7821 H         1 UNK         0.3000 
    196 H196       -5.5161  -21.0892  -45.7510 H         1 UNK         0.0600 
    197 H197       -5.0232  -22.1587  -43.5526 H         1 UNK         0.0600 
    198 H198       -4.1646  -20.6331  -43.7123 H         1 UNK         0.0600 
    199 H199       -3.3025  -22.1569  -43.9219 H         1 UNK         0.0600 
    200 H200       -2.8237  -23.1363  -46.7437 H         1 UNK         0.3000 
    201 H201       -4.4168  -25.6216  -46.7415 H         1 UNK         0.0600 
    202 H202       -2.0215  -25.7170  -46.0903 H         1 UNK         0.0600 
    203 H203       -1.5438  -25.0502  -47.6484 H         1 UNK         0.0600 
    204 H204       -2.3032  -26.6344  -47.5627 H         1 UNK         0.0600 
    205 H205       -2.9514  -23.3000  -49.0243 H         1 UNK         0.3000 
    206 H206       -3.7591  -24.5466  -51.4479 H         1 UNK         0.0600 
    207 H207       -1.9284  -22.9319  -51.3705 H         1 UNK         0.0600 
    208 H208       -3.1944  -22.2573  -52.3934 H         1 UNK         0.0600 
    209 H209       -2.9909  -21.6749  -50.7494 H         1 UNK         0.0600 
    210 H210       -5.2206  -21.8693  -49.5623 H         1 UNK         0.3000 
    211 H211       -7.1863  -20.9253  -49.4330 H         1 UNK         0.0600 
    212 H212       -8.2982  -23.6409  -50.3179 H         1 UNK         0.0600 
    213 H213       -9.1580  -22.4140  -49.3952 H         1 UNK         0.0600 
    214 H214       -7.7855  -23.2413  -48.6789 H         1 UNK         0.0600 
    215 H215       -5.8605  -20.7318  -52.0951 H         1 UNK         0.3000 
    216 H216       -6.0923  -20.0990  -54.1817 H         1 UNK         0.0600 
    217 H217       -7.8361  -18.4780  -54.7661 H         1 UNK         0.0600 
    218 H218       -7.2635  -18.1597  -53.1384 H         1 UNK         0.0600 
    219 H219       -8.8162  -18.9596  -53.3875 H         1 UNK         0.0600 
    220 H220       -7.0308  -22.8189  -53.4832 H         1 UNK         0.3000 
    221 H221       -8.8181  -23.4147  -55.8092 H         1 UNK         0.0600 
    222 H222       -9.0847  -24.4714  -52.9439 H         1 UNK         0.0600 
    223 H223      -10.2040  -23.3876  -53.7635 H         1 UNK         0.0600 
    224 H224      -10.0108  -25.0404  -54.3303 H         1 UNK         0.0600 
    225 H225       -6.6619  -24.8969  -53.3066 H         1 UNK         0.3000 
    226 H226       -6.0402  -27.1797  -55.0438 H         1 UNK         0.0600 
    227 H227       -6.2663  -27.5051  -52.6024 H         1 UNK         0.0600 
    228 H228       -4.6214  -27.8614  -53.1064 H         1 UNK         0.0600 
    229 H229       -4.9802  -26.3444  -52.2921 H         1 UNK         0.0600 
    230 H230       -4.7403  -24.0348  -54.3014 H         1 UNK         0.3000 
    231 H231       -2.9551  -24.1101  -56.5167 H         1 UNK         0.0600 
    232 H232       -1.3521  -24.9680  -54.7875 H         1 UNK         0.0600 
    233 H233       -1.7651  -23.6403  -53.7114 H         1 UNK         0.0600 
    234 H234       -0.9342  -23.3213  -55.2272 H         1 UNK         0.0600 
    235 H235       -2.1427  -21.7820  -56.8088 H         1 UNK         0.3000 
    236 H236       -4.4048  -20.0682  -56.6962 H         1 UNK         0.0600 
    237 H237       -2.8729  -18.4612  -57.8417 H         1 UNK         0.0600 
    238 H238       -1.4939  -19.4854  -57.4615 H         1 UNK         0.0600 
    239 H239       -2.7566  -20.0627  -58.5509 H         1 UNK         0.0600 
    240 H240       -1.8628  -20.4826  -54.3892 H         1 UNK         0.3000 
    241 H241       -1.6854  -17.8736  -53.3205 H         1 UNK         0.0600 
    242 H242       -4.0658  -17.5058  -50.6968 H         1 UNK         0.3800 
    243 H243       -2.5865  -16.8883  -51.3733 H         1 UNK         0.3800 
    244 H244       -0.4933  -18.8982  -51.4305 H         1 UNK         0.0800 
    245 H245       -1.1114  -20.4744  -51.8246 H         1 UNK         0.0800 
    246 H246        1.0106  -17.4955  -53.4649 H         1 UNK         0.0800 
    247 H247        2.4449  -18.3923  -53.8984 H         1 UNK         0.0800 
@<TRIPOS>BOND
     1    1    2 1    
     2    1  127 1    
     3    1  128 1    
     4    1  129 1    
     5    2    3 2    
     6    2    4 am   BACKBONE|DICT|INTERRES
     7    4    5 1    
     8    4  130 1    
     9    5    6 1    
    10    5   65 1    
    11    5  131 1    
    12    6    7 1    
    13    6  132 1    
    14    6  133 1    
    15    7    8 1    
    16    8    9 1    
    17    8  134 1    
    18    8  135 1    
    19    9   10 ar   
    20    9   14 ar   
    21   10   11 ar   
    22   10  136 1    
    23   11   12 ar   
    24   11  126 1    
    25   12   13 ar   
    26   12  137 1    
    27   13   14 ar   
    28   13   15 1    
    29   14  138 1    
    30   15   16 1    
    31   15  139 1    
    32   15  140 1    
    33   16   17 1    
    34   17   18 1    
    35   17  141 1    
    36   17  142 1    
    37   18   19 1    
    38   18   67 1    
    39   18  143 1    
    40   19   20 am   BACKBONE|DICT|INTERRES
    41   19  144 1    
    42   20   21 2    
    43   20   22 1    
    44   22   23 1    
    45   22   24 1    
    46   22  145 1    
    47   23  146 1    
    48   23  147 1    
    49   23  148 1    
    50   24   25 am   BACKBONE|DICT|INTERRES
    51   24  149 1    
    52   25   26 2    
    53   25   27 1    
    54   27   28 1    
    55   27   29 1    
    56   27  150 1    
    57   28  151 1    
    58   28  152 1    
    59   28  153 1    
    60   29   30 am   BACKBONE|DICT|INTERRES
    61   29  154 1    
    62   30   31 2    
    63   30   32 1    
    64   32   33 1    
    65   32   34 1    
    66   32  155 1    
    67   33  156 1    
    68   33  157 1    
    69   33  158 1    
    70   34   35 am   BACKBONE|DICT|INTERRES
    71   34  159 1    
    72   35   36 2    
    73   35   37 1    
    74   37   38 1    
    75   37   39 1    
    76   37  160 1    
    77   38  161 1    
    78   38  162 1    
    79   38  163 1    
    80   39   40 am   BACKBONE|DICT|INTERRES
    81   39  164 1    
    82   40   41 2    
    83   40   42 1    
    84   42   43 1    
    85   42   44 1    
    86   42  165 1    
    87   43  166 1    
    88   43  167 1    
    89   43  168 1    
    90   44   45 am   BACKBONE|DICT|INTERRES
    91   44  169 1    
    92   45   46 2    
    93   45   47 1    
    94   47   48 1    
    95   47   49 1    
    96   47  170 1    
    97   48  171 1    
    98   48  172 1    
    99   48  173 1    
   100   49   50 am   BACKBONE|DICT|INTERRES
   101   49  174 1    
   102   50   51 2    
   103   50   52 1    
   104   52   53 1    
   105   52   54 1    
   106   52  175 1    
   107   53  176 1    
   108   53  177 1    
   109   53  178 1    
   110   54   55 am   BACKBONE|DICT|INTERRES
   111   54  179 1    
   112   55   56 2    
   113   55   57 1    
   114   57   58 1    
   115   57   59 1    
   116   57  180 1    
   117   58  181 1    
   118   58  182 1    
   119   58  183 1    
   120   59   60 am   BACKBONE|DICT|INTERRES
   121   59  184 1    
   122   60   61 2    
   123   60   62 1    
   124   62   63 1    
   125   62   64 1    
   126   62  185 1    
   127   63  186 1    
   128   63  187 1    
   129   63  188 1    
   130   64   65 am   BACKBONE|DICT|INTERRES
   131   64  189 1    
   132   65   66 2    
   133   67   68 2    
   134   67   69 am   BACKBONE|DICT|INTERRES
   135   69   70 1    
   136   69  190 1    
   137   70   71 1    
   138   70   72 1    
   139   70  191 1    
   140   71  192 1    
   141   71  193 1    
   142   71  194 1    
   143   72   73 2    
   144   72   74 am   BACKBONE|DICT|INTERRES
   145   74   75 1    
   146   74  195 1    
   147   75   76 1    
   148   75   77 1    
   149   75  196 1    
   150   76  197 1    
   151   76  198 1    
   152   76  199 1    
   153   77   78 2    
   154   77   79 am   BACKBONE|DICT|INTERRES
   155   79   80 1    
   156   79  200 1    
   157   80   81 1    
   158   80   82 1    
   159   80  201 1    
   160   81  202 1    
   161   81  203 1    
   162   81  204 1    
   163   82   83 2    
   164   82   84 am   BACKBONE|DICT|INTERRES
   165   84   85 1    
   166   84  205 1    
   167   85   86 1    
   168   85   87 1    
   169   85  206 1    
   170   86  207 1    
   171   86  208 1    
   172   86  209 1    
   173   87   88 2    
   174   87   89 am   BACKBONE|DICT|INTERRES
   175   89   90 1    
   176   89  210 1    
   177   90   91 1    
   178   90   92 1    
   179   90  211 1    
   180   91  212 1    
   181   91  213 1    
   182   91  214 1    
   183   92   93 2    
   184   92   94 am   BACKBONE|DICT|INTERRES
   185   94   95 1    
   186   94  215 1    
   187   95   96 1    
   188   95   97 1    
   189   95  216 1    
   190   96  217 1    
   191   96  218 1    
   192   96  219 1    
   193   97   98 2    
   194   97   99 am   BACKBONE|DICT|INTERRES
   195   99  100 1    
   196   99  220 1    
   197  100  101 1    
   198  100  102 1    
   199  100  221 1    
   200  101  222 1    
   201  101  223 1    
   202  101  224 1    
   203  102  103 2    
   204  102  104 am   BACKBONE|DICT|INTERRES
   205  104  105 1    
   206  104  225 1    
   207  105  106 1    
   208  105  107 1    
   209  105  226 1    
   210  106  227 1    
   211  106  228 1    
   212  106  229 1    
   213  107  108 2    
   214  107  109 am   BACKBONE|DICT|INTERRES
   215  109  110 1    
   216  109  230 1    
   217  110  111 1    
   218  110  112 1    
   219  110  231 1    
   220  111  232 1    
   221  111  233 1    
   222  111  234 1    
   223  112  113 2    
   224  112  114 am   BACKBONE|DICT|INTERRES
   225  114  115 1    
   226  114  235 1    
   227  115  116 1    
   228  115  117 1    
   229  115  236 1    
   230  116  237 1    
   231  116  238 1    
   232  116  239 1    
   233  117  118 2    
   234  117  119 am   BACKBONE|DICT|INTERRES
   235  119  120 1    
   236  119  240 1    
   237  120  121 1    
   238  120  124 1    
   239  120  241 1    
   240  121  122 am   BACKBONE|DICT|INTERRES
   241  121  123 2    
   242  122  242 1    
   243  122  243 1    
   244  124  125 1    
   245  124  244 1    
   246  124  245 1    
   247  125  126 1    
   248  126  246 1    
   249  126  247 1    
@<TRIPOS>SUBSTRUCTURE
     1 UNK         1 GROUP             0       ****    0 ROOT    
