@<TRIPOS>MOLECULE
3R540
247   249    1
SMALL
USER_CHARGES


@<TRIPOS>ATOM
      1 CA         -4.0802  -14.6257  -45.2300 C.3       0 UNK        -0.1800 
      2 C          -3.3424  -13.2939  -45.2661 C.2       0 UNK         0.5000 
      3 O          -3.9064  -12.2702  -44.8794 O.2       0 UNK        -0.5000 
      4 N          -2.0917  -13.3021  -45.7414 N.am      1 UNK        -0.5000 
      5 CA         -1.2254  -12.1265  -45.8552 C.3       1 UNK         0.1400 
      6 C6         -0.0033  -12.3812  -46.7747 C.3       23 UNK        -0.0398 
      7 S7         -0.4700  -13.0098  -48.4242 S.3       23 UNK        -0.2404 
      8 C8          0.1505  -14.7181  -48.3243 C.3       23 UNK        -0.0205 
      9 C9         -0.6867  -15.6692  -49.1618 C.ar      23 UNK        -0.0193 
     10 C10        -0.2188  -16.1455  -50.3902 C.ar      23 UNK        -0.1150 
     11 C11        -0.9835  -17.0463  -51.1394 C.ar      23 UNK        -0.0193 
     12 C12        -2.2263  -17.4632  -50.6519 C.ar      23 UNK        -0.1150 
     13 C13        -2.7063  -16.9874  -49.4281 C.ar      23 UNK        -0.0193 
     14 C14        -1.9295  -16.0946  -48.6871 C.ar      23 UNK        -0.1150 
     15 C15        -4.0593  -17.4389  -48.8966 C.3       23 UNK        -0.0205 
     16 S16        -4.1515  -19.2393  -48.6459 S.3       23 UNK        -0.2404 
     17 C17        -2.7878  -19.5313  -47.4695 C.3       23 UNK        -0.0398 
     18 CA         -2.4475  -21.0301  -47.2716 C.3       11 UNK         0.1400 
     19 N          -1.1598  -21.2016  -46.5916 N.am      11 UNK        -0.5000 
     20 C          -0.5500  -22.3705  -46.3469 C.2       10 UNK         0.5000 
     21 O          -0.9844  -23.4612  -46.7122 O.2       10 UNK        -0.5000 
     22 CA          0.7347  -22.3211  -45.4985 C.3       10 UNK         0.1400 
     23 CB          1.9530  -21.9787  -46.3678 C.3       10 UNK        -0.1800 
     24 N           0.6374  -21.3828  -44.3777 N.am      10 UNK        -0.5000 
     25 C          -0.2413  -21.5002  -43.3706 C.2       9 UNK         0.5000 
     26 O          -1.0277  -22.4398  -43.2589 O.2       9 UNK        -0.5000 
     27 CA         -0.2957  -20.3506  -42.3494 C.3       9 UNK         0.1400 
     28 CB          0.8402  -20.4690  -41.3227 C.3       9 UNK        -0.1800 
     29 N          -0.2544  -19.0356  -42.9886 N.am      9 UNK        -0.5000 
     30 C          -1.1950  -18.5653  -43.8203 C.2       8 UNK         0.5000 
     31 O          -2.2335  -19.1705  -44.0881 O.2       8 UNK        -0.5000 
     32 CA         -0.8979  -17.2183  -44.5084 C.3       8 UNK         0.1400 
     33 CB         -1.1825  -16.0477  -43.5568 C.3       8 UNK        -0.1800 
     34 N           0.4808  -17.1346  -44.9973 N.am      8 UNK        -0.5000 
     35 C           1.0008  -17.9431  -45.9329 C.2       7 UNK         0.5000 
     36 O           0.3450  -18.7839  -46.5438 O.2       7 UNK        -0.5000 
     37 CA          2.5146  -17.8461  -46.1841 C.3       7 UNK         0.1400 
     38 CB          2.8430  -16.7730  -47.2307 C.3       7 UNK        -0.1800 
     39 N           3.2497  -17.5824  -44.9482 N.am      7 UNK        -0.5000 
     40 C           3.4515  -18.4964  -43.9885 C.2       6 UNK         0.5000 
     41 O           3.0798  -19.6668  -44.0748 O.2       6 UNK        -0.5000 
     42 CA          4.1454  -18.0104  -42.7015 C.3       6 UNK         0.1400 
     43 CB          5.6719  -18.0336  -42.8682 C.3       6 UNK        -0.1800 
     44 N           3.7205  -16.6656  -42.3074 N.am      6 UNK        -0.5000 
     45 C           2.4829  -16.3557  -41.8957 C.2       5 UNK         0.5000 
     46 O           1.5939  -17.1910  -41.7385 O.2       5 UNK        -0.5000 
     47 CA          2.1689  -14.8627  -41.6684 C.3       5 UNK         0.1400 
     48 CB          2.4018  -14.4802  -40.1998 C.3       5 UNK        -0.1800 
     49 N           2.9299  -13.9533  -42.5307 N.am      5 UNK        -0.5000 
     50 C           2.8960  -13.9572  -43.8695 C.2       4 UNK         0.5000 
     51 O           2.2274  -14.7504  -44.5350 O.2       4 UNK        -0.5000 
     52 CA          3.7459  -12.8848  -44.5600 C.3       4 UNK         0.1400 
     53 CB          3.9416  -13.1385  -46.0675 C.3       4 UNK        -0.1800 
     54 N           3.1223  -11.5826  -44.3471 N.am      4 UNK        -0.5000 
     55 C           3.7887  -10.4274  -44.2226 C.2       3 UNK         0.5000 
     56 O           5.0183  -10.3528  -44.2336 O.2       3 UNK        -0.5000 
     57 CA          2.9658   -9.1295  -44.0855 C.3       3 UNK         0.1400 
     58 CB          3.1627   -8.2383  -45.3230 C.3       3 UNK        -0.1800 
     59 N           1.5314   -9.3611  -43.9108 N.am      3 UNK        -0.5000 
     60 C           0.9260   -9.6187  -42.7438 C.2       2 UNK         0.5000 
     61 O           1.5166   -9.6899  -41.6660 O.2       2 UNK        -0.5000 
     62 CA         -0.5976   -9.8522  -42.8007 C.3       2 UNK         0.1400 
     63 CB         -1.3536   -8.5369  -42.5593 C.3       2 UNK        -0.1800 
     64 N          -1.0411  -10.4370  -44.0717 N.am      2 UNK        -0.5000 
     65 C          -0.7466  -11.6844  -44.4591 C.2       1 UNK         0.5000 
     66 O          -0.0851  -12.4659  -43.7746 O.2       1 UNK        -0.5000 
     67 C          -3.5888  -21.7847  -46.5569 C.2       11 UNK         0.5000 
     68 O          -4.3890  -22.4467  -47.2182 O.2       11 UNK        -0.5000 
     69 N          -3.6250  -21.6902  -45.2208 N.am      12 UNK        -0.5000 
     70 CA         -4.5863  -22.3966  -44.3774 C.3       12 UNK         0.1400 
     71 CB         -4.5741  -21.7777  -42.9710 C.3       12 UNK        -0.1800 
     72 C          -4.3246  -23.9140  -44.3119 C.2       12 UNK         0.5000 
     73 O          -5.2787  -24.6928  -44.3300 O.2       12 UNK        -0.5000 
     74 N          -3.0470  -24.3036  -44.2109 N.am      13 UNK        -0.5000 
     75 CA         -2.6157  -25.6897  -44.0411 C.3       13 UNK         0.1400 
     76 CB         -1.1715  -25.7124  -43.5160 C.3       13 UNK        -0.1800 
     77 C          -2.7371  -26.5409  -45.3174 C.2       13 UNK         0.5000 
     78 O          -3.2344  -27.6662  -45.2450 O.2       13 UNK        -0.5000 
     79 N          -2.2451  -26.0209  -46.4488 N.am      14 UNK        -0.5000 
     80 CA         -2.1668  -26.7505  -47.7133 C.3       14 UNK         0.1400 
     81 CB         -1.1064  -26.0978  -48.6107 C.3       14 UNK        -0.1800 
     82 C          -3.5188  -26.8061  -48.4419 C.2       14 UNK         0.5000 
     83 O          -4.2693  -25.8270  -48.4321 O.2       14 UNK        -0.5000 
     84 N          -3.7753  -27.9366  -49.1139 N.am      15 UNK        -0.5000 
     85 CA         -4.9331  -28.1536  -49.9818 C.3       15 UNK         0.1400 
     86 CB         -4.9419  -29.6123  -50.4640 C.3       15 UNK        -0.1800 
     87 C          -4.9096  -27.1798  -51.1725 C.2       15 UNK         0.5000 
     88 O          -3.9218  -27.1478  -51.9112 O.2       15 UNK        -0.5000 
     89 N          -5.9647  -26.3605  -51.2881 N.am      16 UNK        -0.5000 
     90 CA         -6.1242  -25.2621  -52.2514 C.3       16 UNK         0.1400 
     91 CB         -6.3303  -25.8186  -53.6756 C.3       16 UNK        -0.1800 
     92 C          -4.9833  -24.2216  -52.1878 C.2       16 UNK         0.5000 
     93 O          -4.6488  -23.6168  -53.2073 O.2       16 UNK        -0.5000 
     94 N          -4.3723  -24.0625  -51.0027 N.am      17 UNK        -0.5000 
     95 CA         -3.2016  -23.2261  -50.7137 C.3       17 UNK         0.1400 
     96 CB         -3.5168  -21.7424  -50.9990 C.3       17 UNK        -0.1800 
     97 C          -1.9137  -23.6675  -51.4437 C.2       17 UNK         0.5000 
     98 O          -0.9644  -22.8851  -51.4972 O.2       17 UNK        -0.5000 
     99 N          -1.9082  -24.8724  -52.0394 N.am      18 UNK        -0.5000 
    100 CA        -0.9105  -25.4550  -52.9523 C.3       18 UNK         0.1400 
    101 CB         0.4620  -25.6188  -52.2720 C.3       18 UNK        -0.1800 
    102 C         -0.7714  -24.7140  -54.3012 C.2       18 UNK         0.5000 
    103 O         -0.6578  -25.3602  -55.3425 O.2       18 UNK        -0.5000 
    104 N         -0.8032  -23.3782  -54.2630 N.am      19 UNK        -0.5000 
    105 CA        -0.6788  -22.4554  -55.3900 C.3       19 UNK         0.1400 
    106 CB        -0.1425  -21.1194  -54.8451 C.3       19 UNK        -0.1800 
    107 C         -1.9892  -22.2422  -56.1793 C.2       19 UNK         0.5000 
    108 O         -2.0200  -21.3641  -57.0412 O.2       19 UNK        -0.5000 
    109 N         -3.0450  -23.0097  -55.8645 N.am      20 UNK        -0.5000 
    110 CA        -4.4007  -22.9376  -56.4246 C.3       20 UNK         0.1400 
    111 CB        -4.4072  -23.2521  -57.9353 C.3       20 UNK        -0.1800 
    112 C         -5.0674  -21.5945  -56.0742 C.2       20 UNK         0.5000 
    113 O         -5.3551  -20.7809  -56.9549 O.2       20 UNK        -0.5000 
    114 N         -5.2276  -21.3708  -54.7620 N.am      21 UNK        -0.5000 
    115 CA        -5.7673  -20.1675  -54.1144 C.3       21 UNK         0.1400 
    116 CB        -7.2727  -20.0226  -54.4163 C.3       21 UNK        -0.1800 
    117 C         -4.9658  -18.8866  -54.4382 C.2       21 UNK         0.5000 
    118 O         -5.5237  -17.7883  -54.4338 O.2       21 UNK        -0.5000 
    119 N         -3.6684  -19.0617  -54.7229 N.am      22 UNK        -0.5000 
    120 CA        -2.7334  -18.0343  -55.2073 C.3       22 UNK         0.1400 
    121 C         -2.9901  -17.5601  -56.6728 C.2       22 UNK         0.5000 
    122 N         -3.8048  -18.2476  -57.4659 N.am      22 UNK        -0.7600 
    123 O         -2.4227  -16.5646  -57.1144 O.2       22 UNK        -0.5000 
    124 C124       -2.5511  -16.8608  -54.1953 C.3       23 UNK        -0.0398 
    125 S125       -0.7963  -16.4868  -53.8622 S.3       23 UNK        -0.2404 
    126 C126       -0.4495  -17.5929  -52.4562 C.3       23 UNK        -0.0205 
    127 H127       -4.3890  -14.8562  -44.2104 H         1 UNK         0.0600 
    128 H128       -4.9728  -14.5761  -45.8536 H         1 UNK         0.0600 
    129 H129       -3.4609  -15.4462  -45.5914 H         1 UNK         0.0600 
    130 H130       -1.6735  -14.1718  -46.0304 H         1 UNK         0.3000 
    131 H131       -1.8135  -11.3198  -46.2984 H         1 UNK         0.0600 
    132 H132        0.5575  -11.4563  -46.9200 H         1 UNK         0.0800 
    133 H133        0.6907  -13.0796  -46.3046 H         1 UNK         0.0800 
    134 H134        0.1425  -15.0693  -47.2915 H         1 UNK         0.0800 
    135 H135        1.1917  -14.7306  -48.6486 H         1 UNK         0.0800 
    136 H136        0.7443  -15.8236  -50.7607 H         1 UNK         0.1150 
    137 H137       -2.8188  -18.1700  -51.2155 H         1 UNK         0.1150 
    138 H138       -2.2910  -15.7272  -47.7384 H         1 UNK         0.1150 
    139 H139       -4.2959  -16.9407  -47.9552 H         1 UNK         0.0800 
    140 H140       -4.8337  -17.1416  -49.6048 H         1 UNK         0.0800 
    141 H141       -3.0346  -19.0495  -46.5239 H         1 UNK         0.0800 
    142 H142       -1.9060  -19.0179  -47.8518 H         1 UNK         0.0800 
    143 H143       -2.3267  -21.4805  -48.2572 H         1 UNK         0.0600 
    144 H144       -0.6862  -20.3465  -46.3118 H         1 UNK         0.3000 
    145 H145        0.8924  -23.3168  -45.0793 H         1 UNK         0.0600 
    146 H146        2.8711  -21.9793  -45.7799 H         1 UNK         0.0600 
    147 H147        2.0771  -22.7104  -47.1670 H         1 UNK         0.0600 
    148 H148        1.8541  -20.9996  -46.8350 H         1 UNK         0.0600 
    149 H149        1.2892  -20.6054  -44.3727 H         1 UNK         0.3000 
    150 H150       -1.2441  -20.4291  -41.8138 H         1 UNK         0.0600 
    151 H151        0.8093  -21.4347  -40.8169 H         1 UNK         0.0600 
    152 H152        0.7598  -19.6975  -40.5568 H         1 UNK         0.0600 
    153 H153        1.8202  -20.3740  -41.7898 H         1 UNK         0.0600 
    154 H154        0.5391  -18.4431  -42.7615 H         1 UNK         0.3000 
    155 H155       -1.5585  -17.1274  -45.3729 H         1 UNK         0.0600 
    156 H156       -0.6533  -16.1547  -42.6113 H         1 UNK         0.0600 
    157 H157       -2.2451  -15.9888  -43.3215 H         1 UNK         0.0600 
    158 H158       -0.8851  -15.0956  -43.9938 H         1 UNK         0.0600 
    159 H159        1.0817  -16.4320  -44.5792 H         1 UNK         0.3000 
    160 H160        2.8471  -18.8066  -46.5825 H         1 UNK         0.0600 
    161 H161        3.9106  -16.7502  -47.4494 H         1 UNK         0.0600 
    162 H162        2.5496  -15.7786  -46.8984 H         1 UNK         0.0600 
    163 H163        2.3234  -16.9749  -48.1683 H         1 UNK         0.0600 
    164 H164        3.5084  -16.6216  -44.7739 H         1 UNK         0.3000 
    165 H165        3.8788  -18.7009  -41.8986 H         1 UNK         0.0600 
    166 H166        6.1740  -17.7628  -41.9391 H         1 UNK         0.0600 
    167 H167        6.0185  -19.0302  -43.1450 H         1 UNK         0.0600 
    168 H168        6.0047  -17.3430  -43.6441 H         1 UNK         0.0600 
    169 H169        4.3974  -15.9231  -42.4016 H         1 UNK         0.3000 
    170 H170        1.1117  -14.7119  -41.8944 H         1 UNK         0.0600 
    171 H171        1.8259  -15.1234  -39.5328 H         1 UNK         0.0600 
    172 H172        3.4521  -14.5735  -39.9209 H         1 UNK         0.0600 
    173 H173        2.0914  -13.4532  -40.0061 H         1 UNK         0.0600 
    174 H174        3.4864  -13.2524  -42.0631 H         1 UNK         0.3000 
    175 H175        4.7285  -12.9092  -44.0840 H         1 UNK         0.0600 
    176 H176        2.9994  -13.1079  -46.6134 H         1 UNK         0.0600 
    177 H177        4.6045  -12.3940  -46.5083 H         1 UNK         0.0600 
    178 H178        4.3924  -14.1159  -46.2427 H         1 UNK         0.0600 
    179 H179        2.1152  -11.5855  -44.2520 H         1 UNK         0.3000 
    180 H180        3.3492   -8.5916  -43.2158 H         1 UNK         0.0600 
    181 H181        2.8082   -8.7268  -46.2315 H         1 UNK         0.0600 
    182 H182        4.2163   -7.9970  -45.4701 H         1 UNK         0.0600 
    183 H183        2.6282   -7.2939  -45.2182 H         1 UNK         0.0600 
    184 H184        0.9625   -9.3111  -44.7428 H         1 UNK         0.3000 
    185 H185       -0.8552  -10.5458  -41.9973 H         1 UNK         0.0600 
    186 H186       -1.0632   -8.0886  -41.6082 H         1 UNK         0.0600 
    187 H187       -1.1510   -7.8052  -43.3424 H         1 UNK         0.0600 
    188 H188       -2.4306   -8.7020  -42.5234 H         1 UNK         0.0600 
    189 H189       -1.6084   -9.8510  -44.6679 H         1 UNK         0.3000 
    190 H190       -2.9472  -21.0997  -44.7521 H         1 UNK         0.3000 
    191 H191       -5.5823  -22.2491  -44.8004 H         1 UNK         0.0600 
    192 H192       -3.5983  -21.8757  -42.4944 H         1 UNK         0.0600 
    193 H193       -5.3060  -22.2634  -42.3245 H         1 UNK         0.0600 
    194 H194       -4.8225  -20.7167  -43.0056 H         1 UNK         0.0600 
    195 H195       -2.3248  -23.5924  -44.1440 H         1 UNK         0.3000 
    196 H196       -3.2500  -26.1483  -43.2794 H         1 UNK         0.0600 
    197 H197       -0.4838  -25.2275  -44.2095 H         1 UNK         0.0600 
    198 H198       -0.8237  -26.7356  -43.3682 H         1 UNK         0.0600 
    199 H199       -1.0935  -25.2011  -42.5563 H         1 UNK         0.0600 
    200 H200       -1.8804  -25.0707  -46.4501 H         1 UNK         0.3000 
    201 H201       -1.8421  -27.7717  -47.5012 H         1 UNK         0.0600 
    202 H202       -1.0148  -26.6359  -49.5541 H         1 UNK         0.0600 
    203 H203       -0.1262  -26.1024  -48.1339 H         1 UNK         0.0600 
    204 H204       -1.3588  -25.0639  -48.8442 H         1 UNK         0.0600 
    205 H205       -3.0895  -28.6772  -49.1003 H         1 UNK         0.3000 
    206 H206       -5.8354  -27.9818  -49.3911 H         1 UNK         0.0600 
    207 H207       -4.9992  -30.3055  -49.6246 H         1 UNK         0.0600 
    208 H208       -5.8037  -29.8054  -51.1041 H         1 UNK         0.0600 
    209 H209       -4.0463  -29.8532  -51.0385 H         1 UNK         0.0600 
    210 H210       -6.7092  -26.4473  -50.6098 H         1 UNK         0.3000 
    211 H211       -7.0335  -24.7308  -51.9675 H         1 UNK         0.0600 
    212 H212       -5.4278  -26.2967  -54.0578 H         1 UNK         0.0600 
    213 H213       -6.5996  -25.0236  -54.3719 H         1 UNK         0.0600 
    214 H214       -7.1349  -26.5533  -53.6995 H         1 UNK         0.0600 
    215 H215       -4.6914  -24.6255  -50.2216 H         1 UNK         0.3000 
    216 H216       -3.0089  -23.3359  -49.6460 H         1 UNK         0.0600 
    217 H217       -3.5770  -21.5334  -52.0669 H         1 UNK         0.0600 
    218 H218       -2.7417  -21.0913  -50.5941 H         1 UNK         0.0600 
    219 H219       -4.4636  -21.4492  -50.5470 H         1 UNK         0.0600 
    220 H220       -2.7454  -25.4378  -51.9412 H         1 UNK         0.3000 
    221 H221       -1.2807  -26.4547  -53.1855 H         1 UNK         0.0600 
    222 H222        0.9046  -24.6603  -52.0006 H         1 UNK         0.0600 
    223 H223        0.3883  -26.2223  -51.3689 H         1 UNK         0.0600 
    224 H224        1.1652  -26.1215  -52.9372 H         1 UNK         0.0600 
    225 H225       -0.8718  -22.9564  -53.3400 H         1 UNK         0.3000 
    226 H226        0.0550  -22.8580  -56.0910 H         1 UNK         0.0600 
    227 H227        0.8090  -21.2578  -54.3314 H         1 UNK         0.0600 
    228 H228        0.0290  -20.4009  -55.6476 H         1 UNK         0.0600 
    229 H229       -0.8392  -20.6675  -54.1383 H         1 UNK         0.0600 
    230 H230       -2.9301  -23.6646  -55.1035 H         1 UNK         0.3000 
    231 H231       -4.9836  -23.7168  -55.9316 H         1 UNK         0.0600 
    232 H232       -3.9428  -24.2171  -58.1377 H         1 UNK         0.0600 
    233 H233       -3.8783  -22.4972  -58.5174 H         1 UNK         0.0600 
    234 H234       -5.4283  -23.2961  -58.3154 H         1 UNK         0.0600 
    235 H235       -4.9518  -22.1231  -54.1307 H         1 UNK         0.3000 
    236 H236       -5.6607  -20.3263  -53.0405 H         1 UNK         0.0600 
    237 H237       -7.7149  -19.2168  -53.8293 H         1 UNK         0.0600 
    238 H238       -7.4544  -19.7990  -55.4680 H         1 UNK         0.0600 
    239 H239       -7.8134  -20.9361  -54.1690 H         1 UNK         0.0600 
    240 H240       -3.3201  -20.0082  -54.7334 H         1 UNK         0.3000 
    241 H241       -1.7870  -18.5702  -55.2771 H         1 UNK         0.0600 
    242 H242       -4.2687  -19.0921  -57.1475 H         1 UNK         0.3800 
    243 H243       -3.9487  -17.9335  -58.4121 H         1 UNK         0.3800 
    244 H244       -3.0399  -15.9510  -54.5476 H         1 UNK         0.0800 
    245 H245       -3.0388  -17.0799  -53.2475 H         1 UNK         0.0800 
    246 H246       -0.8639  -18.5825  -52.6551 H         1 UNK         0.0800 
    247 H247        0.6300  -17.7302  -52.3790 H         1 UNK         0.0800 
@<TRIPOS>BOND
     1    1    2 1    
     2    1  127 1    
     3    1  128 1    
     4    1  129 1    
     5    2    3 2    
     6    2    4 am   BACKBONE|DICT|INTERRES
     7    4    5 1    
     8    4  130 1    
     9    5    6 1    
    10    5   65 1    
    11    5  131 1    
    12    6    7 1    
    13    6  132 1    
    14    6  133 1    
    15    7    8 1    
    16    8    9 1    
    17    8  134 1    
    18    8  135 1    
    19    9   10 ar   
    20    9   14 ar   
    21   10   11 ar   
    22   10  136 1    
    23   11   12 ar   
    24   11  126 1    
    25   12   13 ar   
    26   12  137 1    
    27   13   14 ar   
    28   13   15 1    
    29   14  138 1    
    30   15   16 1    
    31   15  139 1    
    32   15  140 1    
    33   16   17 1    
    34   17   18 1    
    35   17  141 1    
    36   17  142 1    
    37   18   19 1    
    38   18   67 1    
    39   18  143 1    
    40   19   20 am   BACKBONE|DICT|INTERRES
    41   19  144 1    
    42   20   21 2    
    43   20   22 1    
    44   22   23 1    
    45   22   24 1    
    46   22  145 1    
    47   23  146 1    
    48   23  147 1    
    49   23  148 1    
    50   24   25 am   BACKBONE|DICT|INTERRES
    51   24  149 1    
    52   25   26 2    
    53   25   27 1    
    54   27   28 1    
    55   27   29 1    
    56   27  150 1    
    57   28  151 1    
    58   28  152 1    
    59   28  153 1    
    60   29   30 am   BACKBONE|DICT|INTERRES
    61   29  154 1    
    62   30   31 2    
    63   30   32 1    
    64   32   33 1    
    65   32   34 1    
    66   32  155 1    
    67   33  156 1    
    68   33  157 1    
    69   33  158 1    
    70   34   35 am   BACKBONE|DICT|INTERRES
    71   34  159 1    
    72   35   36 2    
    73   35   37 1    
    74   37   38 1    
    75   37   39 1    
    76   37  160 1    
    77   38  161 1    
    78   38  162 1    
    79   38  163 1    
    80   39   40 am   BACKBONE|DICT|INTERRES
    81   39  164 1    
    82   40   41 2    
    83   40   42 1    
    84   42   43 1    
    85   42   44 1    
    86   42  165 1    
    87   43  166 1    
    88   43  167 1    
    89   43  168 1    
    90   44   45 am   BACKBONE|DICT|INTERRES
    91   44  169 1    
    92   45   46 2    
    93   45   47 1    
    94   47   48 1    
    95   47   49 1    
    96   47  170 1    
    97   48  171 1    
    98   48  172 1    
    99   48  173 1    
   100   49   50 am   BACKBONE|DICT|INTERRES
   101   49  174 1    
   102   50   51 2    
   103   50   52 1    
   104   52   53 1    
   105   52   54 1    
   106   52  175 1    
   107   53  176 1    
   108   53  177 1    
   109   53  178 1    
   110   54   55 am   BACKBONE|DICT|INTERRES
   111   54  179 1    
   112   55   56 2    
   113   55   57 1    
   114   57   58 1    
   115   57   59 1    
   116   57  180 1    
   117   58  181 1    
   118   58  182 1    
   119   58  183 1    
   120   59   60 am   BACKBONE|DICT|INTERRES
   121   59  184 1    
   122   60   61 2    
   123   60   62 1    
   124   62   63 1    
   125   62   64 1    
   126   62  185 1    
   127   63  186 1    
   128   63  187 1    
   129   63  188 1    
   130   64   65 am   BACKBONE|DICT|INTERRES
   131   64  189 1    
   132   65   66 2    
   133   67   68 2    
   134   67   69 am   BACKBONE|DICT|INTERRES
   135   69   70 1    
   136   69  190 1    
   137   70   71 1    
   138   70   72 1    
   139   70  191 1    
   140   71  192 1    
   141   71  193 1    
   142   71  194 1    
   143   72   73 2    
   144   72   74 am   BACKBONE|DICT|INTERRES
   145   74   75 1    
   146   74  195 1    
   147   75   76 1    
   148   75   77 1    
   149   75  196 1    
   150   76  197 1    
   151   76  198 1    
   152   76  199 1    
   153   77   78 2    
   154   77   79 am   BACKBONE|DICT|INTERRES
   155   79   80 1    
   156   79  200 1    
   157   80   81 1    
   158   80   82 1    
   159   80  201 1    
   160   81  202 1    
   161   81  203 1    
   162   81  204 1    
   163   82   83 2    
   164   82   84 am   BACKBONE|DICT|INTERRES
   165   84   85 1    
   166   84  205 1    
   167   85   86 1    
   168   85   87 1    
   169   85  206 1    
   170   86  207 1    
   171   86  208 1    
   172   86  209 1    
   173   87   88 2    
   174   87   89 am   BACKBONE|DICT|INTERRES
   175   89   90 1    
   176   89  210 1    
   177   90   91 1    
   178   90   92 1    
   179   90  211 1    
   180   91  212 1    
   181   91  213 1    
   182   91  214 1    
   183   92   93 2    
   184   92   94 am   BACKBONE|DICT|INTERRES
   185   94   95 1    
   186   94  215 1    
   187   95   96 1    
   188   95   97 1    
   189   95  216 1    
   190   96  217 1    
   191   96  218 1    
   192   96  219 1    
   193   97   98 2    
   194   97   99 am   BACKBONE|DICT|INTERRES
   195   99  100 1    
   196   99  220 1    
   197  100  101 1    
   198  100  102 1    
   199  100  221 1    
   200  101  222 1    
   201  101  223 1    
   202  101  224 1    
   203  102  103 2    
   204  102  104 am   BACKBONE|DICT|INTERRES
   205  104  105 1    
   206  104  225 1    
   207  105  106 1    
   208  105  107 1    
   209  105  226 1    
   210  106  227 1    
   211  106  228 1    
   212  106  229 1    
   213  107  108 2    
   214  107  109 am   BACKBONE|DICT|INTERRES
   215  109  110 1    
   216  109  230 1    
   217  110  111 1    
   218  110  112 1    
   219  110  231 1    
   220  111  232 1    
   221  111  233 1    
   222  111  234 1    
   223  112  113 2    
   224  112  114 am   BACKBONE|DICT|INTERRES
   225  114  115 1    
   226  114  235 1    
   227  115  116 1    
   228  115  117 1    
   229  115  236 1    
   230  116  237 1    
   231  116  238 1    
   232  116  239 1    
   233  117  118 2    
   234  117  119 am   BACKBONE|DICT|INTERRES
   235  119  120 1    
   236  119  240 1    
   237  120  121 1    
   238  120  124 1    
   239  120  241 1    
   240  121  122 am   BACKBONE|DICT|INTERRES
   241  121  123 2    
   242  122  242 1    
   243  122  243 1    
   244  124  125 1    
   245  124  244 1    
   246  124  245 1    
   247  125  126 1    
   248  126  246 1    
   249  126  247 1    
@<TRIPOS>SUBSTRUCTURE
     1 UNK         1 GROUP             0       ****    0 ROOT    
