@<TRIPOS>MOLECULE
3R540
247   249    1
SMALL
USER_CHARGES


@<TRIPOS>ATOM
      1 CA         -1.6976  -12.6004  -49.8298 C.3       0 UNK        -0.1800 
      2 C          -1.8922  -12.1591  -48.3809 C.2       0 UNK         0.5000 
      3 O          -2.9735  -11.6794  -48.0473 O.2       0 UNK        -0.5000 
      4 N          -0.9049  -12.2805  -47.4864 N.am      1 UNK        -0.5000 
      5 CA          0.4599  -12.7765  -47.6617 C.3       1 UNK         0.1400 
      6 C6          0.5224  -14.3116  -47.9037 C.3       23 UNK        -0.0398 
      7 S7          2.0586  -14.8639  -48.7249 S.3       23 UNK        -0.2404 
      8 C8          1.5116  -15.2155  -50.4271 C.3       23 UNK        -0.0205 
      9 C9          0.6283  -16.4524  -50.5121 C.ar      23 UNK        -0.0193 
     10 C10        -0.7443  -16.3249  -50.7448 C.ar      23 UNK        -0.1150 
     11 C11        -1.5599  -17.4572  -50.8442 C.ar      23 UNK        -0.0193 
     12 C12        -0.9888  -18.7196  -50.6741 C.ar      23 UNK        -0.1150 
     13 C13         0.3841  -18.8689  -50.4690 C.ar      23 UNK        -0.0193 
     14 C14         1.1892  -17.7277  -50.3917 C.ar      23 UNK        -0.1150 
     15 C15         0.9860  -20.2677  -50.3808 C.3       23 UNK        -0.0205 
     16 S16         2.0210  -20.5217  -48.9046 S.3       23 UNK        -0.2404 
     17 C17         0.8121  -20.3171  -47.5583 C.3       23 UNK        -0.0398 
     18 CA          0.6328  -21.6024  -46.7134 C.3       11 UNK         0.1400 
     19 N           0.3756  -21.2826  -45.3106 N.am      11 UNK        -0.5000 
     20 C           0.5083  -22.1369  -44.2884 C.2       10 UNK         0.5000 
     21 O           0.9318  -23.2857  -44.4074 O.2       10 UNK        -0.5000 
     22 CA          0.0775  -21.6246  -42.9034 C.3       10 UNK         0.1400 
     23 CB          1.2947  -21.1448  -42.0984 C.3       10 UNK        -0.1800 
     24 N          -0.9065  -20.5435  -43.0066 N.am      10 UNK        -0.5000 
     25 C          -2.2151  -20.7506  -43.2112 C.2       9 UNK         0.5000 
     26 O          -2.7219  -21.8697  -43.2964 O.2       9 UNK        -0.5000 
     27 CA         -3.1042  -19.5048  -43.3842 C.3       9 UNK         0.1400 
     28 CB         -3.5733  -18.9860  -42.0176 C.3       9 UNK        -0.1800 
     29 N          -2.4652  -18.4210  -44.1385 N.am      9 UNK        -0.5000 
     30 C          -2.1248  -18.5161  -45.4325 C.2       8 UNK         0.5000 
     31 O          -2.2384  -19.5575  -46.0763 O.2       8 UNK        -0.5000 
     32 CA         -1.5241  -17.2939  -46.1475 C.3       8 UNK         0.1400 
     33 CB         -2.3853  -16.8826  -47.3576 C.3       8 UNK        -0.1800 
     34 N          -1.2027  -16.1683  -45.2664 N.am      8 UNK        -0.5000 
     35 C          -2.0037  -15.2216  -44.7576 C.2       7 UNK         0.5000 
     36 O          -3.2098  -15.1287  -44.9844 O.2       7 UNK        -0.5000 
     37 CA         -1.3036  -14.2305  -43.8016 C.3       7 UNK         0.1400 
     38 CB         -2.2869  -13.3666  -42.9855 C.3       7 UNK        -0.1800 
     39 N          -0.3330  -14.9005  -42.9259 N.am      7 UNK        -0.5000 
     40 C          -0.6038  -15.8819  -42.0497 C.2       6 UNK         0.5000 
     41 O          -1.7387  -16.3050  -41.8308 O.2       6 UNK        -0.5000 
     42 CA          0.6086  -16.5319  -41.3553 C.3       6 UNK         0.1400 
     43 CB          0.2513  -17.8205  -40.5885 C.3       6 UNK        -0.1800 
     44 N           1.7164  -16.7721  -42.2838 N.am      6 UNK        -0.5000 
     45 C           1.7109  -17.5041  -43.4097 C.2       5 UNK         0.5000 
     46 O           0.7390  -18.1550  -43.7981 O.2       5 UNK        -0.5000 
     47 CA          2.9885  -17.4789  -44.2740 C.3       5 UNK         0.1400 
     48 CB          2.6808  -16.9378  -45.6808 C.3       5 UNK        -0.1800 
     49 N           4.0371  -16.6463  -43.6838 N.am      5 UNK        -0.5000 
     50 C           4.9866  -17.0729  -42.8403 C.2       4 UNK         0.5000 
     51 O           5.1476  -18.2532  -42.5305 O.2       4 UNK        -0.5000 
     52 CA          5.8890  -15.9896  -42.2128 C.3       4 UNK         0.1400 
     53 CB          7.1850  -15.8368  -43.0233 C.3       4 UNK        -0.1800 
     54 N           5.2360  -14.6802  -42.1098 N.am      4 UNK        -0.5000 
     55 C           4.1852  -14.4013  -41.3237 C.2       3 UNK         0.5000 
     56 O           3.6779  -15.2141  -40.5525 O.2       3 UNK        -0.5000 
     57 CA          3.5490  -13.0058  -41.4799 C.3       3 UNK         0.1400 
     58 CB          4.1815  -12.0102  -40.4968 C.3       3 UNK        -0.1800 
     59 N           3.6610  -12.4803  -42.8439 N.am      3 UNK        -0.5000 
     60 C           3.0774  -13.0249  -43.9195 C.2       2 UNK         0.5000 
     61 O           2.3313  -14.0076  -43.8661 O.2       2 UNK        -0.5000 
     62 CA          3.4749  -12.4142  -45.2771 C.3       2 UNK         0.1400 
     63 CB          4.8643  -12.9265  -45.6917 C.3       2 UNK        -0.1800 
     64 N           2.5370  -12.7275  -46.3539 N.am      2 UNK        -0.5000 
     65 C           1.2666  -12.3185  -46.4256 C.2       1 UNK         0.5000 
     66 O           0.7340  -11.5988  -45.5742 O.2       1 UNK        -0.5000 
     67 C          -0.4760  -22.5201  -47.2648 C.2       11 UNK         0.5000 
     68 O          -0.1843  -23.6008  -47.7782 O.2       11 UNK        -0.5000 
     69 N          -1.7370  -22.1035  -47.0795 N.am      12 UNK        -0.5000 
     70 CA         -2.9521  -22.8095  -47.4934 C.3       12 UNK         0.1400 
     71 CB         -4.1671  -21.9147  -47.2057 C.3       12 UNK        -0.1800 
     72 C          -3.1337  -24.1911  -46.8366 C.2       12 UNK         0.5000 
     73 O          -3.7880  -25.0567  -47.4162 O.2       12 UNK        -0.5000 
     74 N          -2.5156  -24.4016  -45.6662 N.am      13 UNK        -0.5000 
     75 CA         -2.4571  -25.6944  -44.9809 C.3       13 UNK         0.1400 
     76 CB         -1.8152  -25.5046  -43.5986 C.3       13 UNK        -0.1800 
     77 C          -1.7123  -26.7837  -45.7837 C.2       13 UNK         0.5000 
     78 O          -1.9997  -27.9663  -45.5940 O.2       13 UNK        -0.5000 
     79 N          -0.7928  -26.3722  -46.6685 N.am      14 UNK        -0.5000 
     80 CA         -0.0656  -27.2463  -47.5873 C.3       14 UNK         0.1400 
     81 CB          1.4381  -26.9494  -47.4724 C.3       14 UNK        -0.1800 
     82 C          -0.5396  -27.0545  -49.0388 C.2       14 UNK         0.5000 
     83 O          -0.6971  -28.0396  -49.7605 O.2       14 UNK        -0.5000 
     84 N          -0.7442  -25.7954  -49.4480 N.am      15 UNK        -0.5000 
     85 CA         -1.0303  -25.3967  -50.8282 C.3       15 UNK         0.1400 
     86 CB         -0.5115  -23.9651  -51.0271 C.3       15 UNK        -0.1800 
     87 C          -2.5131  -25.5108  -51.2416 C.2       15 UNK         0.5000 
     88 O          -2.8130  -25.3101  -52.4189 O.2       15 UNK        -0.5000 
     89 N          -3.4015  -25.8328  -50.2914 N.am      16 UNK        -0.5000 
     90 CA         -4.8573  -25.9468  -50.4300 C.3       16 UNK         0.1400 
     91 CB         -5.2559  -26.9862  -51.5039 C.3       16 UNK        -0.1800 
     92 C          -5.5436  -24.5713  -50.5826 C.2       16 UNK         0.5000 
     93 O          -5.0674  -23.5923  -50.0062 O.2       16 UNK        -0.5000 
     94 N          -6.6844  -24.5323  -51.2878 N.am      17 UNK        -0.5000 
     95 CA         -7.5724  -23.3743  -51.4333 C.3       17 UNK         0.1400 
     96 CB         -8.7397  -23.7545  -52.3569 C.3       17 UNK        -0.1800 
     97 C          -6.8639  -22.1170  -51.9681 C.2       17 UNK         0.5000 
     98 O          -6.1157  -22.2117  -52.9429 O.2       17 UNK        -0.5000 
     99 N          -7.1405  -20.9650  -51.3393 N.am      18 UNK        -0.5000 
    100 CA        -6.4806  -19.6747  -51.5706 C.3       18 UNK         0.1400 
    101 CB        -7.1227  -18.6034  -50.6774 C.3       18 UNK        -0.1800 
    102 C         -6.4616  -19.2117  -53.0382 C.2       18 UNK         0.5000 
    103 O         -5.4486  -18.6813  -53.4900 O.2       18 UNK        -0.5000 
    104 N         -7.5573  -19.4702  -53.7645 N.am      19 UNK        -0.5000 
    105 CA        -7.7145  -19.1529  -55.1858 C.3       19 UNK         0.1400 
    106 CB        -9.1647  -19.4427  -55.6022 C.3       19 UNK        -0.1800 
    107 C         -6.7295  -19.8986  -56.1099 C.2       19 UNK         0.5000 
    108 O         -6.3971  -19.3779  -57.1755 O.2       19 UNK        -0.5000 
    109 N         -6.2822  -21.0894  -55.6907 N.am      20 UNK        -0.5000 
    110 CA        -5.2671  -21.8829  -56.3805 C.3       20 UNK         0.1400 
    111 CB        -5.6522  -23.3690  -56.2971 C.3       20 UNK        -0.1800 
    112 C         -3.8730  -21.6555  -55.7714 C.2       20 UNK         0.5000 
    113 O         -2.8860  -21.6388  -56.5075 O.2       20 UNK        -0.5000 
    114 N         -3.8157  -21.5110  -54.4411 N.am      21 UNK        -0.5000 
    115 CA        -2.5867  -21.3971  -53.6625 C.3       21 UNK         0.1400 
    116 CB        -2.9119  -21.6228  -52.1810 C.3       21 UNK        -0.1800 
    117 C         -1.8413  -20.0655  -53.8593 C.2       21 UNK         0.5000 
    118 O         -0.6112  -20.0808  -53.9192 O.2       21 UNK        -0.5000 
    119 N         -2.5771  -18.9467  -53.9415 N.am      22 UNK        -0.5000 
    120 CA        -2.0105  -17.6108  -54.1866 C.3       22 UNK         0.1400 
    121 C         -1.4165  -17.5049  -55.6209 C.2       22 UNK         0.5000 
    122 N         -0.2105  -16.9719  -55.7659 N.am      22 UNK        -0.7600 
    123 O         -2.0609  -17.8537  -56.6074 O.2       22 UNK        -0.5000 
    124 C124       -3.0421  -16.4694  -53.9634 C.3       23 UNK        -0.0398 
    125 S125       -3.5518  -16.0135  -52.2582 S.3       23 UNK        -0.2404 
    126 C126       -3.0579  -17.3557  -51.1220 C.3       23 UNK        -0.0205 
    127 H127       -2.2717  -13.5074  -50.0160 H         1 UNK         0.0600 
    128 H128       -0.6593  -12.7866  -50.0938 H         1 UNK         0.0600 
    129 H129       -2.0694  -11.8282  -50.5032 H         1 UNK         0.0600 
    130 H130       -1.0452  -11.9049  -46.5556 H         1 UNK         0.3000 
    131 H131        0.8916  -12.2547  -48.5177 H         1 UNK         0.0600 
    132 H132       -0.3161  -14.6328  -48.5165 H         1 UNK         0.0800 
    133 H133        0.4193  -14.8560  -46.9662 H         1 UNK         0.0800 
    134 H134        1.0031  -14.3421  -50.8364 H         1 UNK         0.0800 
    135 H135        2.3937  -15.3685  -51.0503 H         1 UNK         0.0800 
    136 H136       -1.1751  -15.3426  -50.8618 H         1 UNK         0.1150 
    137 H137       -1.6179  -19.5931  -50.7274 H         1 UNK         0.1150 
    138 H138        2.2536  -17.8312  -50.2344 H         1 UNK         0.1150 
    139 H139        0.2056  -21.0296  -50.3932 H         1 UNK         0.0800 
    140 H140        1.5935  -20.4391  -51.2703 H         1 UNK         0.0800 
    141 H141        1.2087  -19.5193  -46.9325 H         1 UNK         0.0800 
    142 H142       -0.1381  -19.9380  -47.9384 H         1 UNK         0.0800 
    143 H143        1.5675  -22.1674  -46.7406 H         1 UNK         0.0600 
    144 H144        0.0010  -20.3663  -45.1119 H         1 UNK         0.3000 
    145 H145       -0.3689  -22.4632  -42.3643 H         1 UNK         0.0600 
    146 H146        1.0019  -20.7968  -41.1081 H         1 UNK         0.0600 
    147 H147        2.0094  -21.9565  -41.9571 H         1 UNK         0.0600 
    148 H148        1.8216  -20.3342  -42.6002 H         1 UNK         0.0600 
    149 H149       -0.5467  -19.5950  -43.0201 H         1 UNK         0.3000 
    150 H150       -3.9894  -19.8120  -43.9454 H         1 UNK         0.0600 
    151 H151       -4.1522  -19.7462  -41.4918 H         1 UNK         0.0600 
    152 H152       -4.2093  -18.1069  -42.1234 H         1 UNK         0.0600 
    153 H153       -2.7326  -18.7179  -41.3776 H         1 UNK         0.0600 
    154 H154       -2.3070  -17.5513  -43.6454 H         1 UNK         0.3000 
    155 H155       -0.5633  -17.6261  -46.5419 H         1 UNK         0.0600 
    156 H156       -1.9800  -16.0128  -47.8694 H         1 UNK         0.0600 
    157 H157       -3.4124  -16.6560  -47.0716 H         1 UNK         0.0600 
    158 H158       -2.4297  -17.6952  -48.0825 H         1 UNK         0.0600 
    159 H159       -0.2548  -16.1813  -44.9174 H         1 UNK         0.3000 
    160 H160       -0.7264  -13.5572  -44.4343 H         1 UNK         0.0600 
    161 H161       -1.7540  -12.6748  -42.3333 H         1 UNK         0.0600 
    162 H162       -2.9185  -12.7694  -43.6441 H         1 UNK         0.0600 
    163 H163       -2.9458  -13.9742  -42.3648 H         1 UNK         0.0600 
    164 H164        0.6384  -14.6401  -43.0772 H         1 UNK         0.3000 
    165 H165        0.9671  -15.8041  -40.6264 H         1 UNK         0.0600 
    166 H166       -0.1822  -18.5732  -41.2438 H         1 UNK         0.0600 
    167 H167        1.1315  -18.2541  -40.1141 H         1 UNK         0.0600 
    168 H168       -0.4757  -17.6174  -39.8015 H         1 UNK         0.0600 
    169 H169        2.5729  -16.2896  -42.0444 H         1 UNK         0.3000 
    170 H170        3.3372  -18.5090  -44.3705 H         1 UNK         0.0600 
    171 H171        1.8982  -17.5143  -46.1702 H         1 UNK         0.0600 
    172 H172        2.3463  -15.9015  -45.6539 H         1 UNK         0.0600 
    173 H173        3.5615  -16.9845  -46.3214 H         1 UNK         0.0600 
    174 H174        3.9536  -15.6539  -43.8545 H         1 UNK         0.3000 
    175 H175        6.1494  -16.3194  -41.2048 H         1 UNK         0.0600 
    176 H176        6.9871  -15.4876  -44.0376 H         1 UNK         0.0600 
    177 H177        7.8653  -15.1285  -42.5502 H         1 UNK         0.0600 
    178 H178        7.7119  -16.7889  -43.1007 H         1 UNK         0.0600 
    179 H179        5.5953  -13.9488  -42.7048 H         1 UNK         0.3000 
    180 H180        2.4874  -13.0979  -41.2399 H         1 UNK         0.0600 
    181 H181        5.2422  -11.8594  -40.7009 H         1 UNK         0.0600 
    182 H182        4.0921  -12.3660  -39.4694 H         1 UNK         0.0600 
    183 H183        3.6880  -11.0393  -40.5466 H         1 UNK         0.0600 
    184 H184        4.2608  -11.6768  -42.9659 H         1 UNK         0.3000 
    185 H185        3.5138  -11.3285  -45.1679 H         1 UNK         0.0600 
    186 H186        5.6208  -12.6743  -44.9478 H         1 UNK         0.0600 
    187 H187        4.8729  -14.0106  -45.8154 H         1 UNK         0.0600 
    188 H188        5.1829  -12.4809  -46.6344 H         1 UNK         0.0600 
    189 H189        2.8794  -13.3448  -47.0780 H         1 UNK         0.3000 
    190 H190       -1.8916  -21.1961  -46.6406 H         1 UNK         0.3000 
    191 H191       -2.8871  -22.9683  -48.5713 H         1 UNK         0.0600 
    192 H192       -4.1044  -20.9774  -47.7589 H         1 UNK         0.0600 
    193 H193       -5.0953  -22.4043  -47.5028 H         1 UNK         0.0600 
    194 H194       -4.2451  -21.6744  -46.1445 H         1 UNK         0.0600 
    195 H195       -2.0217  -23.6323  -45.2371 H         1 UNK         0.3000 
    196 H196       -3.4833  -26.0379  -44.8354 H         1 UNK         0.0600 
    197 H197       -1.8327  -26.4356  -43.0306 H         1 UNK         0.0600 
    198 H198       -2.3489  -24.7560  -43.0124 H         1 UNK         0.0600 
    199 H199       -0.7745  -25.1911  -43.6781 H         1 UNK         0.0600 
    200 H200       -0.6269  -25.3775  -46.7682 H         1 UNK         0.3000 
    201 H201       -0.2204  -28.2951  -47.3257 H         1 UNK         0.0600 
    202 H202        1.7998  -27.1437  -46.4626 H         1 UNK         0.0600 
    203 H203        1.6652  -25.9099  -47.7134 H         1 UNK         0.0600 
    204 H204        2.0145  -27.5790  -48.1515 H         1 UNK         0.0600 
    205 H205       -0.5635  -25.0319  -48.7995 H         1 UNK         0.3000 
    206 H206       -0.4668  -26.0472  -51.5003 H         1 UNK         0.0600 
    207 H207        0.5553  -23.8978  -50.8127 H         1 UNK         0.0600 
    208 H208       -0.6562  -23.6306  -52.0549 H         1 UNK         0.0600 
    209 H209       -1.0268  -23.2665  -50.3689 H         1 UNK         0.0600 
    210 H210       -3.0674  -25.8945  -49.3381 H         1 UNK         0.3000 
    211 H211       -5.2029  -26.3356  -49.4714 H         1 UNK         0.0600 
    212 H212       -5.0851  -26.6178  -52.5160 H         1 UNK         0.0600 
    213 H213       -6.3100  -27.2532  -51.4235 H         1 UNK         0.0600 
    214 H214       -4.6868  -27.9085  -51.3857 H         1 UNK         0.0600 
    215 H215       -6.9849  -25.3787  -51.7471 H         1 UNK         0.3000 
    216 H216       -7.9744  -23.1528  -50.4428 H         1 UNK         0.0600 
    217 H217       -9.3033  -24.5976  -51.9569 H         1 UNK         0.0600 
    218 H218       -8.3898  -24.0262  -53.3540 H         1 UNK         0.0600 
    219 H219       -9.4376  -22.9237  -52.4697 H         1 UNK         0.0600 
    220 H220       -7.7893  -20.9890  -50.5660 H         1 UNK         0.3000 
    221 H221       -5.4452  -19.7852  -51.2508 H         1 UNK         0.0600 
    222 H222       -6.6339  -17.6374  -50.8144 H         1 UNK         0.0600 
    223 H223       -8.1814  -18.4715  -50.9036 H         1 UNK         0.0600 
    224 H224       -7.0330  -18.8629  -49.6223 H         1 UNK         0.0600 
    225 H225       -8.3342  -19.9289  -53.3121 H         1 UNK         0.3000 
    226 H226       -7.5299  -18.0837  -55.3087 H         1 UNK         0.0600 
    227 H227       -9.3277  -19.1923  -56.6514 H         1 UNK         0.0600 
    228 H228       -9.4169  -20.4960  -55.4730 H         1 UNK         0.0600 
    229 H229       -9.8697  -18.8530  -55.0160 H         1 UNK         0.0600 
    230 H230       -6.5667  -21.4243  -54.7773 H         1 UNK         0.3000 
    231 H231       -5.2227  -21.6066  -57.4360 H         1 UNK         0.0600 
    232 H232       -4.9198  -23.9910  -56.8131 H         1 UNK         0.0600 
    233 H233       -6.6204  -23.5510  -56.7636 H         1 UNK         0.0600 
    234 H234       -5.7080  -23.7160  -55.2643 H         1 UNK         0.0600 
    235 H235       -4.6751  -21.6097  -53.9069 H         1 UNK         0.3000 
    236 H236       -1.9185  -22.2000  -53.9813 H         1 UNK         0.0600 
    237 H237       -3.3905  -22.5889  -52.0228 H         1 UNK         0.0600 
    238 H238       -2.0052  -21.6064  -51.5810 H         1 UNK         0.0600 
    239 H239       -3.5750  -20.8540  -51.7915 H         1 UNK         0.0600 
    240 H240       -3.5904  -19.0016  -53.8919 H         1 UNK         0.3000 
    241 H241       -1.1876  -17.4641  -53.4871 H         1 UNK         0.0600 
    242 H242        0.1769  -16.8824  -56.6924 H         1 UNK         0.3800 
    243 H243        0.3362  -16.6776  -54.9714 H         1 UNK         0.3800 
    244 H244       -3.9488  -16.6827  -54.5319 H         1 UNK         0.0800 
    245 H245       -2.6558  -15.5413  -54.3892 H         1 UNK         0.0800 
    246 H246       -3.5630  -17.1847  -50.1713 H         1 UNK         0.0800 
    247 H247       -3.4508  -18.2987  -51.4998 H         1 UNK         0.0800 
@<TRIPOS>BOND
     1    1    2 1    
     2    1  127 1    
     3    1  128 1    
     4    1  129 1    
     5    2    3 2    
     6    2    4 am   BACKBONE|DICT|INTERRES
     7    4    5 1    
     8    4  130 1    
     9    5    6 1    
    10    5   65 1    
    11    5  131 1    
    12    6    7 1    
    13    6  132 1    
    14    6  133 1    
    15    7    8 1    
    16    8    9 1    
    17    8  134 1    
    18    8  135 1    
    19    9   10 ar   
    20    9   14 ar   
    21   10   11 ar   
    22   10  136 1    
    23   11   12 ar   
    24   11  126 1    
    25   12   13 ar   
    26   12  137 1    
    27   13   14 ar   
    28   13   15 1    
    29   14  138 1    
    30   15   16 1    
    31   15  139 1    
    32   15  140 1    
    33   16   17 1    
    34   17   18 1    
    35   17  141 1    
    36   17  142 1    
    37   18   19 1    
    38   18   67 1    
    39   18  143 1    
    40   19   20 am   BACKBONE|DICT|INTERRES
    41   19  144 1    
    42   20   21 2    
    43   20   22 1    
    44   22   23 1    
    45   22   24 1    
    46   22  145 1    
    47   23  146 1    
    48   23  147 1    
    49   23  148 1    
    50   24   25 am   BACKBONE|DICT|INTERRES
    51   24  149 1    
    52   25   26 2    
    53   25   27 1    
    54   27   28 1    
    55   27   29 1    
    56   27  150 1    
    57   28  151 1    
    58   28  152 1    
    59   28  153 1    
    60   29   30 am   BACKBONE|DICT|INTERRES
    61   29  154 1    
    62   30   31 2    
    63   30   32 1    
    64   32   33 1    
    65   32   34 1    
    66   32  155 1    
    67   33  156 1    
    68   33  157 1    
    69   33  158 1    
    70   34   35 am   BACKBONE|DICT|INTERRES
    71   34  159 1    
    72   35   36 2    
    73   35   37 1    
    74   37   38 1    
    75   37   39 1    
    76   37  160 1    
    77   38  161 1    
    78   38  162 1    
    79   38  163 1    
    80   39   40 am   BACKBONE|DICT|INTERRES
    81   39  164 1    
    82   40   41 2    
    83   40   42 1    
    84   42   43 1    
    85   42   44 1    
    86   42  165 1    
    87   43  166 1    
    88   43  167 1    
    89   43  168 1    
    90   44   45 am   BACKBONE|DICT|INTERRES
    91   44  169 1    
    92   45   46 2    
    93   45   47 1    
    94   47   48 1    
    95   47   49 1    
    96   47  170 1    
    97   48  171 1    
    98   48  172 1    
    99   48  173 1    
   100   49   50 am   BACKBONE|DICT|INTERRES
   101   49  174 1    
   102   50   51 2    
   103   50   52 1    
   104   52   53 1    
   105   52   54 1    
   106   52  175 1    
   107   53  176 1    
   108   53  177 1    
   109   53  178 1    
   110   54   55 am   BACKBONE|DICT|INTERRES
   111   54  179 1    
   112   55   56 2    
   113   55   57 1    
   114   57   58 1    
   115   57   59 1    
   116   57  180 1    
   117   58  181 1    
   118   58  182 1    
   119   58  183 1    
   120   59   60 am   BACKBONE|DICT|INTERRES
   121   59  184 1    
   122   60   61 2    
   123   60   62 1    
   124   62   63 1    
   125   62   64 1    
   126   62  185 1    
   127   63  186 1    
   128   63  187 1    
   129   63  188 1    
   130   64   65 am   BACKBONE|DICT|INTERRES
   131   64  189 1    
   132   65   66 2    
   133   67   68 2    
   134   67   69 am   BACKBONE|DICT|INTERRES
   135   69   70 1    
   136   69  190 1    
   137   70   71 1    
   138   70   72 1    
   139   70  191 1    
   140   71  192 1    
   141   71  193 1    
   142   71  194 1    
   143   72   73 2    
   144   72   74 am   BACKBONE|DICT|INTERRES
   145   74   75 1    
   146   74  195 1    
   147   75   76 1    
   148   75   77 1    
   149   75  196 1    
   150   76  197 1    
   151   76  198 1    
   152   76  199 1    
   153   77   78 2    
   154   77   79 am   BACKBONE|DICT|INTERRES
   155   79   80 1    
   156   79  200 1    
   157   80   81 1    
   158   80   82 1    
   159   80  201 1    
   160   81  202 1    
   161   81  203 1    
   162   81  204 1    
   163   82   83 2    
   164   82   84 am   BACKBONE|DICT|INTERRES
   165   84   85 1    
   166   84  205 1    
   167   85   86 1    
   168   85   87 1    
   169   85  206 1    
   170   86  207 1    
   171   86  208 1    
   172   86  209 1    
   173   87   88 2    
   174   87   89 am   BACKBONE|DICT|INTERRES
   175   89   90 1    
   176   89  210 1    
   177   90   91 1    
   178   90   92 1    
   179   90  211 1    
   180   91  212 1    
   181   91  213 1    
   182   91  214 1    
   183   92   93 2    
   184   92   94 am   BACKBONE|DICT|INTERRES
   185   94   95 1    
   186   94  215 1    
   187   95   96 1    
   188   95   97 1    
   189   95  216 1    
   190   96  217 1    
   191   96  218 1    
   192   96  219 1    
   193   97   98 2    
   194   97   99 am   BACKBONE|DICT|INTERRES
   195   99  100 1    
   196   99  220 1    
   197  100  101 1    
   198  100  102 1    
   199  100  221 1    
   200  101  222 1    
   201  101  223 1    
   202  101  224 1    
   203  102  103 2    
   204  102  104 am   BACKBONE|DICT|INTERRES
   205  104  105 1    
   206  104  225 1    
   207  105  106 1    
   208  105  107 1    
   209  105  226 1    
   210  106  227 1    
   211  106  228 1    
   212  106  229 1    
   213  107  108 2    
   214  107  109 am   BACKBONE|DICT|INTERRES
   215  109  110 1    
   216  109  230 1    
   217  110  111 1    
   218  110  112 1    
   219  110  231 1    
   220  111  232 1    
   221  111  233 1    
   222  111  234 1    
   223  112  113 2    
   224  112  114 am   BACKBONE|DICT|INTERRES
   225  114  115 1    
   226  114  235 1    
   227  115  116 1    
   228  115  117 1    
   229  115  236 1    
   230  116  237 1    
   231  116  238 1    
   232  116  239 1    
   233  117  118 2    
   234  117  119 am   BACKBONE|DICT|INTERRES
   235  119  120 1    
   236  119  240 1    
   237  120  121 1    
   238  120  124 1    
   239  120  241 1    
   240  121  122 am   BACKBONE|DICT|INTERRES
   241  121  123 2    
   242  122  242 1    
   243  122  243 1    
   244  124  125 1    
   245  124  244 1    
   246  124  245 1    
   247  125  126 1    
   248  126  246 1    
   249  126  247 1    
@<TRIPOS>SUBSTRUCTURE
     1 UNK         1 GROUP             0       ****    0 ROOT    
