@<TRIPOS>MOLECULE
3R540
247   249    1
SMALL
USER_CHARGES


@<TRIPOS>ATOM
      1 CA         -2.6847   -9.8417  -45.8661 C.3       0 UNK        -0.1800 
      2 C          -2.7396  -11.3349  -45.5496 C.2       0 UNK         0.5000 
      3 O          -3.2509  -11.7098  -44.4969 O.2       0 UNK        -0.5000 
      4 N          -2.2391  -12.2245  -46.4186 N.am      1 UNK        -0.5000 
      5 CA         -1.5643  -11.9517  -47.6963 C.3       1 UNK         0.1400 
      6 C6         -1.5341  -13.2098  -48.6040 C.3       23 UNK        -0.0398 
      7 S7         -0.7774  -14.6764  -47.8144 S.3       23 UNK        -0.2404 
      8 C8          0.9063  -14.6619  -48.5061 C.3       23 UNK        -0.0205 
      9 C9          1.0271  -15.6175  -49.6803 C.ar      23 UNK        -0.0193 
     10 C10         0.6048  -15.2301  -50.9558 C.ar      23 UNK        -0.1150 
     11 C11         0.6870  -16.1217  -52.0286 C.ar      23 UNK        -0.0193 
     12 C12         1.2143  -17.3989  -51.8243 C.ar      23 UNK        -0.1150 
     13 C13         1.6459  -17.7937  -50.5563 C.ar      23 UNK        -0.0193 
     14 C14         1.5522  -16.8988  -49.4869 C.ar      23 UNK        -0.1150 
     15 C15         2.1921  -19.1957  -50.3471 C.3       23 UNK        -0.0205 
     16 S16         0.8466  -20.3836  -50.0550 S.3       23 UNK        -0.2404 
     17 C17         0.3794  -19.9685  -48.3411 C.3       23 UNK        -0.0398 
     18 CA         -0.2971  -21.1637  -47.6272 C.3       11 UNK         0.1400 
     19 N           0.0486  -21.2218  -46.2052 N.am      11 UNK        -0.5000 
     20 C           0.0034  -22.3400  -45.4687 C.2       10 UNK         0.5000 
     21 O          -0.2864  -23.4460  -45.9234 O.2       10 UNK        -0.5000 
     22 CA          0.3194  -22.2053  -43.9674 C.3       10 UNK         0.1400 
     23 CB          1.8285  -22.3444  -43.7183 C.3       10 UNK        -0.1800 
     24 N          -0.1644  -20.9532  -43.3823 N.am      10 UNK        -0.5000 
     25 C          -1.4581  -20.6116  -43.2966 C.2       9 UNK         0.5000 
     26 O          -2.3788  -21.3266  -43.6893 O.2       9 UNK        -0.5000 
     27 CA         -1.7806  -19.2236  -42.7175 C.3       9 UNK         0.1400 
     28 CB         -1.7233  -19.2497  -41.1831 C.3       9 UNK        -0.1800 
     29 N          -0.9003  -18.1732  -43.2296 N.am      9 UNK        -0.5000 
     30 C          -0.8123  -17.8106  -44.5180 C.2       8 UNK         0.5000 
     31 O          -1.4822  -18.3156  -45.4188 O.2       8 UNK        -0.5000 
     32 CA          0.2513  -16.7540  -44.8668 C.3       8 UNK         0.1400 
     33 CB         -0.1864  -15.3516  -44.4154 C.3       8 UNK        -0.1800 
     34 N           1.5548  -17.0702  -44.2862 N.am      8 UNK        -0.5000 
     35 C           2.2575  -18.1821  -44.5446 C.2       7 UNK         0.5000 
     36 O           1.9128  -19.0415  -45.3556 O.2       7 UNK        -0.5000 
     37 CA          3.5344  -18.3917  -43.7154 C.3       7 UNK         0.1400 
     38 CB          4.7108  -17.6041  -44.3116 C.3       7 UNK        -0.1800 
     39 N           3.3393  -18.0119  -42.3155 N.am      7 UNK        -0.5000 
     40 C           2.5753  -18.6927  -41.4490 C.2       6 UNK         0.5000 
     41 O           1.9765  -19.7295  -41.7333 O.2       6 UNK        -0.5000 
     42 CA          2.4240  -18.0921  -40.0396 C.3       6 UNK         0.1400 
     43 CB          3.6423  -18.4336  -39.1689 C.3       6 UNK        -0.1800 
     44 N           2.2342  -16.6413  -40.0644 N.am      6 UNK        -0.5000 
     45 C           1.1549  -16.0304  -40.5725 C.2       5 UNK         0.5000 
     46 O           0.1895  -16.6297  -41.0431 O.2       5 UNK        -0.5000 
     47 CA          1.1730  -14.4913  -40.5989 C.3       5 UNK         0.1400 
     48 CB          0.6285  -13.9231  -39.2804 C.3       5 UNK        -0.1800 
     49 N           2.4909  -13.9106  -40.8664 N.am      5 UNK        -0.5000 
     50 C           3.2451  -14.1520  -41.9462 C.2       4 UNK         0.5000 
     51 O           2.9433  -14.9608  -42.8257 O.2       4 UNK        -0.5000 
     52 CA          4.5280  -13.3099  -42.0744 C.3       4 UNK         0.1400 
     53 CB          5.5562  -13.9517  -43.0225 C.3       4 UNK        -0.1800 
     54 N           4.1937  -11.9793  -42.5733 N.am      4 UNK        -0.5000 
     55 C           3.6254  -10.9975  -41.8593 C.2       3 UNK         0.5000 
     56 O           3.4490  -11.0544  -40.6412 O.2       3 UNK        -0.5000 
     57 CA          3.1498   -9.7572  -42.6428 C.3       3 UNK         0.1400 
     58 CB          4.1972   -8.6361  -42.5642 C.3       3 UNK        -0.1800 
     59 N           2.8590  -10.0450  -44.0518 N.am      3 UNK        -0.5000 
     60 C           1.8357  -10.7962  -44.4803 C.2       2 UNK         0.5000 
     61 O           0.9820  -11.2888  -43.7379 O.2       2 UNK        -0.5000 
     62 CA          1.7876  -11.0702  -45.9888 C.3       2 UNK         0.1400 
     63 CB          2.8251  -12.1374  -46.3847 C.3       2 UNK        -0.1800 
     64 N           0.4541  -11.5371  -46.3457 N.am      2 UNK        -0.5000 
     65 C          -0.1471  -11.3579  -47.5268 C.2       1 UNK         0.5000 
     66 O           0.3697  -10.7564  -48.4689 O.2       1 UNK        -0.5000 
     67 C          -1.8243  -21.1787  -47.8544 C.2       11 UNK         0.5000 
     68 O          -2.2794  -21.7436  -48.8471 O.2       11 UNK        -0.5000 
     69 N          -2.5938  -20.5715  -46.9384 N.am      12 UNK        -0.5000 
     70 CA         -4.0590  -20.5819  -46.9531 C.3       12 UNK         0.1400 
     71 CB         -4.5871  -19.5166  -45.9810 C.3       12 UNK        -0.1800 
     72 C          -4.6495  -21.9652  -46.6163 C.2       12 UNK         0.5000 
     73 O          -5.6931  -22.3319  -47.1615 O.2       12 UNK        -0.5000 
     74 N          -3.9673  -22.7092  -45.7355 N.am      13 UNK        -0.5000 
     75 CA         -4.2885  -24.0817  -45.3475 C.3       13 UNK         0.1400 
     76 CB         -3.3462  -24.5119  -44.2116 C.3       13 UNK        -0.1800 
     77 C          -4.2187  -25.0795  -46.5215 C.2       13 UNK         0.5000 
     78 O          -3.6324  -24.7858  -47.5672 O.2       13 UNK        -0.5000 
     79 N          -4.8391  -26.2505  -46.3154 N.am      14 UNK        -0.5000 
     80 CA         -4.9800  -27.3478  -47.2808 C.3       14 UNK         0.1400 
     81 CB         -3.6121  -28.0008  -47.5744 C.3       14 UNK        -0.1800 
     82 C          -5.7254  -26.9104  -48.5589 C.2       14 UNK         0.5000 
     83 O          -5.3331  -27.2922  -49.6616 O.2       14 UNK        -0.5000 
     84 N          -6.7720  -26.0897  -48.3750 N.am      15 UNK        -0.5000 
     85 CA         -7.6059  -25.4723  -49.4108 C.3       15 UNK         0.1400 
     86 CB         -8.4623  -26.5400  -50.1246 C.3       15 UNK        -0.1800 
     87 C          -6.7721  -24.6196  -50.3875 C.2       15 UNK         0.5000 
     88 O          -6.7496  -24.9006  -51.5863 O.2       15 UNK        -0.5000 
     89 N          -6.0701  -23.6155  -49.8418 N.am      16 UNK        -0.5000 
     90 CA         -5.1663  -22.7005  -50.5470 C.3       16 UNK         0.1400 
     91 CB         -5.9547  -21.7861  -51.5077 C.3       16 UNK        -0.1800 
     92 C          -4.0007  -23.4413  -51.2338 C.2       16 UNK         0.5000 
     93 O          -3.7429  -23.2211  -52.4212 O.2       16 UNK        -0.5000 
     94 N          -3.3486  -24.3276  -50.4651 N.am      17 UNK        -0.5000 
     95 CA         -2.2223  -25.1808  -50.8476 C.3       17 UNK         0.1400 
     96 CB         -0.9541  -24.3311  -51.0715 C.3       17 UNK        -0.1800 
     97 C          -2.5619  -26.1010  -52.0374 C.2       17 UNK         0.5000 
     98 O          -1.8696  -26.0806  -53.0560 O.2       17 UNK        -0.5000 
     99 N          -3.6440  -26.8774  -51.8813 N.am      18 UNK        -0.5000 
    100 CA        -4.2312  -27.7931  -52.8633 C.3       18 UNK         0.1400 
    101 CB        -3.2745  -28.9642  -53.1717 C.3       18 UNK        -0.1800 
    102 C         -4.7298  -27.0563  -54.1225 C.2       18 UNK         0.5000 
    103 O         -4.4496  -27.4809  -55.2454 O.2       18 UNK        -0.5000 
    104 N         -5.4641  -25.9575  -53.8955 N.am      19 UNK        -0.5000 
    105 CA        -6.0643  -25.0627  -54.8866 C.3       19 UNK         0.1400 
    106 CB        -7.1886  -25.7822  -55.6608 C.3       19 UNK        -0.1800 
    107 C         -5.0319  -24.3790  -55.8065 C.2       19 UNK         0.5000 
    108 O         -5.3114  -24.1594  -56.9869 O.2       19 UNK        -0.5000 
    109 N         -3.8616  -24.0350  -55.2501 N.am      20 UNK        -0.5000 
    110 CA        -2.8415  -23.2334  -55.9245 C.3       20 UNK         0.1400 
    111 CB        -1.5008  -23.3563  -55.1854 C.3       20 UNK        -0.1800 
    112 C         -3.2878  -21.7661  -56.0215 C.2       20 UNK         0.5000 
    113 O         -3.2269  -21.1841  -57.1053 O.2       20 UNK        -0.5000 
    114 N         -3.7615  -21.2216  -54.8876 N.am      21 UNK        -0.5000 
    115 CA        -4.4513  -19.9325  -54.7318 C.3       21 UNK         0.1400 
    116 CB        -5.9161  -20.0860  -55.1884 C.3       21 UNK        -0.1800 
    117 C         -3.7457  -18.7237  -55.3904 C.2       21 UNK         0.5000 
    118 O         -4.4124  -17.8457  -55.9417 O.2       21 UNK        -0.5000 
    119 N         -2.4073  -18.7154  -55.3318 N.am      22 UNK        -0.5000 
    120 CA        -1.5109  -17.7218  -55.9547 C.3       22 UNK         0.1400 
    121 C         -1.4707  -17.7650  -57.5149 C.2       22 UNK         0.5000 
    122 N         -1.9863  -18.7970  -58.1723 N.am      22 UNK        -0.7600 
    123 O         -0.9302  -16.8617  -58.1480 O.2       22 UNK        -0.5000 
    124 C124       -1.7052  -16.2752  -55.4100 C.3       23 UNK        -0.0398 
    125 S125       -1.5666  -16.1830  -53.5935 S.3       23 UNK        -0.2404 
    126 C126        0.1829  -15.7257  -53.4046 C.3       23 UNK        -0.0205 
    127 H127       -1.6593   -9.4747  -45.8314 H         1 UNK         0.0600 
    128 H128       -3.2626   -9.2773  -45.1339 H         1 UNK         0.0600 
    129 H129       -3.1051   -9.6282  -46.8484 H         1 UNK         0.0600 
    130 H130       -2.2952  -13.2053  -46.1836 H         1 UNK         0.3000 
    131 H131       -2.1496  -11.2001  -48.2284 H         1 UNK         0.0600 
    132 H132       -2.5566  -13.4793  -48.8718 H         1 UNK         0.0800 
    133 H133       -1.0394  -12.9940  -49.5519 H         1 UNK         0.0800 
    134 H134        1.1916  -13.6558  -48.8144 H         1 UNK         0.0800 
    135 H135        1.6064  -14.9445  -47.7182 H         1 UNK         0.0800 
    136 H136        0.1921  -14.2439  -51.1117 H         1 UNK         0.1150 
    137 H137        1.2691  -18.0953  -52.6495 H         1 UNK         0.1150 
    138 H138        1.8740  -17.2051  -48.5012 H         1 UNK         0.1150 
    139 H139        2.7503  -19.5070  -51.2313 H         1 UNK         0.0800 
    140 H140        2.9016  -19.2167  -49.5184 H         1 UNK         0.0800 
    141 H141       -0.2450  -19.0726  -48.3294 H         1 UNK         0.0800 
    142 H142        1.2961  -19.6970  -47.8174 H         1 UNK         0.0800 
    143 H143        0.0907  -22.0821  -48.0747 H         1 UNK         0.0600 
    144 H144        0.3577  -20.3588  -45.7703 H         1 UNK         0.3000 
    145 H145       -0.1845  -23.0260  -43.4526 H         1 UNK         0.0600 
    146 H146        2.0531  -22.3503  -42.6517 H         1 UNK         0.0600 
    147 H147        2.2096  -23.2774  -44.1352 H         1 UNK         0.0600 
    148 H148        2.3881  -21.5277  -44.1747 H         1 UNK         0.0600 
    149 H149        0.5380  -20.3314  -42.9942 H         1 UNK         0.3000 
    150 H150       -2.8009  -18.9714  -43.0130 H         1 UNK         0.0600 
    151 H151       -2.3739  -20.0267  -40.7799 H         1 UNK         0.0600 
    152 H152       -2.0521  -18.2998  -40.7612 H         1 UNK         0.0600 
    153 H153       -0.7133  -19.4443  -40.8209 H         1 UNK         0.0600 
    154 H154       -0.3357  -17.6837  -42.5400 H         1 UNK         0.3000 
    155 H155        0.3677  -16.7467  -45.9521 H         1 UNK         0.0600 
    156 H156       -1.1550  -15.0886  -44.8412 H         1 UNK         0.0600 
    157 H157        0.5288  -14.5926  -44.7338 H         1 UNK         0.0600 
    158 H158       -0.2827  -15.2871  -43.3330 H         1 UNK         0.0600 
    159 H159        1.9441  -16.3934  -43.6355 H         1 UNK         0.3000 
    160 H160        3.7867  -19.4536  -43.7486 H         1 UNK         0.0600 
    161 H161        4.5107  -16.5330  -44.3375 H         1 UNK         0.0600 
    162 H162        4.9102  -17.9225  -45.3356 H         1 UNK         0.0600 
    163 H163        5.6241  -17.7621  -43.7381 H         1 UNK         0.0600 
    164 H164        3.7354  -17.1297  -42.0261 H         1 UNK         0.3000 
    165 H165        1.5407  -18.5414  -39.5805 H         1 UNK         0.0600 
    166 H166        3.5066  -18.0814  -38.1461 H         1 UNK         0.0600 
    167 H167        3.7975  -19.5123  -39.1220 H         1 UNK         0.0600 
    168 H168        4.5574  -17.9868  -39.5596 H         1 UNK         0.0600 
    169 H169        2.9832  -16.0717  -39.6997 H         1 UNK         0.3000 
    170 H170        0.5104  -14.1685  -41.4038 H         1 UNK         0.0600 
    171 H171       -0.3654  -14.3181  -39.0653 H         1 UNK         0.0600 
    172 H172        1.2724  -14.1750  -38.4368 H         1 UNK         0.0600 
    173 H173        0.5424  -12.8372  -39.3250 H         1 UNK         0.0600 
    174 H174        2.7922  -13.1740  -40.2406 H         1 UNK         0.3000 
    175 H175        4.9854  -13.2237  -41.0865 H         1 UNK         0.0600 
    176 H176        5.1737  -14.0349  -44.0408 H         1 UNK         0.0600 
    177 H177        6.4758  -13.3675  -43.0584 H         1 UNK         0.0600 
    178 H178        5.8224  -14.9550  -42.6875 H         1 UNK         0.0600 
    179 H179        4.2781  -11.8455  -43.5693 H         1 UNK         0.3000 
    180 H180        2.2315   -9.4024  -42.1699 H         1 UNK         0.0600 
    181 H181        5.1365   -8.9280  -43.0358 H         1 UNK         0.0600 
    182 H182        4.4168   -8.3791  -41.5270 H         1 UNK         0.0600 
    183 H183        3.8422   -7.7290  -43.0537 H         1 UNK         0.0600 
    184 H184        3.5099   -9.6709  -44.7277 H         1 UNK         0.3000 
    185 H185        2.0027  -10.1349  -46.5102 H         1 UNK         0.0600 
    186 H186        3.8363  -11.8250  -46.1220 H         1 UNK         0.0600 
    187 H187        2.6333  -13.0882  -45.8846 H         1 UNK         0.0600 
    188 H188        2.8155  -12.3167  -47.4596 H         1 UNK         0.0600 
    189 H189       -0.0494  -11.9877  -45.5917 H         1 UNK         0.3000 
    190 H190       -2.1496  -20.0551  -46.1861 H         1 UNK         0.3000 
    191 H191       -4.3913  -20.3151  -47.9583 H         1 UNK         0.0600 
    192 H192       -4.2262  -18.5238  -46.2503 H         1 UNK         0.0600 
    193 H193       -5.6771  -19.4819  -45.9942 H         1 UNK         0.0600 
    194 H194       -4.2768  -19.7185  -44.9556 H         1 UNK         0.0600 
    195 H195       -3.1516  -22.2986  -45.2949 H         1 UNK         0.3000 
    196 H196       -5.3120  -24.0813  -44.9679 H         1 UNK         0.0600 
    197 H197       -3.5818  -25.5162  -43.8580 H         1 UNK         0.0600 
    198 H198       -3.4292  -23.8430  -43.3549 H         1 UNK         0.0600 
    199 H199       -2.3052  -24.5155  -44.5342 H         1 UNK         0.0600 
    200 H200       -5.2885  -26.4023  -45.4228 H         1 UNK         0.3000 
    201 H201       -5.6089  -28.1018  -46.8056 H         1 UNK         0.0600 
    202 H202       -3.1166  -28.3074  -46.6533 H         1 UNK         0.0600 
    203 H203       -2.9424  -27.3240  -48.1053 H         1 UNK         0.0600 
    204 H204       -3.7293  -28.8927  -48.1911 H         1 UNK         0.0600 
    205 H205       -6.9893  -25.8205  -47.4261 H         1 UNK         0.3000 
    206 H206       -8.2871  -24.7881  -48.9026 H         1 UNK         0.0600 
    207 H207       -9.0687  -27.0991  -49.4122 H         1 UNK         0.0600 
    208 H208       -9.1442  -26.0772  -50.8389 H         1 UNK         0.0600 
    209 H209       -7.8496  -27.2542  -50.6757 H         1 UNK         0.0600 
    210 H210       -6.1183  -23.4694  -48.8385 H         1 UNK         0.3000 
    211 H211       -4.7205  -22.0621  -49.7853 H         1 UNK         0.0600 
    212 H212       -6.3689  -22.3382  -52.3519 H         1 UNK         0.0600 
    213 H213       -5.3090  -21.0069  -51.9101 H         1 UNK         0.0600 
    214 H214       -6.7777  -21.2898  -50.9939 H         1 UNK         0.0600 
    215 H215       -3.6297  -24.4119  -49.4913 H         1 UNK         0.3000 
    216 H216       -2.0314  -25.8350  -49.9960 H         1 UNK         0.0600 
    217 H217       -0.0924  -24.9630  -51.2886 H         1 UNK         0.0600 
    218 H218       -0.7128  -23.7464  -50.1835 H         1 UNK         0.0600 
    219 H219       -1.0704  -23.6370  -51.9033 H         1 UNK         0.0600 
    220 H220       -4.1630  -26.8220  -51.0066 H         1 UNK         0.3000 
    221 H221       -5.1186  -28.2145  -52.3887 H         1 UNK         0.0600 
    222 H222       -2.3781  -28.6321  -53.6958 H         1 UNK         0.0600 
    223 H223       -2.9619  -29.4679  -52.2571 H         1 UNK         0.0600 
    224 H224       -3.7625  -29.7090  -53.8014 H         1 UNK         0.0600 
    225 H225       -5.6609  -25.6956  -52.9322 H         1 UNK         0.3000 
    226 H226       -6.5276  -24.2568  -54.3159 H         1 UNK         0.0600 
    227 H227       -7.9106  -26.2308  -54.9785 H         1 UNK         0.0600 
    228 H228       -7.7356  -25.0841  -56.2955 H         1 UNK         0.0600 
    229 H229       -6.7977  -26.5713  -56.3036 H         1 UNK         0.0600 
    230 H230       -3.7241  -24.2030  -54.2591 H         1 UNK         0.3000 
    231 H231       -2.7058  -23.6174  -56.9378 H         1 UNK         0.0600 
    232 H232       -1.5711  -23.0040  -54.1564 H         1 UNK         0.0600 
    233 H233       -0.7263  -22.7705  -55.6818 H         1 UNK         0.0600 
    234 H234       -1.1602  -24.3915  -55.1606 H         1 UNK         0.0600 
    235 H235       -3.7372  -21.8035  -54.0565 H         1 UNK         0.3000 
    236 H236       -4.4587  -19.7160  -53.6636 H         1 UNK         0.0600 
    237 H237       -6.4054  -20.9113  -54.6708 H         1 UNK         0.0600 
    238 H238       -6.4938  -19.1856  -54.9765 H         1 UNK         0.0600 
    239 H239       -5.9825  -20.2773  -56.2601 H         1 UNK         0.0600 
    240 H240       -1.9502  -19.4878  -54.8701 H         1 UNK         0.3000 
    241 H241       -0.5080  -18.0328  -55.6608 H         1 UNK         0.0600 
    242 H242       -1.9400  -18.8116  -59.1785 H         1 UNK         0.3800 
    243 H243       -2.4352  -19.5681  -57.6838 H         1 UNK         0.3800 
    244 H244       -0.9735  -15.5939  -55.8474 H         1 UNK         0.0800 
    245 H245       -2.6808  -15.8836  -55.6998 H         1 UNK         0.0800 
    246 H246        0.7830  -16.2210  -54.1696 H         1 UNK         0.0800 
    247 H247        0.3000  -14.6527  -53.5636 H         1 UNK         0.0800 
@<TRIPOS>BOND
     1    1    2 1    
     2    1  127 1    
     3    1  128 1    
     4    1  129 1    
     5    2    3 2    
     6    2    4 am   BACKBONE|DICT|INTERRES
     7    4    5 1    
     8    4  130 1    
     9    5    6 1    
    10    5   65 1    
    11    5  131 1    
    12    6    7 1    
    13    6  132 1    
    14    6  133 1    
    15    7    8 1    
    16    8    9 1    
    17    8  134 1    
    18    8  135 1    
    19    9   10 ar   
    20    9   14 ar   
    21   10   11 ar   
    22   10  136 1    
    23   11   12 ar   
    24   11  126 1    
    25   12   13 ar   
    26   12  137 1    
    27   13   14 ar   
    28   13   15 1    
    29   14  138 1    
    30   15   16 1    
    31   15  139 1    
    32   15  140 1    
    33   16   17 1    
    34   17   18 1    
    35   17  141 1    
    36   17  142 1    
    37   18   19 1    
    38   18   67 1    
    39   18  143 1    
    40   19   20 am   BACKBONE|DICT|INTERRES
    41   19  144 1    
    42   20   21 2    
    43   20   22 1    
    44   22   23 1    
    45   22   24 1    
    46   22  145 1    
    47   23  146 1    
    48   23  147 1    
    49   23  148 1    
    50   24   25 am   BACKBONE|DICT|INTERRES
    51   24  149 1    
    52   25   26 2    
    53   25   27 1    
    54   27   28 1    
    55   27   29 1    
    56   27  150 1    
    57   28  151 1    
    58   28  152 1    
    59   28  153 1    
    60   29   30 am   BACKBONE|DICT|INTERRES
    61   29  154 1    
    62   30   31 2    
    63   30   32 1    
    64   32   33 1    
    65   32   34 1    
    66   32  155 1    
    67   33  156 1    
    68   33  157 1    
    69   33  158 1    
    70   34   35 am   BACKBONE|DICT|INTERRES
    71   34  159 1    
    72   35   36 2    
    73   35   37 1    
    74   37   38 1    
    75   37   39 1    
    76   37  160 1    
    77   38  161 1    
    78   38  162 1    
    79   38  163 1    
    80   39   40 am   BACKBONE|DICT|INTERRES
    81   39  164 1    
    82   40   41 2    
    83   40   42 1    
    84   42   43 1    
    85   42   44 1    
    86   42  165 1    
    87   43  166 1    
    88   43  167 1    
    89   43  168 1    
    90   44   45 am   BACKBONE|DICT|INTERRES
    91   44  169 1    
    92   45   46 2    
    93   45   47 1    
    94   47   48 1    
    95   47   49 1    
    96   47  170 1    
    97   48  171 1    
    98   48  172 1    
    99   48  173 1    
   100   49   50 am   BACKBONE|DICT|INTERRES
   101   49  174 1    
   102   50   51 2    
   103   50   52 1    
   104   52   53 1    
   105   52   54 1    
   106   52  175 1    
   107   53  176 1    
   108   53  177 1    
   109   53  178 1    
   110   54   55 am   BACKBONE|DICT|INTERRES
   111   54  179 1    
   112   55   56 2    
   113   55   57 1    
   114   57   58 1    
   115   57   59 1    
   116   57  180 1    
   117   58  181 1    
   118   58  182 1    
   119   58  183 1    
   120   59   60 am   BACKBONE|DICT|INTERRES
   121   59  184 1    
   122   60   61 2    
   123   60   62 1    
   124   62   63 1    
   125   62   64 1    
   126   62  185 1    
   127   63  186 1    
   128   63  187 1    
   129   63  188 1    
   130   64   65 am   BACKBONE|DICT|INTERRES
   131   64  189 1    
   132   65   66 2    
   133   67   68 2    
   134   67   69 am   BACKBONE|DICT|INTERRES
   135   69   70 1    
   136   69  190 1    
   137   70   71 1    
   138   70   72 1    
   139   70  191 1    
   140   71  192 1    
   141   71  193 1    
   142   71  194 1    
   143   72   73 2    
   144   72   74 am   BACKBONE|DICT|INTERRES
   145   74   75 1    
   146   74  195 1    
   147   75   76 1    
   148   75   77 1    
   149   75  196 1    
   150   76  197 1    
   151   76  198 1    
   152   76  199 1    
   153   77   78 2    
   154   77   79 am   BACKBONE|DICT|INTERRES
   155   79   80 1    
   156   79  200 1    
   157   80   81 1    
   158   80   82 1    
   159   80  201 1    
   160   81  202 1    
   161   81  203 1    
   162   81  204 1    
   163   82   83 2    
   164   82   84 am   BACKBONE|DICT|INTERRES
   165   84   85 1    
   166   84  205 1    
   167   85   86 1    
   168   85   87 1    
   169   85  206 1    
   170   86  207 1    
   171   86  208 1    
   172   86  209 1    
   173   87   88 2    
   174   87   89 am   BACKBONE|DICT|INTERRES
   175   89   90 1    
   176   89  210 1    
   177   90   91 1    
   178   90   92 1    
   179   90  211 1    
   180   91  212 1    
   181   91  213 1    
   182   91  214 1    
   183   92   93 2    
   184   92   94 am   BACKBONE|DICT|INTERRES
   185   94   95 1    
   186   94  215 1    
   187   95   96 1    
   188   95   97 1    
   189   95  216 1    
   190   96  217 1    
   191   96  218 1    
   192   96  219 1    
   193   97   98 2    
   194   97   99 am   BACKBONE|DICT|INTERRES
   195   99  100 1    
   196   99  220 1    
   197  100  101 1    
   198  100  102 1    
   199  100  221 1    
   200  101  222 1    
   201  101  223 1    
   202  101  224 1    
   203  102  103 2    
   204  102  104 am   BACKBONE|DICT|INTERRES
   205  104  105 1    
   206  104  225 1    
   207  105  106 1    
   208  105  107 1    
   209  105  226 1    
   210  106  227 1    
   211  106  228 1    
   212  106  229 1    
   213  107  108 2    
   214  107  109 am   BACKBONE|DICT|INTERRES
   215  109  110 1    
   216  109  230 1    
   217  110  111 1    
   218  110  112 1    
   219  110  231 1    
   220  111  232 1    
   221  111  233 1    
   222  111  234 1    
   223  112  113 2    
   224  112  114 am   BACKBONE|DICT|INTERRES
   225  114  115 1    
   226  114  235 1    
   227  115  116 1    
   228  115  117 1    
   229  115  236 1    
   230  116  237 1    
   231  116  238 1    
   232  116  239 1    
   233  117  118 2    
   234  117  119 am   BACKBONE|DICT|INTERRES
   235  119  120 1    
   236  119  240 1    
   237  120  121 1    
   238  120  124 1    
   239  120  241 1    
   240  121  122 am   BACKBONE|DICT|INTERRES
   241  121  123 2    
   242  122  242 1    
   243  122  243 1    
   244  124  125 1    
   245  124  244 1    
   246  124  245 1    
   247  125  126 1    
   248  126  246 1    
   249  126  247 1    
@<TRIPOS>SUBSTRUCTURE
     1 UNK         1 GROUP             0       ****    0 ROOT    
