@<TRIPOS>MOLECULE
3R540
247   249    1
SMALL
USER_CHARGES


@<TRIPOS>ATOM
      1 CA          2.7983  -14.0820  -45.7959 C.3       0 UNK        -0.1800 
      2 C           1.7528  -15.1830  -45.8786 C.2       0 UNK         0.5000 
      3 O           0.9017  -15.2963  -44.9970 O.2       0 UNK        -0.5000 
      4 N           1.8142  -15.9978  -46.9387 N.am      1 UNK        -0.5000 
      5 CA          0.8652  -17.0887  -47.1942 C.3       1 UNK         0.1400 
      6 C6          1.3395  -18.0507  -48.3120 C.3       23 UNK        -0.0398 
      7 S7          3.0217  -18.6961  -48.0523 S.3       23 UNK        -0.2404 
      8 C8          3.5644  -18.9972  -49.7638 C.3       23 UNK        -0.0205 
      9 C9          2.7947  -20.1385  -50.4125 C.ar      23 UNK        -0.0193 
     10 C10         1.9081  -19.8920  -51.4633 C.ar      23 UNK        -0.1150 
     11 C11         1.2117  -20.9446  -52.0636 C.ar      23 UNK        -0.0193 
     12 C12         1.4041  -22.2493  -51.5967 C.ar      23 UNK        -0.1150 
     13 C13         2.2961  -22.5189  -50.5518 C.ar      23 UNK        -0.0193 
     14 C14         2.9885  -21.4488  -49.9685 C.ar      23 UNK        -0.1150 
     15 C15         2.4759  -23.9756  -50.1065 C.3       23 UNK        -0.0205 
     16 S16         3.8071  -24.3008  -48.8939 S.3       23 UNK        -0.2404 
     17 C17         3.0588  -23.6652  -47.3540 C.3       23 UNK        -0.0398 
     18 CA          2.7979  -24.7492  -46.2759 C.3       11 UNK         0.1400 
     19 N           2.6881  -24.1187  -44.9530 N.am      11 UNK        -0.5000 
     20 C           2.5586  -24.7475  -43.7743 C.2       10 UNK         0.5000 
     21 O           2.7400  -25.9566  -43.6302 O.2       10 UNK        -0.5000 
     22 CA          2.0781  -23.9082  -42.5669 C.3       10 UNK         0.1400 
     23 CB          3.1954  -23.7879  -41.5198 C.3       10 UNK        -0.1800 
     24 N           1.5903  -22.5633  -42.9019 N.am      10 UNK        -0.5000 
     25 C           0.5775  -22.2552  -43.7316 C.2       9 UNK         0.5000 
     26 O          -0.1548  -23.1004  -44.2505 O.2       9 UNK        -0.5000 
     27 CA          0.3955  -20.7668  -44.1119 C.3       9 UNK         0.1400 
     28 CB         -0.7680  -20.1588  -43.3186 C.3       9 UNK        -0.1800 
     29 N           1.5867  -19.9353  -43.9036 N.am      9 UNK        -0.5000 
     30 C           2.8099  -20.1575  -44.4114 C.2       8 UNK         0.5000 
     31 O           3.0466  -21.0351  -45.2419 O.2       8 UNK        -0.5000 
     32 CA          3.9794  -19.3328  -43.8250 C.3       8 UNK         0.1400 
     33 CB          4.4285  -18.2374  -44.8011 C.3       8 UNK        -0.1800 
     34 N           3.6920  -18.7087  -42.5296 N.am      8 UNK        -0.5000 
     35 C           3.3245  -19.3366  -41.4028 C.2       7 UNK         0.5000 
     36 O           3.2295  -20.5603  -41.3124 O.2       7 UNK        -0.5000 
     37 CA          2.9593  -18.4589  -40.1861 C.3       7 UNK         0.1400 
     38 CB          4.0028  -18.6274  -39.0709 C.3       7 UNK        -0.1800 
     39 N           2.8116  -17.0281  -40.4807 N.am      7 UNK        -0.5000 
     40 C           1.8892  -16.4788  -41.2830 C.2       6 UNK         0.5000 
     41 O           1.0435  -17.1321  -41.9012 O.2       6 UNK        -0.5000 
     42 CA          1.9784  -14.9524  -41.4454 C.3       6 UNK         0.1400 
     43 CB          3.2793  -14.5539  -42.1640 C.3       6 UNK        -0.1800 
     44 N           0.8475  -14.4682  -42.2275 N.am      6 UNK        -0.5000 
     45 C           0.0329  -13.4637  -41.8903 C.2       5 UNK         0.5000 
     46 O           0.1798  -12.7670  -40.8848 O.2       5 UNK        -0.5000 
     47 CA         -1.1581  -13.1920  -42.8304 C.3       5 UNK         0.1400 
     48 CB         -0.7833  -12.1398  -43.8851 C.3       5 UNK        -0.1800 
     49 N          -1.6523  -14.3894  -43.5117 N.am      5 UNK        -0.5000 
     50 C          -2.2309  -15.4380  -42.9097 C.2       4 UNK         0.5000 
     51 O          -2.4335  -15.5013  -41.6954 O.2       4 UNK        -0.5000 
     52 CA         -2.6783  -16.5869  -43.8388 C.3       4 UNK         0.1400 
     53 CB         -3.5343  -17.6534  -43.1247 C.3       4 UNK        -0.1800 
     54 N          -3.3551  -16.1072  -45.0467 N.am      4 UNK        -0.5000 
     55 C          -4.4457  -15.3252  -45.1154 C.2       3 UNK         0.5000 
     56 O          -5.0855  -14.9556  -44.1299 O.2       3 UNK        -0.5000 
     57 CA         -4.9112  -14.8910  -46.5238 C.3       3 UNK         0.1400 
     58 CB         -5.5313  -13.4781  -46.5344 C.3       3 UNK        -0.1800 
     59 N          -3.8746  -15.0143  -47.5550 N.am      3 UNK        -0.5000 
     60 C          -2.7111  -14.3542  -47.6209 C.2       2 UNK         0.5000 
     61 O          -2.3387  -13.5085  -46.8056 O.2       2 UNK        -0.5000 
     62 CA         -1.7796  -14.7611  -48.7757 C.3       2 UNK         0.1400 
     63 CB         -1.3706  -13.5387  -49.6124 C.3       2 UNK        -0.1800 
     64 N          -0.5748  -15.4374  -48.2966 N.am      2 UNK        -0.5000 
     65 C          -0.5364  -16.5448  -47.5388 C.2       1 UNK         0.5000 
     66 O          -1.5359  -17.1282  -47.1235 O.2       1 UNK        -0.5000 
     67 C           1.5709  -25.6364  -46.6329 C.2       11 UNK         0.5000 
     68 O           1.6600  -26.4478  -47.5538 O.2       11 UNK        -0.5000 
     69 N           0.4599  -25.4784  -45.8926 N.am      12 UNK        -0.5000 
     70 CA         -0.7964  -26.2381  -45.9438 C.3       12 UNK         0.1400 
     71 CB         -0.5710  -27.7638  -45.8923 C.3       12 UNK        -0.1800 
     72 C          -1.7375  -25.8037  -47.0814 C.2       12 UNK         0.5000 
     73 O          -2.7674  -26.4428  -47.3000 O.2       12 UNK        -0.5000 
     74 N          -1.4058  -24.6868  -47.7408 N.am      13 UNK        -0.5000 
     75 CA         -2.2721  -23.9889  -48.6909 C.3       13 UNK         0.1400 
     76 CB         -1.3900  -23.2527  -49.7091 C.3       13 UNK        -0.1800 
     77 C          -3.2534  -23.0244  -47.9895 C.2       13 UNK         0.5000 
     78 O          -4.1336  -22.4784  -48.6559 O.2       13 UNK        -0.5000 
     79 N          -3.0910  -22.8330  -46.6687 N.am      14 UNK        -0.5000 
     80 CA         -3.8969  -21.9951  -45.7769 C.3       14 UNK         0.1400 
     81 CB         -5.3130  -22.5893  -45.6048 C.3       14 UNK        -0.1800 
     82 C          -3.8794  -20.5222  -46.2263 C.2       14 UNK         0.5000 
     83 O          -2.8466  -19.8712  -46.0811 O.2       14 UNK        -0.5000 
     84 N          -4.9992  -20.0384  -46.7821 N.am      15 UNK        -0.5000 
     85 CA         -5.1427  -18.7054  -47.3717 C.3       15 UNK         0.1400 
     86 CB         -6.6372  -18.4039  -47.5509 C.3       15 UNK        -0.1800 
     87 C          -4.3737  -18.5217  -48.6972 C.2       15 UNK         0.5000 
     88 O          -4.1741  -17.3802  -49.1217 O.2       15 UNK        -0.5000 
     89 N          -3.9474  -19.6363  -49.3089 N.am      16 UNK        -0.5000 
     90 CA         -2.9940  -19.7484  -50.4089 C.3       16 UNK         0.1400 
     91 CB         -1.5748  -19.4617  -49.8869 C.3       16 UNK        -0.1800 
     92 C          -3.3817  -18.9113  -51.6378 C.2       16 UNK         0.5000 
     93 O          -4.3386  -19.2646  -52.3257 O.2       16 UNK        -0.5000 
     94 N          -2.6521  -17.8176  -51.8915 N.am      17 UNK        -0.5000 
     95 CA         -2.8772  -16.8896  -52.9995 C.3       17 UNK         0.1400 
     96 CB         -1.7464  -15.8519  -53.0189 C.3       17 UNK        -0.1800 
     97 C          -4.2518  -16.1939  -52.9588 C.2       17 UNK         0.5000 
     98 O          -4.7946  -15.8850  -54.0189 O.2       17 UNK        -0.5000 
     99 N          -4.8159  -16.0055  -51.7559 N.am      18 UNK        -0.5000 
    100 CA        -6.1592  -15.4501  -51.5649 C.3       18 UNK         0.1400 
    101 CB        -6.2885  -14.9000  -50.1373 C.3       18 UNK        -0.1800 
    102 C         -7.2730  -16.4728  -51.8705 C.2       18 UNK         0.5000 
    103 O         -8.3857  -16.0693  -52.2089 O.2       18 UNK        -0.5000 
    104 N         -6.9491  -17.7706  -51.7799 N.am      19 UNK        -0.5000 
    105 CA        -7.8073  -18.8846  -52.1931 C.3       19 UNK         0.1400 
    106 CB        -7.5718  -20.0669  -51.2380 C.3       19 UNK        -0.1800 
    107 C         -7.5505  -19.3100  -53.6545 C.2       19 UNK         0.5000 
    108 O         -8.2567  -20.1836  -54.1590 O.2       19 UNK        -0.5000 
    109 N         -6.5373  -18.7049  -54.2940 N.am      20 UNK        -0.5000 
    110 CA        -6.0001  -19.0011  -55.6245 C.3       20 UNK         0.1400 
    111 CB        -7.0413  -18.7026  -56.7230 C.3       20 UNK        -0.1800 
    112 C         -5.3920  -20.4167  -55.7338 C.2       20 UNK         0.5000 
    113 O         -5.4011  -21.0055  -56.8163 O.2       20 UNK        -0.5000 
    114 N         -4.8405  -20.9335  -54.6242 N.am      21 UNK        -0.5000 
    115 CA        -4.2501  -22.2745  -54.5232 C.3       21 UNK         0.1400 
    116 CB        -3.9000  -22.5646  -53.0562 C.3       21 UNK        -0.1800 
    117 C         -3.0072  -22.4681  -55.4145 C.2       21 UNK         0.5000 
    118 O         -2.7682  -23.5756  -55.8966 O.2       21 UNK        -0.5000 
    119 N         -2.2638  -21.3773  -55.6325 N.am      22 UNK        -0.5000 
    120 CA        -1.1426  -21.2846  -56.5799 C.3       22 UNK         0.1400 
    121 C         -1.5807  -20.9050  -58.0289 C.2       22 UNK         0.5000 
    122 N         -2.8648  -20.7666  -58.3401 N.am      22 UNK        -0.7600 
    123 O         -0.7346  -20.7489  -58.9053 O.2       22 UNK        -0.5000 
    124 C124       -0.0380  -20.3373  -56.0367 C.3       23 UNK        -0.0398 
    125 S125        1.0311  -21.1501  -54.8013 S.3       23 UNK        -0.2404 
    126 C126        0.2639  -20.6719  -53.2237 C.3       23 UNK        -0.0205 
    127 H127        2.9456  -13.6116  -46.7681 H         1 UNK         0.0600 
    128 H128        3.7517  -14.4900  -45.4610 H         1 UNK         0.0600 
    129 H129        2.4878  -13.3108  -45.0904 H         1 UNK         0.0600 
    130 H130        2.5579  -15.8890  -47.6134 H         1 UNK         0.3000 
    131 H131        0.7727  -17.6690  -46.2728 H         1 UNK         0.0600 
    132 H132        1.2984  -17.5601  -49.2863 H         1 UNK         0.0800 
    133 H133        0.6755  -18.9132  -48.3689 H         1 UNK         0.0800 
    134 H134        4.6265  -19.2458  -49.7556 H         1 UNK         0.0800 
    135 H135        3.4716  -18.0785  -50.3450 H         1 UNK         0.0800 
    136 H136        1.7655  -18.8816  -51.8198 H         1 UNK         0.1150 
    137 H137        0.8671  -23.0624  -52.0650 H         1 UNK         0.1150 
    138 H138        3.6865  -21.6132  -49.1620 H         1 UNK         0.1150 
    139 H139        1.5353  -24.3485  -49.7007 H         1 UNK         0.0800 
    140 H140        2.6853  -24.5793  -50.9906 H         1 UNK         0.0800 
    141 H141        3.7690  -22.9328  -46.9678 H         1 UNK         0.0800 
    142 H142        2.1502  -23.1005  -47.5707 H         1 UNK         0.0800 
    143 H143        3.6661  -25.4099  -46.2340 H         1 UNK         0.0600 
    144 H144        2.5899  -23.1096  -44.9587 H         1 UNK         0.3000 
    145 H145        1.2453  -24.4513  -42.1163 H         1 UNK         0.0600 
    146 H146        2.8409  -23.2830  -40.6209 H         1 UNK         0.0600 
    147 H147        4.0467  -23.2261  -41.9063 H         1 UNK         0.0600 
    148 H148        3.5595  -24.7701  -41.2158 H         1 UNK         0.0600 
    149 H149        2.1266  -21.7992  -42.5031 H         1 UNK         0.3000 
    150 H150        0.1475  -20.7286  -45.1746 H         1 UNK         0.0600 
    151 H151       -1.6865  -20.7279  -43.4651 H         1 UNK         0.0600 
    152 H152       -0.9651  -19.1395  -43.6445 H         1 UNK         0.0600 
    153 H153       -0.5589  -20.1348  -42.2483 H         1 UNK         0.0600 
    154 H154        1.4898  -19.1844  -43.2326 H         1 UNK         0.3000 
    155 H155        4.8137  -20.0206  -43.6745 H         1 UNK         0.0600 
    156 H156        4.7867  -18.6757  -45.7326 H         1 UNK         0.0600 
    157 H157        5.2489  -17.6486  -44.3905 H         1 UNK         0.0600 
    158 H158        3.6125  -17.5562  -45.0444 H         1 UNK         0.0600 
    159 H159        3.7323  -17.7015  -42.5036 H         1 UNK         0.3000 
    160 H160        1.9989  -18.8203  -39.8129 H         1 UNK         0.0600 
    161 H161        4.9833  -18.2630  -39.3799 H         1 UNK         0.0600 
    162 H162        4.1153  -19.6765  -38.7936 H         1 UNK         0.0600 
    163 H163        3.7104  -18.0865  -38.1707 H         1 UNK         0.0600 
    164 H164        3.4743  -16.4183  -40.0235 H         1 UNK         0.3000 
    165 H165        1.9684  -14.5111  -40.4467 H         1 UNK         0.0600 
    166 H166        3.3055  -13.4835  -42.3693 H         1 UNK         0.0600 
    167 H167        4.1555  -14.7860  -41.5581 H         1 UNK         0.0600 
    168 H168        3.3886  -15.0794  -43.1126 H         1 UNK         0.0600 
    169 H169        0.6501  -14.9905  -43.0777 H         1 UNK         0.3000 
    170 H170       -1.9732  -12.7932  -42.2232 H         1 UNK         0.0600 
    171 H171       -0.4223  -11.2241  -43.4152 H         1 UNK         0.0600 
    172 H172        0.0018  -12.5014  -44.5504 H         1 UNK         0.0600 
    173 H173       -1.6441  -11.8734  -44.4988 H         1 UNK         0.0600 
    174 H174       -1.5189  -14.4199  -44.5140 H         1 UNK         0.3000 
    175 H175       -1.7617  -17.0662  -44.1832 H         1 UNK         0.0600 
    176 H176       -4.4591  -17.2332  -42.7288 H         1 UNK         0.0600 
    177 H177       -3.7974  -18.4645  -43.8031 H         1 UNK         0.0600 
    178 H178       -2.9901  -18.0946  -42.2889 H         1 UNK         0.0600 
    179 H179       -2.8925  -16.3640  -45.9149 H         1 UNK         0.3000 
    180 H180       -5.6984  -15.5905  -46.8049 H         1 UNK         0.0600 
    181 H181       -5.8509  -13.1940  -47.5368 H         1 UNK         0.0600 
    182 H182       -4.8285  -12.7240  -46.1794 H         1 UNK         0.0600 
    183 H183       -6.4106  -13.4314  -45.8911 H         1 UNK         0.0600 
    184 H184       -4.0243  -15.7643  -48.2263 H         1 UNK         0.3000 
    185 H185       -2.3064  -15.4558  -49.4325 H         1 UNK         0.0600 
    186 H186       -0.8306  -12.8035  -49.0142 H         1 UNK         0.0600 
    187 H187       -0.7297  -13.8228  -50.4467 H         1 UNK         0.0600 
    188 H188       -2.2479  -13.0424  -50.0294 H         1 UNK         0.0600 
    189 H189        0.3027  -15.0022  -48.5382 H         1 UNK         0.3000 
    190 H190        0.4670  -24.7407  -45.1942 H         1 UNK         0.3000 
    191 H191       -1.3196  -25.9694  -45.0249 H         1 UNK         0.0600 
    192 H192       -1.5094  -28.2888  -45.7105 H         1 UNK         0.0600 
    193 H193        0.1128  -28.0357  -45.0880 H         1 UNK         0.0600 
    194 H194       -0.1644  -28.1492  -46.8274 H         1 UNK         0.0600 
    195 H195       -0.5368  -24.2360  -47.4980 H         1 UNK         0.3000 
    196 H196       -2.8730  -24.7195  -49.2365 H         1 UNK         0.0600 
    197 H197       -0.7651  -22.4940  -49.2370 H         1 UNK         0.0600 
    198 H198       -1.9950  -22.7651  -50.4715 H         1 UNK         0.0600 
    199 H199       -0.7376  -23.9516  -50.2309 H         1 UNK         0.0600 
    200 H200       -2.3097  -23.2951  -46.2272 H         1 UNK         0.3000 
    201 H201       -3.4098  -22.0225  -44.8011 H         1 UNK         0.0600 
    202 H202       -5.8563  -22.6568  -46.5478 H         1 UNK         0.0600 
    203 H203       -5.9102  -21.9886  -44.9175 H         1 UNK         0.0600 
    204 H204       -5.2608  -23.5947  -45.1870 H         1 UNK         0.0600 
    205 H205       -5.7886  -20.6606  -46.8776 H         1 UNK         0.3000 
    206 H206       -4.7295  -17.9826  -46.6676 H         1 UNK         0.0600 
    207 H207       -7.1456  -18.3641  -46.5874 H         1 UNK         0.0600 
    208 H208       -6.7993  -17.4441  -48.0397 H         1 UNK         0.0600 
    209 H209       -7.1289  -19.1656  -48.1541 H         1 UNK         0.0600 
    210 H210       -4.2154  -20.5275  -48.9019 H         1 UNK         0.3000 
    211 H211       -3.0300  -20.7871  -50.7280 H         1 UNK         0.0600 
    212 H212       -1.4766  -18.4395  -49.5256 H         1 UNK         0.0600 
    213 H213       -0.8287  -19.6162  -50.6638 H         1 UNK         0.0600 
    214 H214       -1.3254  -20.1258  -49.0594 H         1 UNK         0.0600 
    215 H215       -1.8978  -17.5921  -51.2610 H         1 UNK         0.3000 
    216 H216       -2.8297  -17.4645  -53.9267 H         1 UNK         0.0600 
    217 H217       -1.8610  -15.1644  -53.8580 H         1 UNK         0.0600 
    218 H218       -0.7720  -16.3298  -53.1226 H         1 UNK         0.0600 
    219 H219       -1.7347  -15.2564  -52.1064 H         1 UNK         0.0600 
    220 H220       -4.3408  -16.3450  -50.9272 H         1 UNK         0.3000 
    221 H221       -6.2883  -14.6126  -52.2540 H         1 UNK         0.0600 
    222 H222       -7.2588  -14.4247  -49.9887 H         1 UNK         0.0600 
    223 H223       -6.1943  -15.6865  -49.3917 H         1 UNK         0.0600 
    224 H224       -5.5248  -14.1492  -49.9341 H         1 UNK         0.0600 
    225 H225       -6.0017  -18.0184  -51.5265 H         1 UNK         0.3000 
    226 H226       -8.8572  -18.5940  -52.1197 H         1 UNK         0.0600 
    227 H227       -7.8597  -19.8080  -50.2209 H         1 UNK         0.0600 
    228 H228       -8.1690  -20.9327  -51.5267 H         1 UNK         0.0600 
    229 H229       -6.5273  -20.3799  -51.2249 H         1 UNK         0.0600 
    230 H230       -6.0231  -18.0094  -53.7729 H         1 UNK         0.3000 
    231 H231       -5.1686  -18.3100  -55.7693 H         1 UNK         0.0600 
    232 H232       -6.5925  -18.7673  -57.7149 H         1 UNK         0.0600 
    233 H233       -7.4473  -17.6965  -56.6178 H         1 UNK         0.0600 
    234 H234       -7.8739  -19.4059  -56.6963 H         1 UNK         0.0600 
    235 H235       -4.8358  -20.3693  -53.7779 H         1 UNK         0.3000 
    236 H236       -5.0068  -22.9931  -54.8445 H         1 UNK         0.0600 
    237 H237       -3.0848  -21.9293  -52.7131 H         1 UNK         0.0600 
    238 H238       -4.7556  -22.4033  -52.3997 H         1 UNK         0.0600 
    239 H239       -3.5807  -23.5998  -52.9291 H         1 UNK         0.0600 
    240 H240       -2.5621  -20.5122  -55.2089 H         1 UNK         0.3000 
    241 H241       -0.6993  -22.2764  -56.6878 H         1 UNK         0.0600 
    242 H242       -3.6041  -20.9359  -57.6675 H         1 UNK         0.3800 
    243 H243       -3.1108  -20.5301  -59.2883 H         1 UNK         0.3800 
    244 H244       -0.4672  -19.4212  -55.6288 H         1 UNK         0.0800 
    245 H245        0.6321  -20.0150  -56.8353 H         1 UNK         0.0800 
    246 H246       -0.6624  -21.2307  -53.0854 H         1 UNK         0.0800 
    247 H247       -0.0081  -19.6156  -53.2506 H         1 UNK         0.0800 
@<TRIPOS>BOND
     1    1    2 1    
     2    1  127 1    
     3    1  128 1    
     4    1  129 1    
     5    2    3 2    
     6    2    4 am   BACKBONE|DICT|INTERRES
     7    4    5 1    
     8    4  130 1    
     9    5    6 1    
    10    5   65 1    
    11    5  131 1    
    12    6    7 1    
    13    6  132 1    
    14    6  133 1    
    15    7    8 1    
    16    8    9 1    
    17    8  134 1    
    18    8  135 1    
    19    9   10 ar   
    20    9   14 ar   
    21   10   11 ar   
    22   10  136 1    
    23   11   12 ar   
    24   11  126 1    
    25   12   13 ar   
    26   12  137 1    
    27   13   14 ar   
    28   13   15 1    
    29   14  138 1    
    30   15   16 1    
    31   15  139 1    
    32   15  140 1    
    33   16   17 1    
    34   17   18 1    
    35   17  141 1    
    36   17  142 1    
    37   18   19 1    
    38   18   67 1    
    39   18  143 1    
    40   19   20 am   BACKBONE|DICT|INTERRES
    41   19  144 1    
    42   20   21 2    
    43   20   22 1    
    44   22   23 1    
    45   22   24 1    
    46   22  145 1    
    47   23  146 1    
    48   23  147 1    
    49   23  148 1    
    50   24   25 am   BACKBONE|DICT|INTERRES
    51   24  149 1    
    52   25   26 2    
    53   25   27 1    
    54   27   28 1    
    55   27   29 1    
    56   27  150 1    
    57   28  151 1    
    58   28  152 1    
    59   28  153 1    
    60   29   30 am   BACKBONE|DICT|INTERRES
    61   29  154 1    
    62   30   31 2    
    63   30   32 1    
    64   32   33 1    
    65   32   34 1    
    66   32  155 1    
    67   33  156 1    
    68   33  157 1    
    69   33  158 1    
    70   34   35 am   BACKBONE|DICT|INTERRES
    71   34  159 1    
    72   35   36 2    
    73   35   37 1    
    74   37   38 1    
    75   37   39 1    
    76   37  160 1    
    77   38  161 1    
    78   38  162 1    
    79   38  163 1    
    80   39   40 am   BACKBONE|DICT|INTERRES
    81   39  164 1    
    82   40   41 2    
    83   40   42 1    
    84   42   43 1    
    85   42   44 1    
    86   42  165 1    
    87   43  166 1    
    88   43  167 1    
    89   43  168 1    
    90   44   45 am   BACKBONE|DICT|INTERRES
    91   44  169 1    
    92   45   46 2    
    93   45   47 1    
    94   47   48 1    
    95   47   49 1    
    96   47  170 1    
    97   48  171 1    
    98   48  172 1    
    99   48  173 1    
   100   49   50 am   BACKBONE|DICT|INTERRES
   101   49  174 1    
   102   50   51 2    
   103   50   52 1    
   104   52   53 1    
   105   52   54 1    
   106   52  175 1    
   107   53  176 1    
   108   53  177 1    
   109   53  178 1    
   110   54   55 am   BACKBONE|DICT|INTERRES
   111   54  179 1    
   112   55   56 2    
   113   55   57 1    
   114   57   58 1    
   115   57   59 1    
   116   57  180 1    
   117   58  181 1    
   118   58  182 1    
   119   58  183 1    
   120   59   60 am   BACKBONE|DICT|INTERRES
   121   59  184 1    
   122   60   61 2    
   123   60   62 1    
   124   62   63 1    
   125   62   64 1    
   126   62  185 1    
   127   63  186 1    
   128   63  187 1    
   129   63  188 1    
   130   64   65 am   BACKBONE|DICT|INTERRES
   131   64  189 1    
   132   65   66 2    
   133   67   68 2    
   134   67   69 am   BACKBONE|DICT|INTERRES
   135   69   70 1    
   136   69  190 1    
   137   70   71 1    
   138   70   72 1    
   139   70  191 1    
   140   71  192 1    
   141   71  193 1    
   142   71  194 1    
   143   72   73 2    
   144   72   74 am   BACKBONE|DICT|INTERRES
   145   74   75 1    
   146   74  195 1    
   147   75   76 1    
   148   75   77 1    
   149   75  196 1    
   150   76  197 1    
   151   76  198 1    
   152   76  199 1    
   153   77   78 2    
   154   77   79 am   BACKBONE|DICT|INTERRES
   155   79   80 1    
   156   79  200 1    
   157   80   81 1    
   158   80   82 1    
   159   80  201 1    
   160   81  202 1    
   161   81  203 1    
   162   81  204 1    
   163   82   83 2    
   164   82   84 am   BACKBONE|DICT|INTERRES
   165   84   85 1    
   166   84  205 1    
   167   85   86 1    
   168   85   87 1    
   169   85  206 1    
   170   86  207 1    
   171   86  208 1    
   172   86  209 1    
   173   87   88 2    
   174   87   89 am   BACKBONE|DICT|INTERRES
   175   89   90 1    
   176   89  210 1    
   177   90   91 1    
   178   90   92 1    
   179   90  211 1    
   180   91  212 1    
   181   91  213 1    
   182   91  214 1    
   183   92   93 2    
   184   92   94 am   BACKBONE|DICT|INTERRES
   185   94   95 1    
   186   94  215 1    
   187   95   96 1    
   188   95   97 1    
   189   95  216 1    
   190   96  217 1    
   191   96  218 1    
   192   96  219 1    
   193   97   98 2    
   194   97   99 am   BACKBONE|DICT|INTERRES
   195   99  100 1    
   196   99  220 1    
   197  100  101 1    
   198  100  102 1    
   199  100  221 1    
   200  101  222 1    
   201  101  223 1    
   202  101  224 1    
   203  102  103 2    
   204  102  104 am   BACKBONE|DICT|INTERRES
   205  104  105 1    
   206  104  225 1    
   207  105  106 1    
   208  105  107 1    
   209  105  226 1    
   210  106  227 1    
   211  106  228 1    
   212  106  229 1    
   213  107  108 2    
   214  107  109 am   BACKBONE|DICT|INTERRES
   215  109  110 1    
   216  109  230 1    
   217  110  111 1    
   218  110  112 1    
   219  110  231 1    
   220  111  232 1    
   221  111  233 1    
   222  111  234 1    
   223  112  113 2    
   224  112  114 am   BACKBONE|DICT|INTERRES
   225  114  115 1    
   226  114  235 1    
   227  115  116 1    
   228  115  117 1    
   229  115  236 1    
   230  116  237 1    
   231  116  238 1    
   232  116  239 1    
   233  117  118 2    
   234  117  119 am   BACKBONE|DICT|INTERRES
   235  119  120 1    
   236  119  240 1    
   237  120  121 1    
   238  120  124 1    
   239  120  241 1    
   240  121  122 am   BACKBONE|DICT|INTERRES
   241  121  123 2    
   242  122  242 1    
   243  122  243 1    
   244  124  125 1    
   245  124  244 1    
   246  124  245 1    
   247  125  126 1    
   248  126  246 1    
   249  126  247 1    
@<TRIPOS>SUBSTRUCTURE
     1 UNK         1 GROUP             0       ****    0 ROOT    
