@<TRIPOS>MOLECULE
3R540
247   249    1
SMALL
USER_CHARGES


@<TRIPOS>ATOM
      1 CA         -1.4898  -11.7030  -41.6104 C.3       0 UNK        -0.1800 
      2 C          -1.2516  -11.3486  -43.0694 C.2       0 UNK         0.5000 
      3 O          -0.1210  -11.4620  -43.5435 O.2       0 UNK        -0.5000 
      4 N          -2.3005  -10.8907  -43.7697 N.am      1 UNK        -0.5000 
      5 CA         -2.3815  -10.6213  -45.2202 C.3       1 UNK         0.1400 
      6 C6         -2.3681  -11.9204  -46.0763 C.3       23 UNK        -0.0398 
      7 S7         -3.6653  -13.1168  -45.6093 S.3       23 UNK        -0.2404 
      8 C8         -3.1528  -14.5636  -46.5918 C.3       23 UNK        -0.0205 
      9 C9         -4.0123  -15.7856  -46.2985 C.ar      23 UNK        -0.0193 
     10 C10        -4.8490  -16.3198  -47.2823 C.ar      23 UNK        -0.1150 
     11 C11        -5.6316  -17.4486  -47.0175 C.ar      23 UNK        -0.0193 
     12 C12        -5.5749  -18.0419  -45.7521 C.ar      23 UNK        -0.1150 
     13 C13        -4.7396  -17.5221  -44.7597 C.ar      23 UNK        -0.0193 
     14 C14        -3.9613  -16.3941  -45.0420 C.ar      23 UNK        -0.1150 
     15 C15        -4.7141  -18.1453  -43.3702 C.3       23 UNK        -0.0205 
     16 S16        -3.0246  -18.5428  -42.8224 S.3       23 UNK        -0.2404 
     17 C17        -2.8859  -20.3278  -43.1516 C.3       23 UNK        -0.0398 
     18 CA         -2.9363  -20.7874  -44.6351 C.3       11 UNK         0.1400 
     19 N          -1.9884  -20.0986  -45.5223 N.am      11 UNK        -0.5000 
     20 C          -1.9100  -20.2924  -46.8498 C.2       10 UNK         0.5000 
     21 O          -2.6726  -21.0227  -47.4797 O.2       10 UNK        -0.5000 
     22 CA         -0.7474  -19.6256  -47.6079 C.3       10 UNK         0.1400 
     23 CB         -1.1003  -18.1865  -48.0151 C.3       10 UNK        -0.1800 
     24 N           0.5136  -19.6623  -46.8631 N.am      10 UNK        -0.5000 
     25 C           1.1684  -20.7890  -46.5423 C.2       9 UNK         0.5000 
     26 O           0.7999  -21.9110  -46.8885 O.2       9 UNK        -0.5000 
     27 CA          2.4152  -20.6538  -45.6460 C.3       9 UNK         0.1400 
     28 CB          3.6503  -20.2712  -46.4740 C.3       9 UNK        -0.1800 
     29 N           2.2271  -19.6893  -44.5626 N.am      9 UNK        -0.5000 
     30 C           1.3319  -19.8293  -43.5735 C.2       8 UNK         0.5000 
     31 O           0.6362  -20.8340  -43.4175 O.2       8 UNK        -0.5000 
     32 CA          1.1313  -18.6115  -42.6496 C.3       8 UNK         0.1400 
     33 CB          2.1825  -18.5849  -41.5306 C.3       8 UNK        -0.1800 
     34 N           1.1567  -17.3409  -43.3794 N.am      8 UNK        -0.5000 
     35 C           0.3057  -17.0214  -44.3649 C.2       7 UNK         0.5000 
     36 O          -0.6127  -17.7453  -44.7313 O.2       7 UNK        -0.5000 
     37 CA          0.5614  -15.7126  -45.1191 C.3       7 UNK         0.1400 
     38 CB          0.0054  -14.5218  -44.3325 C.3       7 UNK        -0.1800 
     39 N           1.9851  -15.5370  -45.4082 N.am      7 UNK        -0.5000 
     40 C           2.6422  -16.2531  -46.3342 C.2       6 UNK         0.5000 
     41 O           2.0851  -17.0414  -47.0971 O.2       6 UNK        -0.5000 
     42 CA          4.1766  -16.1207  -46.3877 C.3       6 UNK         0.1400 
     43 CB          4.6324  -15.1603  -47.4952 C.3       6 UNK        -0.1800 
     44 N           4.7460  -15.7032  -45.1076 N.am      6 UNK        -0.5000 
     45 C           4.8820  -16.5229  -44.0559 C.2       5 UNK         0.5000 
     46 O           4.5901  -17.7192  -44.0848 O.2       5 UNK        -0.5000 
     47 CA          5.3698  -15.8876  -42.7394 C.3       5 UNK         0.1400 
     48 CB          6.9042  -15.8783  -42.6789 C.3       5 UNK        -0.1800 
     49 N           4.8682  -14.5248  -42.5388 N.am      5 UNK        -0.5000 
     50 C           3.5732  -14.2016  -42.4201 C.2       4 UNK         0.5000 
     51 O           2.6721  -15.0391  -42.4368 O.2       4 UNK        -0.5000 
     52 CA          3.2122  -12.7075  -42.2850 C.3       4 UNK         0.1400 
     53 CB          4.3631  -11.8476  -41.7185 C.3       4 UNK        -0.1800 
     54 N           2.7084  -12.1160  -43.5319 N.am      4 UNK        -0.5000 
     55 C           3.3261  -12.0711  -44.7241 C.2       3 UNK         0.5000 
     56 O           4.3754  -12.6688  -44.9674 O.2       3 UNK        -0.5000 
     57 CA          2.7076  -11.1875  -45.8262 C.3       3 UNK         0.1400 
     58 CB          2.0125  -12.0215  -46.9152 C.3       3 UNK        -0.1800 
     59 N           1.7518  -10.2084  -45.3058 N.am      3 UNK        -0.5000 
     60 C           1.7308   -8.9037  -45.6148 C.2       2 UNK         0.5000 
     61 O           2.5897   -8.3562  -46.3083 O.2       2 UNK        -0.5000 
     62 CA          0.5436   -8.0736  -45.0651 C.3       2 UNK         0.1400 
     63 CB          0.2309   -6.8286  -45.9214 C.3       2 UNK        -0.1800 
     64 N          -0.6667   -8.8762  -44.8438 N.am      2 UNK        -0.5000 
     65 C          -1.3451   -9.5959  -45.7522 C.2       1 UNK         0.5000 
     66 O          -1.1567   -9.5016  -46.9659 O.2       1 UNK        -0.5000 
     67 C          -2.7318  -22.3172  -44.6658 C.2       11 UNK         0.5000 
     68 O          -3.7092  -23.0624  -44.7403 O.2       11 UNK        -0.5000 
     69 N          -1.4639  -22.7474  -44.5805 N.am      12 UNK        -0.5000 
     70 CA         -1.0610  -24.1519  -44.5476 C.3       12 UNK         0.1400 
     71 CB          0.4109  -24.2501  -44.1170 C.3       12 UNK        -0.1800 
     72 C          -1.2919  -24.8739  -45.8862 C.2       12 UNK         0.5000 
     73 O          -1.8066  -25.9930  -45.8883 O.2       12 UNK        -0.5000 
     74 N          -0.9062  -24.2272  -46.9942 N.am      13 UNK        -0.5000 
     75 CA         -1.0731  -24.7470  -48.3511 C.3       13 UNK         0.1400 
     76 CB         -0.1901  -23.9373  -49.3120 C.3       13 UNK        -0.1800 
     77 C          -2.5419  -24.7272  -48.8089 C.2       13 UNK         0.5000 
     78 O          -3.0124  -25.7046  -49.3953 O.2       13 UNK        -0.5000 
     79 N          -3.2334  -23.6153  -48.5185 N.am      14 UNK        -0.5000 
     80 CA         -4.6272  -23.3229  -48.8496 C.3       14 UNK         0.1400 
     81 CB         -5.5637  -24.1844  -47.9726 C.3       14 UNK        -0.1800 
     82 C          -4.9167  -23.4367  -50.3631 C.2       14 UNK         0.5000 
     83 O          -4.0122  -23.2673  -51.1868 O.2       14 UNK        -0.5000 
     84 N          -6.1762  -23.7282  -50.7114 N.am      15 UNK        -0.5000 
     85 CA         -6.5746  -24.1341  -52.0595 C.3       15 UNK         0.1400 
     86 CB         -8.0755  -23.8639  -52.2417 C.3       15 UNK        -0.1800 
     87 C          -6.2482  -25.6176  -52.3340 C.2       15 UNK         0.5000 
     88 O          -6.1780  -26.0108  -53.4979 O.2       15 UNK        -0.5000 
     89 N          -6.0427  -26.4095  -51.2677 N.am      16 UNK        -0.5000 
     90 CA         -5.7610  -27.8481  -51.2971 C.3       16 UNK         0.1400 
     91 CB         -5.7227  -28.3787  -49.8553 C.3       16 UNK        -0.1800 
     92 C          -4.4638  -28.2161  -52.0411 C.2       16 UNK         0.5000 
     93 O          -4.4168  -29.2573  -52.6972 O.2       16 UNK        -0.5000 
     94 N          -3.4503  -27.3426  -51.9574 N.am      17 UNK        -0.5000 
     95 CA         -2.1879  -27.4566  -52.6921 C.3       17 UNK         0.1400 
     96 CB         -1.1635  -26.5019  -52.0622 C.3       17 UNK        -0.1800 
     97 C          -2.3178  -27.1786  -54.2051 C.2       17 UNK         0.5000 
     98 O          -1.3775  -27.4706  -54.9456 O.2       17 UNK        -0.5000 
     99 N          -3.4536  -26.6041  -54.6342 N.am      18 UNK        -0.5000 
    100 CA        -3.8544  -26.2267  -55.9957 C.3       18 UNK         0.1400 
    101 CB        -3.9027  -27.4490  -56.9322 C.3       18 UNK        -0.1800 
    102 C         -3.0246  -25.0808  -56.6036 C.2       18 UNK         0.5000 
    103 O         -3.5992  -24.0808  -57.0350 O.2       18 UNK        -0.5000 
    104 N         -1.6954  -25.2341  -56.6133 N.am      19 UNK        -0.5000 
    105 CA        -0.7351  -24.2687  -57.1490 C.3       19 UNK         0.1400 
    106 CB         0.6357  -24.9499  -57.2842 C.3       19 UNK        -0.1800 
    107 C         -0.6219  -22.9921  -56.2963 C.2       19 UNK         0.5000 
    108 O         -0.3736  -21.9185  -56.8466 O.2       19 UNK        -0.5000 
    109 N         -0.8055  -23.1288  -54.9745 N.am      20 UNK        -0.5000 
    110 CA        -0.7790  -22.0153  -54.0246 C.3       20 UNK         0.1400 
    111 CB        -0.6165  -22.5584  -52.5976 C.3       20 UNK        -0.1800 
    112 C         -2.0366  -21.1355  -54.1190 C.2       20 UNK         0.5000 
    113 O         -1.9307  -19.9167  -53.9786 O.2       20 UNK        -0.5000 
    114 N         -3.1984  -21.7744  -54.3381 N.am      21 UNK        -0.5000 
    115 CA        -4.5310  -21.1761  -54.5086 C.3       21 UNK         0.1400 
    116 CB        -4.6183  -20.4852  -55.8849 C.3       21 UNK        -0.1800 
    117 C         -4.9614  -20.2427  -53.3513 C.2       21 UNK         0.5000 
    118 O         -5.7248  -19.3008  -53.5704 O.2       21 UNK        -0.5000 
    119 N         -4.4452  -20.5106  -52.1443 N.am      22 UNK        -0.5000 
    120 CA        -4.5508  -19.6636  -50.9457 C.3       22 UNK         0.1400 
    121 C         -3.8531  -18.2708  -51.0775 C.2       22 UNK         0.5000 
    122 N         -2.8951  -18.0890  -51.9794 N.am      22 UNK        -0.7600 
    123 O         -4.1665  -17.3348  -50.3506 O.2       22 UNK        -0.5000 
    124 C124       -6.0088  -19.5897  -50.4029 C.3       23 UNK        -0.0398 
    125 S125       -6.0831  -19.6971  -48.5808 S.3       23 UNK        -0.2404 
    126 C126       -6.5604  -18.0091  -48.0864 C.3       23 UNK        -0.0205 
    127 H127       -2.5251  -11.5354  -41.3144 H         1 UNK         0.0600 
    128 H128       -0.8485  -11.0999  -40.9696 H         1 UNK         0.0600 
    129 H129       -1.2532  -12.7523  -41.4407 H         1 UNK         0.0600 
    130 H130       -3.1831  -10.7967  -43.2870 H         1 UNK         0.3000 
    131 H131       -3.3511  -10.1454  -45.3725 H         1 UNK         0.0600 
    132 H132       -2.5163  -11.6879  -47.1319 H         1 UNK         0.0800 
    133 H133       -1.3958  -12.4063  -46.0063 H         1 UNK         0.0800 
    134 H134       -3.1973  -14.3076  -47.6515 H         1 UNK         0.0800 
    135 H135       -2.1128  -14.8050  -46.3788 H         1 UNK         0.0800 
    136 H136       -4.8913  -15.8558  -48.2576 H         1 UNK         0.1150 
    137 H137       -6.1878  -18.9074  -45.5432 H         1 UNK         0.1150 
    138 H138       -3.3159  -15.9837  -44.2781 H         1 UNK         0.1150 
    139 H139       -5.1461  -17.4311  -42.6680 H         1 UNK         0.0800 
    140 H140       -5.3400  -19.0377  -43.3233 H         1 UNK         0.0800 
    141 H141       -3.6739  -20.8242  -42.5818 H         1 UNK         0.0800 
    142 H142       -1.9485  -20.6452  -42.6912 H         1 UNK         0.0800 
    143 H143       -3.9368  -20.5813  -45.0204 H         1 UNK         0.0600 
    144 H144       -1.3796  -19.4032  -45.0957 H         1 UNK         0.3000 
    145 H145       -0.5914  -20.1943  -48.5272 H         1 UNK         0.0600 
    146 H146       -0.2844  -17.7169  -48.5645 H         1 UNK         0.0600 
    147 H147       -1.3340  -17.5598  -47.1562 H         1 UNK         0.0600 
    148 H148       -1.9779  -18.1754  -48.6619 H         1 UNK         0.0600 
    149 H149        0.8872  -18.7709  -46.5614 H         1 UNK         0.3000 
    150 H150        2.6038  -21.6284  -45.1911 H         1 UNK         0.0600 
    151 H151        3.8521  -21.0225  -47.2385 H         1 UNK         0.0600 
    152 H152        4.5392  -20.1963  -45.8473 H         1 UNK         0.0600 
    153 H153        3.5170  -19.3170  -46.9825 H         1 UNK         0.0600 
    154 H154        2.7980  -18.8529  -44.5847 H         1 UNK         0.3000 
    155 H155        0.1458  -18.7060  -42.1891 H         1 UNK         0.0600 
    156 H156        2.1457  -19.5016  -40.9408 H         1 UNK         0.0600 
    157 H157        2.0114  -17.7513  -40.8492 H         1 UNK         0.0600 
    158 H158        3.1935  -18.4905  -41.9266 H         1 UNK         0.0600 
    159 H159        1.8550  -16.6580  -43.1002 H         1 UNK         0.3000 
    160 H160        0.0283  -15.7607  -46.0704 H         1 UNK         0.0600 
    161 H161        0.4203  -14.4445  -43.3315 H         1 UNK         0.0600 
    162 H162       -1.0749  -14.5976  -44.2191 H         1 UNK         0.0600 
    163 H163        0.2135  -13.5933  -44.8489 H         1 UNK         0.0600 
    164 H164        2.5137  -14.9642  -44.7664 H         1 UNK         0.3000 
    165 H165        4.5700  -17.1085  -46.6363 H         1 UNK         0.0600 
    166 H166        5.7037  -15.2552  -47.6725 H         1 UNK         0.0600 
    167 H167        4.1278  -15.3741  -48.4384 H         1 UNK         0.0600 
    168 H168        4.4362  -14.1215  -47.2397 H         1 UNK         0.0600 
    169 H169        4.9525  -14.7159  -44.9968 H         1 UNK         0.3000 
    170 H170        4.9985  -16.5049  -41.9187 H         1 UNK         0.0600 
    171 H171        7.3344  -15.2518  -43.4613 H         1 UNK         0.0600 
    172 H172        7.2589  -15.5070  -41.7173 H         1 UNK         0.0600 
    173 H173        7.3056  -16.8847  -42.8057 H         1 UNK         0.0600 
    174 H174        5.5506  -13.7808  -42.5498 H         1 UNK         0.3000 
    175 H175        2.3880  -12.6613  -41.5714 H         1 UNK         0.0600 
    176 H176        5.2027  -11.7695  -42.4100 H         1 UNK         0.0600 
    177 H177        4.0200  -10.8349  -41.5064 H         1 UNK         0.0600 
    178 H178        4.7394  -12.2608  -40.7817 H         1 UNK         0.0600 
    179 H179        1.7897  -11.6910  -43.4564 H         1 UNK         0.3000 
    180 H180        3.5498  -10.6711  -46.2910 H         1 UNK         0.0600 
    181 H181        1.7013  -11.3885  -47.7475 H         1 UNK         0.0600 
    182 H182        1.1234  -12.5250  -46.5403 H         1 UNK         0.0600 
    183 H183        2.6752  -12.7821  -47.3228 H         1 UNK         0.0600 
    184 H184        1.0069  -10.5760  -44.7195 H         1 UNK         0.3000 
    185 H185        0.8569   -7.7232  -44.0809 H         1 UNK         0.0600 
    186 H186       -0.6105   -6.2699  -45.5122 H         1 UNK         0.0600 
    187 H187        1.0845   -6.1505  -45.9516 H         1 UNK         0.0600 
    188 H188       -0.0107   -7.0933  -46.9509 H         1 UNK         0.0600 
    189 H189       -0.9040   -9.0392  -43.8753 H         1 UNK         0.3000 
    190 H190       -0.7230  -22.0609  -44.4872 H         1 UNK         0.3000 
    191 H191       -1.6660  -24.6557  -43.7908 H         1 UNK         0.0600 
    192 H192        0.5638  -23.8059  -43.1332 H         1 UNK         0.0600 
    193 H193        1.0722  -23.7407  -44.8184 H         1 UNK         0.0600 
    194 H194        0.7323  -25.2906  -44.0584 H         1 UNK         0.0600 
    195 H195       -0.4427  -23.3260  -46.9031 H         1 UNK         0.3000 
    196 H196       -0.7299  -25.7836  -48.3677 H         1 UNK         0.0600 
    197 H197        0.8561  -23.9686  -49.0075 H         1 UNK         0.0600 
    198 H198       -0.4937  -22.8903  -49.3550 H         1 UNK         0.0600 
    199 H199       -0.2445  -24.3399  -50.3222 H         1 UNK         0.0600 
    200 H200       -2.7525  -22.8485  -48.0570 H         1 UNK         0.3000 
    201 H201       -4.7859  -22.2789  -48.5840 H         1 UNK         0.0600 
    202 H202       -5.2868  -24.1073  -46.9201 H         1 UNK         0.0600 
    203 H203       -5.5218  -25.2400  -48.2459 H         1 UNK         0.0600 
    204 H204       -6.6007  -23.8564  -48.0477 H         1 UNK         0.0600 
    205 H205       -6.8783  -23.8063  -49.9896 H         1 UNK         0.3000 
    206 H206       -6.0311  -23.5343  -52.7921 H         1 UNK         0.0600 
    207 H207       -8.6780  -24.4404  -51.5382 H         1 UNK         0.0600 
    208 H208       -8.3052  -22.8075  -52.0960 H         1 UNK         0.0600 
    209 H209       -8.4015  -24.1304  -53.2486 H         1 UNK         0.0600 
    210 H210       -6.0914  -25.9899  -50.3521 H         1 UNK         0.3000 
    211 H211       -6.5878  -28.3343  -51.8200 H         1 UNK         0.0600 
    212 H212       -4.9345  -27.8993  -49.2717 H         1 UNK         0.0600 
    213 H213       -5.5363  -29.4539  -49.8384 H         1 UNK         0.0600 
    214 H214       -6.6709  -28.2068  -49.3455 H         1 UNK         0.0600 
    215 H215       -3.5413  -26.5516  -51.3291 H         1 UNK         0.3000 
    216 H216       -1.8152  -28.4774  -52.5823 H         1 UNK         0.0600 
    217 H217       -0.2103  -26.5313  -52.5921 H         1 UNK         0.0600 
    218 H218       -0.9641  -26.7708  -51.0248 H         1 UNK         0.0600 
    219 H219       -1.5218  -25.4731  -52.0794 H         1 UNK         0.0600 
    220 H220       -4.1672  -26.4210  -53.9380 H         1 UNK         0.3000 
    221 H221       -4.8760  -25.8534  -55.9057 H         1 UNK         0.0600 
    222 H222       -2.9164  -27.8859  -57.0918 H         1 UNK         0.0600 
    223 H223       -4.5519  -28.2267  -56.5285 H         1 UNK         0.0600 
    224 H224       -4.2971  -27.1718  -57.9108 H         1 UNK         0.0600 
    225 H225       -1.3222  -26.0855  -56.1995 H         1 UNK         0.3000 
    226 H226       -1.0702  -23.9724  -58.1456 H         1 UNK         0.0600 
    227 H227        0.5834  -25.8100  -57.9520 H         1 UNK         0.0600 
    228 H228        1.3758  -24.2625  -57.6973 H         1 UNK         0.0600 
    229 H229        1.0099  -25.2967  -56.3196 H         1 UNK         0.0600 
    230 H230       -0.9881  -24.0500  -54.6064 H         1 UNK         0.3000 
    231 H231        0.0877  -21.3897  -54.2496 H         1 UNK         0.0600 
    232 H232       -0.5157  -21.7428  -51.8803 H         1 UNK         0.0600 
    233 H233        0.2745  -23.1802  -52.5094 H         1 UNK         0.0600 
    234 H234       -1.4775  -23.1527  -52.2915 H         1 UNK         0.0600 
    235 H235       -3.1627  -22.7787  -54.4297 H         1 UNK         0.3000 
    236 H236       -5.2413  -22.0037  -54.5112 H         1 UNK         0.0600 
    237 H237       -3.9669  -19.6119  -55.9385 H         1 UNK         0.0600 
    238 H238       -4.3305  -21.1672  -56.6856 H         1 UNK         0.0600 
    239 H239       -5.6351  -20.1515  -56.0959 H         1 UNK         0.0600 
    240 H240       -3.8802  -21.3459  -52.0414 H         1 UNK         0.3000 
    241 H241       -3.9470  -20.1917  -50.2064 H         1 UNK         0.0600 
    242 H242       -2.6232  -18.8228  -52.6290 H         1 UNK         0.3800 
    243 H243       -2.4580  -17.1847  -52.0477 H         1 UNK         0.3800 
    244 H244       -6.5875  -20.4379  -50.7718 H         1 UNK         0.0800 
    245 H245       -6.5320  -18.7074  -50.7740 H         1 UNK         0.0800 
    246 H246       -6.5779  -17.3476  -48.9532 H         1 UNK         0.0800 
    247 H247       -7.5801  -18.0295  -47.6998 H         1 UNK         0.0800 
@<TRIPOS>BOND
     1    1    2 1    
     2    1  127 1    
     3    1  128 1    
     4    1  129 1    
     5    2    3 2    
     6    2    4 am   BACKBONE|DICT|INTERRES
     7    4    5 1    
     8    4  130 1    
     9    5    6 1    
    10    5   65 1    
    11    5  131 1    
    12    6    7 1    
    13    6  132 1    
    14    6  133 1    
    15    7    8 1    
    16    8    9 1    
    17    8  134 1    
    18    8  135 1    
    19    9   10 ar   
    20    9   14 ar   
    21   10   11 ar   
    22   10  136 1    
    23   11   12 ar   
    24   11  126 1    
    25   12   13 ar   
    26   12  137 1    
    27   13   14 ar   
    28   13   15 1    
    29   14  138 1    
    30   15   16 1    
    31   15  139 1    
    32   15  140 1    
    33   16   17 1    
    34   17   18 1    
    35   17  141 1    
    36   17  142 1    
    37   18   19 1    
    38   18   67 1    
    39   18  143 1    
    40   19   20 am   BACKBONE|DICT|INTERRES
    41   19  144 1    
    42   20   21 2    
    43   20   22 1    
    44   22   23 1    
    45   22   24 1    
    46   22  145 1    
    47   23  146 1    
    48   23  147 1    
    49   23  148 1    
    50   24   25 am   BACKBONE|DICT|INTERRES
    51   24  149 1    
    52   25   26 2    
    53   25   27 1    
    54   27   28 1    
    55   27   29 1    
    56   27  150 1    
    57   28  151 1    
    58   28  152 1    
    59   28  153 1    
    60   29   30 am   BACKBONE|DICT|INTERRES
    61   29  154 1    
    62   30   31 2    
    63   30   32 1    
    64   32   33 1    
    65   32   34 1    
    66   32  155 1    
    67   33  156 1    
    68   33  157 1    
    69   33  158 1    
    70   34   35 am   BACKBONE|DICT|INTERRES
    71   34  159 1    
    72   35   36 2    
    73   35   37 1    
    74   37   38 1    
    75   37   39 1    
    76   37  160 1    
    77   38  161 1    
    78   38  162 1    
    79   38  163 1    
    80   39   40 am   BACKBONE|DICT|INTERRES
    81   39  164 1    
    82   40   41 2    
    83   40   42 1    
    84   42   43 1    
    85   42   44 1    
    86   42  165 1    
    87   43  166 1    
    88   43  167 1    
    89   43  168 1    
    90   44   45 am   BACKBONE|DICT|INTERRES
    91   44  169 1    
    92   45   46 2    
    93   45   47 1    
    94   47   48 1    
    95   47   49 1    
    96   47  170 1    
    97   48  171 1    
    98   48  172 1    
    99   48  173 1    
   100   49   50 am   BACKBONE|DICT|INTERRES
   101   49  174 1    
   102   50   51 2    
   103   50   52 1    
   104   52   53 1    
   105   52   54 1    
   106   52  175 1    
   107   53  176 1    
   108   53  177 1    
   109   53  178 1    
   110   54   55 am   BACKBONE|DICT|INTERRES
   111   54  179 1    
   112   55   56 2    
   113   55   57 1    
   114   57   58 1    
   115   57   59 1    
   116   57  180 1    
   117   58  181 1    
   118   58  182 1    
   119   58  183 1    
   120   59   60 am   BACKBONE|DICT|INTERRES
   121   59  184 1    
   122   60   61 2    
   123   60   62 1    
   124   62   63 1    
   125   62   64 1    
   126   62  185 1    
   127   63  186 1    
   128   63  187 1    
   129   63  188 1    
   130   64   65 am   BACKBONE|DICT|INTERRES
   131   64  189 1    
   132   65   66 2    
   133   67   68 2    
   134   67   69 am   BACKBONE|DICT|INTERRES
   135   69   70 1    
   136   69  190 1    
   137   70   71 1    
   138   70   72 1    
   139   70  191 1    
   140   71  192 1    
   141   71  193 1    
   142   71  194 1    
   143   72   73 2    
   144   72   74 am   BACKBONE|DICT|INTERRES
   145   74   75 1    
   146   74  195 1    
   147   75   76 1    
   148   75   77 1    
   149   75  196 1    
   150   76  197 1    
   151   76  198 1    
   152   76  199 1    
   153   77   78 2    
   154   77   79 am   BACKBONE|DICT|INTERRES
   155   79   80 1    
   156   79  200 1    
   157   80   81 1    
   158   80   82 1    
   159   80  201 1    
   160   81  202 1    
   161   81  203 1    
   162   81  204 1    
   163   82   83 2    
   164   82   84 am   BACKBONE|DICT|INTERRES
   165   84   85 1    
   166   84  205 1    
   167   85   86 1    
   168   85   87 1    
   169   85  206 1    
   170   86  207 1    
   171   86  208 1    
   172   86  209 1    
   173   87   88 2    
   174   87   89 am   BACKBONE|DICT|INTERRES
   175   89   90 1    
   176   89  210 1    
   177   90   91 1    
   178   90   92 1    
   179   90  211 1    
   180   91  212 1    
   181   91  213 1    
   182   91  214 1    
   183   92   93 2    
   184   92   94 am   BACKBONE|DICT|INTERRES
   185   94   95 1    
   186   94  215 1    
   187   95   96 1    
   188   95   97 1    
   189   95  216 1    
   190   96  217 1    
   191   96  218 1    
   192   96  219 1    
   193   97   98 2    
   194   97   99 am   BACKBONE|DICT|INTERRES
   195   99  100 1    
   196   99  220 1    
   197  100  101 1    
   198  100  102 1    
   199  100  221 1    
   200  101  222 1    
   201  101  223 1    
   202  101  224 1    
   203  102  103 2    
   204  102  104 am   BACKBONE|DICT|INTERRES
   205  104  105 1    
   206  104  225 1    
   207  105  106 1    
   208  105  107 1    
   209  105  226 1    
   210  106  227 1    
   211  106  228 1    
   212  106  229 1    
   213  107  108 2    
   214  107  109 am   BACKBONE|DICT|INTERRES
   215  109  110 1    
   216  109  230 1    
   217  110  111 1    
   218  110  112 1    
   219  110  231 1    
   220  111  232 1    
   221  111  233 1    
   222  111  234 1    
   223  112  113 2    
   224  112  114 am   BACKBONE|DICT|INTERRES
   225  114  115 1    
   226  114  235 1    
   227  115  116 1    
   228  115  117 1    
   229  115  236 1    
   230  116  237 1    
   231  116  238 1    
   232  116  239 1    
   233  117  118 2    
   234  117  119 am   BACKBONE|DICT|INTERRES
   235  119  120 1    
   236  119  240 1    
   237  120  121 1    
   238  120  124 1    
   239  120  241 1    
   240  121  122 am   BACKBONE|DICT|INTERRES
   241  121  123 2    
   242  122  242 1    
   243  122  243 1    
   244  124  125 1    
   245  124  244 1    
   246  124  245 1    
   247  125  126 1    
   248  126  246 1    
   249  126  247 1    
@<TRIPOS>SUBSTRUCTURE
     1 UNK         1 GROUP             0       ****    0 ROOT    
