@<TRIPOS>MOLECULE
3R540
247   249    1
SMALL
USER_CHARGES


@<TRIPOS>ATOM
      1 CA         -1.0843  -12.4510  -52.6552 C.3       0 UNK        -0.1800 
      2 C          -1.7974  -12.9485  -51.4014 C.2       0 UNK         0.5000 
      3 O          -3.0262  -12.9620  -51.3689 O.2       0 UNK        -0.5000 
      4 N          -1.0892  -13.3698  -50.3489 N.am      1 UNK        -0.5000 
      5 CA          0.3582  -13.3049  -50.1523 C.3       1 UNK         0.1400 
      6 C6          0.9944  -14.7146  -50.0419 C.3       23 UNK        -0.0398 
      7 S7          1.4349  -15.4442  -51.6571 S.3       23 UNK        -0.2404 
      8 C8         -0.0881  -16.2707  -52.2250 C.3       23 UNK        -0.0205 
      9 C9         -0.7251  -17.1681  -51.1753 C.ar      23 UNK        -0.0193 
     10 C10        -1.9174  -16.7767  -50.5641 C.ar      23 UNK        -0.1150 
     11 C11        -2.5381  -17.5932  -49.6181 C.ar      23 UNK        -0.0193 
     12 C12        -1.9459  -18.8117  -49.2739 C.ar      23 UNK        -0.1150 
     13 C13        -0.7428  -19.2104  -49.8676 C.ar      23 UNK        -0.0193 
     14 C14        -0.1410  -18.3881  -50.8253 C.ar      23 UNK        -0.1150 
     15 C15        -0.0985  -20.5291  -49.4726 C.3       23 UNK        -0.0205 
     16 S16         0.4635  -20.4922  -47.7442 S.3       23 UNK        -0.2404 
     17 C17         0.8906  -22.2426  -47.4772 C.3       23 UNK        -0.0398 
     18 CA         -0.1501  -23.0675  -46.6798 C.3       11 UNK         0.1400 
     19 N          -0.1925  -22.7286  -45.2517 N.am      11 UNK        -0.5000 
     20 C          -0.6891  -23.5446  -44.3080 C.2       10 UNK         0.5000 
     21 O          -1.2019  -24.6365  -44.5583 O.2       10 UNK        -0.5000 
     22 CA         -0.6601  -23.0436  -42.8545 C.3       10 UNK         0.1400 
     23 CB          0.7687  -23.0372  -42.2910 C.3       10 UNK        -0.1800 
     24 N          -1.2559  -21.7161  -42.7294 N.am      10 UNK        -0.5000 
     25 C          -2.5571  -21.4527  -42.9124 C.2       9 UNK         0.5000 
     26 O          -3.4019  -22.3204  -43.1303 O.2       9 UNK        -0.5000 
     27 CA         -2.9843  -19.9750  -42.8706 C.3       9 UNK         0.1400 
     28 CB         -3.3838  -19.5579  -41.4468 C.3       9 UNK        -0.1800 
     29 N          -1.9320  -19.0873  -43.3653 N.am      9 UNK        -0.5000 
     30 C          -1.6321  -18.9245  -44.6615 C.2       8 UNK         0.5000 
     31 O          -2.2498  -19.4677  -45.5761 O.2       8 UNK        -0.5000 
     32 CA         -0.4256  -18.0228  -44.9858 C.3       8 UNK         0.1400 
     33 CB         -0.8600  -16.5526  -45.0765 C.3       8 UNK        -0.1800 
     34 N           0.6672  -18.1557  -44.0183 N.am      8 UNK        -0.5000 
     35 C           1.3892  -19.2736  -43.8406 C.2       7 UNK         0.5000 
     36 O           1.2293  -20.3052  -44.4917 O.2       7 UNK        -0.5000 
     37 CA          2.4228  -19.2636  -42.6970 C.3       7 UNK         0.1400 
     38 CB          3.7601  -18.6886  -43.1867 C.3       7 UNK        -0.1800 
     39 N           1.9848  -18.5185  -41.5149 N.am      7 UNK        -0.5000 
     40 C           0.8520  -18.7303  -40.8297 C.2       6 UNK         0.5000 
     41 O           0.0630  -19.6357  -41.0978 O.2       6 UNK        -0.5000 
     42 CA          0.5179  -17.7626  -39.6746 C.3       6 UNK         0.1400 
     43 CB          0.5640  -18.5000  -38.3274 C.3       6 UNK        -0.1800 
     44 N           1.3781  -16.5764  -39.5936 N.am      6 UNK        -0.5000 
     45 C           1.4572  -15.5992  -40.5061 C.2       5 UNK         0.5000 
     46 O           0.8227  -15.5925  -41.5660 O.2       5 UNK        -0.5000 
     47 CA          2.4550  -14.4745  -40.1962 C.3       5 UNK         0.1400 
     48 CB          3.9057  -14.9916  -40.2772 C.3       5 UNK        -0.1800 
     49 N           2.2640  -13.3968  -41.1574 N.am      5 UNK        -0.5000 
     50 C           2.6995  -12.1385  -41.0320 C.2       4 UNK         0.5000 
     51 O           3.2629  -11.7118  -40.0220 O.2       4 UNK        -0.5000 
     52 CA          2.4718  -11.2126  -42.2490 C.3       4 UNK         0.1400 
     53 CB          3.4182   -9.9940  -42.2617 C.3       4 UNK        -0.1800 
     54 N           2.5290  -11.9194  -43.5365 N.am      4 UNK        -0.5000 
     55 C           3.5567  -12.6302  -44.0315 C.2       3 UNK         0.5000 
     56 O           4.6380  -12.7817  -43.4622 O.2       3 UNK        -0.5000 
     57 CA          3.3265  -13.2938  -45.4016 C.3       3 UNK         0.1400 
     58 CB          2.7017  -14.6859  -45.2164 C.3       3 UNK        -0.1800 
     59 N           2.4746  -12.4942  -46.2857 N.am      3 UNK        -0.5000 
     60 C           2.8306  -11.3263  -46.8374 C.2       2 UNK         0.5000 
     61 O           3.9371  -10.8080  -46.6765 O.2       2 UNK        -0.5000 
     62 CA          1.7789  -10.6520  -47.7428 C.3       2 UNK         0.1400 
     63 CB          2.2398   -9.2821  -48.2733 C.3       2 UNK        -0.1800 
     64 N           1.4310  -11.5038  -48.8817 N.am      2 UNK        -0.5000 
     65 C           0.5658  -12.5238  -48.8455 C.2       1 UNK         0.5000 
     66 O          -0.0413  -12.8673  -47.8274 O.2       1 UNK        -0.5000 
     67 C          -1.5466  -23.1122  -47.3412 C.2       11 UNK         0.5000 
     68 O          -1.7012  -23.7831  -48.3637 O.2       11 UNK        -0.5000 
     69 N          -2.5549  -22.4707  -46.7283 N.am      12 UNK        -0.5000 
     70 CA         -3.9669  -22.5991  -47.1020 C.3       12 UNK         0.1400 
     71 CB         -4.8359  -21.6461  -46.2708 C.3       12 UNK        -0.1800 
     72 C          -4.4866  -24.0470  -47.0122 C.2       12 UNK         0.5000 
     73 O          -5.3141  -24.4420  -47.8333 O.2       12 UNK        -0.5000 
     74 N          -3.9541  -24.8184  -46.0558 N.am      13 UNK        -0.5000 
     75 CA         -4.1918  -26.2512  -45.9282 C.3       13 UNK         0.1400 
     76 CB         -4.2601  -26.6237  -44.4380 C.3       13 UNK        -0.1800 
     77 C          -3.0930  -27.0510  -46.6474 C.2       13 UNK         0.5000 
     78 O          -3.4053  -27.8851  -47.4972 O.2       13 UNK        -0.5000 
     79 N          -1.8273  -26.7904  -46.2897 N.am      14 UNK        -0.5000 
     80 CA         -0.6731  -27.6170  -46.6533 C.3       14 UNK         0.1400 
     81 CB          0.5227  -27.2281  -45.7702 C.3       14 UNK        -0.1800 
     82 C          -0.2795  -27.5743  -48.1412 C.2       14 UNK         0.5000 
     83 O           0.2731  -28.5570  -48.6371 O.2       14 UNK        -0.5000 
     84 N          -0.5585  -26.4564  -48.8224 N.am      15 UNK        -0.5000 
     85 CA         -0.2480  -26.2421  -50.2386 C.3       15 UNK         0.1400 
     86 CB          0.7841  -25.1063  -50.3575 C.3       15 UNK        -0.1800 
     87 C          -1.5146  -25.9244  -51.0525 C.2       15 UNK         0.5000 
     88 O          -1.3968  -25.4343  -52.1768 O.2       15 UNK        -0.5000 
     89 N          -2.7005  -26.1595  -50.4666 N.am      16 UNK        -0.5000 
     90 CA         -4.0297  -25.8660  -51.0183 C.3       16 UNK         0.1400 
     91 CB         -4.3648  -26.8503  -52.1575 C.3       16 UNK        -0.1800 
     92 C          -4.1883  -24.3888  -51.4407 C.2       16 UNK         0.5000 
     93 O          -4.7343  -24.0992  -52.5089 O.2       16 UNK        -0.5000 
     94 N          -3.6408  -23.4810  -50.6168 N.am      17 UNK        -0.5000 
     95 CA         -3.5966  -22.0296  -50.8226 C.3       17 UNK         0.1400 
     96 CB         -5.0218  -21.4363  -50.8057 C.3       17 UNK        -0.1800 
     97 C          -2.7810  -21.6162  -52.0623 C.2       17 UNK         0.5000 
     98 O          -3.0693  -20.5810  -52.6594 O.2       17 UNK        -0.5000 
     99 N          -1.8039  -22.4536  -52.4468 N.am      18 UNK        -0.5000 
    100 CA        -0.9987  -22.3607  -53.6687 C.3       18 UNK         0.1400 
    101 CB        -0.0296  -21.1629  -53.5964 C.3       18 UNK        -0.1800 
    102 C         -1.8787  -22.3778  -54.9384 C.2       18 UNK         0.5000 
    103 O         -1.6395  -21.6113  -55.8723 O.2       18 UNK        -0.5000 
    104 N         -2.9003  -23.2491  -54.9162 N.am      19 UNK        -0.5000 
    105 CA        -3.9910  -23.3757  -55.8863 C.3       19 UNK         0.1400 
    106 CB        -3.4661  -23.7766  -57.2816 C.3       19 UNK        -0.1800 
    107 C         -4.8943  -22.1245  -55.8975 C.2       19 UNK         0.5000 
    108 O         -5.1639  -21.5619  -56.9603 O.2       19 UNK        -0.5000 
    109 N         -5.3479  -21.7294  -54.6973 N.am      20 UNK        -0.5000 
    110 CA        -6.2417  -20.5991  -54.4108 C.3       20 UNK         0.1400 
    111 CB        -7.6572  -20.8785  -54.9576 C.3       20 UNK        -0.1800 
    112 C         -5.6725  -19.2377  -54.8662 C.2       20 UNK         0.5000 
    113 O         -6.3485  -18.4768  -55.5613 O.2       20 UNK        -0.5000 
    114 N         -4.4292  -18.9566  -54.4604 N.am      21 UNK        -0.5000 
    115 CA        -3.6942  -17.7338  -54.7851 C.3       21 UNK         0.1400 
    116 CB        -2.1903  -18.0327  -54.6999 C.3       21 UNK        -0.1800 
    117 C         -4.0521  -16.5336  -53.8848 C.2       21 UNK         0.5000 
    118 O         -3.5948  -15.4264  -54.1713 O.2       21 UNK        -0.5000 
    119 N         -4.8256  -16.7625  -52.8136 N.am      22 UNK        -0.5000 
    120 CA        -5.2563  -15.7461  -51.8406 C.3       22 UNK         0.1400 
    121 C         -6.0894  -14.6033  -52.4871 C.2       22 UNK         0.5000 
    122 N         -5.6508  -13.3582  -52.3698 N.am      22 UNK        -0.7600 
    123 O         -7.1509  -14.8385  -53.0600 O.2       22 UNK        -0.5000 
    124 C124       -6.0288  -16.3549  -50.6390 C.3       23 UNK        -0.0398 
    125 S125       -5.2716  -17.8299  -49.8722 S.3       23 UNK        -0.2404 
    126 C126       -3.8428  -17.1594  -48.9677 C.3       23 UNK        -0.0205 
    127 H127       -1.7887  -12.3642  -53.4829 H         1 UNK         0.0600 
    128 H128       -0.2977  -13.1386  -52.9646 H         1 UNK         0.0600 
    129 H129       -0.6458  -11.4687  -52.4801 H         1 UNK         0.0600 
    130 H130       -1.5900  -13.6415  -49.5139 H         1 UNK         0.3000 
    131 H131        0.8488  -12.7496  -50.9527 H         1 UNK         0.0600 
    132 H132        1.9342  -14.6660  -49.4879 H         1 UNK         0.0800 
    133 H133        0.3627  -15.3929  -49.4672 H         1 UNK         0.0800 
    134 H134        0.1555  -16.8709  -53.1023 H         1 UNK         0.0800 
    135 H135       -0.8004  -15.5202  -52.5685 H         1 UNK         0.0800 
    136 H136       -2.3604  -15.8311  -50.8295 H         1 UNK         0.1150 
    137 H137       -2.4142  -19.4457  -48.5332 H         1 UNK         0.1150 
    138 H138        0.7842  -18.6902  -51.2954 H         1 UNK         0.1150 
    139 H139       -0.8132  -21.3381  -49.6114 H         1 UNK         0.0800 
    140 H140        0.7511  -20.7549  -50.1189 H         1 UNK         0.0800 
    141 H141        1.0829  -22.7123  -48.4415 H         1 UNK         0.0800 
    142 H142        1.8471  -22.2698  -46.9535 H         1 UNK         0.0800 
    143 H143        0.2096  -24.0964  -46.7289 H         1 UNK         0.0600 
    144 H144        0.2152  -21.8349  -44.9834 H         1 UNK         0.3000 
    145 H145       -1.2525  -23.7352  -42.2515 H         1 UNK         0.0600 
    146 H146        0.7844  -22.6851  -41.2593 H         1 UNK         0.0600 
    147 H147        1.4344  -22.4001  -42.8715 H         1 UNK         0.0600 
    148 H148        1.1920  -24.0423  -42.2993 H         1 UNK         0.0600 
    149 H149       -0.6384  -20.9519  -42.4790 H         1 UNK         0.3000 
    150 H150       -3.8619  -19.8650  -43.5116 H         1 UNK         0.0600 
    151 H151       -4.2057  -20.1735  -41.0792 H         1 UNK         0.0600 
    152 H152       -3.7175  -18.5206  -41.4187 H         1 UNK         0.0600 
    153 H153       -2.5579  -19.6643  -40.7435 H         1 UNK         0.0600 
    154 H154       -1.3375  -18.6594  -42.6700 H         1 UNK         0.3000 
    155 H155       -0.0472  -18.3159  -45.9653 H         1 UNK         0.0600 
    156 H156       -1.7106  -16.4372  -45.7499 H         1 UNK         0.0600 
    157 H157       -0.0573  -15.9305  -45.4695 H         1 UNK         0.0600 
    158 H158       -1.1520  -16.1557  -44.1034 H         1 UNK         0.0600 
    159 H159        0.8454  -17.3625  -43.4170 H         1 UNK         0.3000 
    160 H160        2.5864  -20.2979  -42.3896 H         1 UNK         0.0600 
    161 H161        3.6685  -17.6387  -43.4674 H         1 UNK         0.0600 
    162 H162        4.1223  -19.2321  -44.0605 H         1 UNK         0.0600 
    163 H163        4.5284  -18.7647  -42.4170 H         1 UNK         0.0600 
    164 H164        2.5725  -17.7535  -41.2216 H         1 UNK         0.3000 
    165 H165       -0.5054  -17.4190  -39.8390 H         1 UNK         0.0600 
    166 H166        0.2406  -17.8534  -37.5115 H         1 UNK         0.0600 
    167 H167       -0.0973  -19.3677  -38.3315 H         1 UNK         0.0600 
    168 H168        1.5695  -18.8551  -38.0982 H         1 UNK         0.0600 
    169 H169        1.9488  -16.5061  -38.7631 H         1 UNK         0.3000 
    170 H170        2.2481  -14.1013  -39.1911 H         1 UNK         0.0600 
    171 H171        4.1416  -15.3651  -41.2747 H         1 UNK         0.0600 
    172 H172        4.6219  -14.2043  -40.0419 H         1 UNK         0.0600 
    173 H173        4.0819  -15.8026  -39.5700 H         1 UNK         0.0600 
    174 H174        1.7555  -13.6716  -41.9884 H         1 UNK         0.3000 
    175 H175        1.4528  -10.8355  -42.1519 H         1 UNK         0.0600 
    176 H176        4.4655  -10.2958  -42.2940 H         1 UNK         0.0600 
    177 H177        3.2270   -9.3558  -43.1244 H         1 UNK         0.0600 
    178 H178        3.2814   -9.3813  -41.3699 H         1 UNK         0.0600 
    179 H179        1.6892  -11.8716  -44.0956 H         1 UNK         0.3000 
    180 H180        4.2987  -13.4154  -45.8841 H         1 UNK         0.0600 
    181 H181        1.7416  -14.6278  -44.7030 H         1 UNK         0.0600 
    182 H182        3.3512  -15.3276  -44.6196 H         1 UNK         0.0600 
    183 H183        2.5443  -15.1830  -46.1739 H         1 UNK         0.0600 
    184 H184        1.5537  -12.8596  -46.5031 H         1 UNK         0.3000 
    185 H185        0.8875  -10.4850  -47.1342 H         1 UNK         0.0600 
    186 H186        3.1276   -9.3688  -48.9010 H         1 UNK         0.0600 
    187 H187        1.4574   -8.8052  -48.8638 H         1 UNK         0.0600 
    188 H188        2.4815   -8.6057  -47.4523 H         1 UNK         0.0600 
    189 H189        1.9186  -11.3042  -49.7435 H         1 UNK         0.3000 
    190 H190       -2.3454  -21.8912  -45.9266 H         1 UNK         0.3000 
    191 H191       -4.0602  -22.2882  -48.1370 H         1 UNK         0.0600 
    192 H192       -4.5110  -20.6122  -46.3842 H         1 UNK         0.0600 
    193 H193       -4.8153  -21.8960  -45.2119 H         1 UNK         0.0600 
    194 H194       -5.8766  -21.6922  -46.5938 H         1 UNK         0.0600 
    195 H195       -3.2566  -24.4192  -45.4401 H         1 UNK         0.3000 
    196 H196       -5.1507  -26.5159  -46.3791 H         1 UNK         0.0600 
    197 H197       -5.0868  -26.1118  -43.9452 H         1 UNK         0.0600 
    198 H198       -3.3442  -26.3605  -43.9074 H         1 UNK         0.0600 
    199 H199       -4.4186  -27.6952  -44.3101 H         1 UNK         0.0600 
    200 H200       -1.6525  -26.0617  -45.6004 H         1 UNK         0.3000 
    201 H201       -0.9306  -28.6531  -46.4227 H         1 UNK         0.0600 
    202 H202        0.2806  -27.3273  -44.7119 H         1 UNK         0.0600 
    203 H203        0.8389  -26.2003  -45.9451 H         1 UNK         0.0600 
    204 H204        1.3807  -27.8720  -45.9680 H         1 UNK         0.0600 
    205 H205       -1.0286  -25.6880  -48.3566 H         1 UNK         0.3000 
    206 H206        0.1848  -27.1411  -50.6810 H         1 UNK         0.0600 
    207 H207        1.6430  -25.2784  -49.7088 H         1 UNK         0.0600 
    208 H208        0.3489  -24.1420  -50.0970 H         1 UNK         0.0600 
    209 H209        1.1600  -25.0259  -51.3781 H         1 UNK         0.0600 
    210 H210       -2.6922  -26.5760  -49.5453 H         1 UNK         0.3000 
    211 H211       -4.7451  -26.0320  -50.2115 H         1 UNK         0.0600 
    212 H212       -3.7095  -26.7118  -53.0182 H         1 UNK         0.0600 
    213 H213       -5.3907  -26.7157  -52.5021 H         1 UNK         0.0600 
    214 H214       -4.2682  -27.8840  -51.8255 H         1 UNK         0.0600 
    215 H215       -3.1421  -23.8197  -49.8001 H         1 UNK         0.3000 
    216 H216       -3.0557  -21.6020  -49.9807 H         1 UNK         0.0600 
    217 H217       -5.0050  -20.3657  -50.9952 H         1 UNK         0.0600 
    218 H218       -5.5029  -21.5844  -49.8396 H         1 UNK         0.0600 
    219 H219       -5.6649  -21.8835  -51.5612 H         1 UNK         0.0600 
    220 H220       -1.6915  -23.3193  -51.9335 H         1 UNK         0.3000 
    221 H221       -0.3940  -23.2678  -53.7090 H         1 UNK         0.0600 
    222 H222       -0.5592  -20.2125  -53.5583 H         1 UNK         0.0600 
    223 H223        0.6046  -21.2249  -52.7124 H         1 UNK         0.0600 
    224 H224        0.6277  -21.1370  -54.4660 H         1 UNK         0.0600 
    225 H225       -3.0153  -23.8038  -54.0774 H         1 UNK         0.3000 
    226 H226       -4.6159  -24.1961  -55.5296 H         1 UNK         0.0600 
    227 H227       -2.8406  -24.6674  -57.2263 H         1 UNK         0.0600 
    228 H228       -4.2932  -24.0022  -57.9555 H         1 UNK         0.0600 
    229 H229       -2.8799  -22.9823  -57.7440 H         1 UNK         0.0600 
    230 H230       -5.0558  -22.2699  -53.8925 H         1 UNK         0.3000 
    231 H231       -6.3247  -20.5356  -53.3263 H         1 UNK         0.0600 
    232 H232       -8.3538  -20.0956  -54.6558 H         1 UNK         0.0600 
    233 H233       -8.0470  -21.8224  -54.5764 H         1 UNK         0.0600 
    234 H234       -7.6705  -20.9256  -56.0468 H         1 UNK         0.0600 
    235 H235       -3.9367  -19.6247  -53.8663 H         1 UNK         0.3000 
    236 H236       -3.9234  -17.4497  -55.8141 H         1 UNK         0.0600 
    237 H237       -1.8979  -18.2875  -53.6812 H         1 UNK         0.0600 
    238 H238       -1.9142  -18.8645  -55.3479 H         1 UNK         0.0600 
    239 H239       -1.5986  -17.1699  -55.0074 H         1 UNK         0.0600 
    240 H240       -5.1354  -17.7061  -52.6394 H         1 UNK         0.3000 
    241 H241       -4.3491  -15.2982  -51.4413 H         1 UNK         0.0600 
    242 H242       -6.1839  -12.6038  -52.7720 H         1 UNK         0.3800 
    243 H243       -4.7422  -13.1636  -51.9499 H         1 UNK         0.3800 
    244 H244       -7.0311  -16.6518  -50.9533 H         1 UNK         0.0800 
    245 H245       -6.1732  -15.6000  -49.8641 H         1 UNK         0.0800 
    246 H246       -3.8758  -17.5204  -47.9384 H         1 UNK         0.0800 
    247 H247       -3.8997  -16.0715  -48.9112 H         1 UNK         0.0800 
@<TRIPOS>BOND
     1    1    2 1    
     2    1  127 1    
     3    1  128 1    
     4    1  129 1    
     5    2    3 2    
     6    2    4 am   BACKBONE|DICT|INTERRES
     7    4    5 1    
     8    4  130 1    
     9    5    6 1    
    10    5   65 1    
    11    5  131 1    
    12    6    7 1    
    13    6  132 1    
    14    6  133 1    
    15    7    8 1    
    16    8    9 1    
    17    8  134 1    
    18    8  135 1    
    19    9   10 ar   
    20    9   14 ar   
    21   10   11 ar   
    22   10  136 1    
    23   11   12 ar   
    24   11  126 1    
    25   12   13 ar   
    26   12  137 1    
    27   13   14 ar   
    28   13   15 1    
    29   14  138 1    
    30   15   16 1    
    31   15  139 1    
    32   15  140 1    
    33   16   17 1    
    34   17   18 1    
    35   17  141 1    
    36   17  142 1    
    37   18   19 1    
    38   18   67 1    
    39   18  143 1    
    40   19   20 am   BACKBONE|DICT|INTERRES
    41   19  144 1    
    42   20   21 2    
    43   20   22 1    
    44   22   23 1    
    45   22   24 1    
    46   22  145 1    
    47   23  146 1    
    48   23  147 1    
    49   23  148 1    
    50   24   25 am   BACKBONE|DICT|INTERRES
    51   24  149 1    
    52   25   26 2    
    53   25   27 1    
    54   27   28 1    
    55   27   29 1    
    56   27  150 1    
    57   28  151 1    
    58   28  152 1    
    59   28  153 1    
    60   29   30 am   BACKBONE|DICT|INTERRES
    61   29  154 1    
    62   30   31 2    
    63   30   32 1    
    64   32   33 1    
    65   32   34 1    
    66   32  155 1    
    67   33  156 1    
    68   33  157 1    
    69   33  158 1    
    70   34   35 am   BACKBONE|DICT|INTERRES
    71   34  159 1    
    72   35   36 2    
    73   35   37 1    
    74   37   38 1    
    75   37   39 1    
    76   37  160 1    
    77   38  161 1    
    78   38  162 1    
    79   38  163 1    
    80   39   40 am   BACKBONE|DICT|INTERRES
    81   39  164 1    
    82   40   41 2    
    83   40   42 1    
    84   42   43 1    
    85   42   44 1    
    86   42  165 1    
    87   43  166 1    
    88   43  167 1    
    89   43  168 1    
    90   44   45 am   BACKBONE|DICT|INTERRES
    91   44  169 1    
    92   45   46 2    
    93   45   47 1    
    94   47   48 1    
    95   47   49 1    
    96   47  170 1    
    97   48  171 1    
    98   48  172 1    
    99   48  173 1    
   100   49   50 am   BACKBONE|DICT|INTERRES
   101   49  174 1    
   102   50   51 2    
   103   50   52 1    
   104   52   53 1    
   105   52   54 1    
   106   52  175 1    
   107   53  176 1    
   108   53  177 1    
   109   53  178 1    
   110   54   55 am   BACKBONE|DICT|INTERRES
   111   54  179 1    
   112   55   56 2    
   113   55   57 1    
   114   57   58 1    
   115   57   59 1    
   116   57  180 1    
   117   58  181 1    
   118   58  182 1    
   119   58  183 1    
   120   59   60 am   BACKBONE|DICT|INTERRES
   121   59  184 1    
   122   60   61 2    
   123   60   62 1    
   124   62   63 1    
   125   62   64 1    
   126   62  185 1    
   127   63  186 1    
   128   63  187 1    
   129   63  188 1    
   130   64   65 am   BACKBONE|DICT|INTERRES
   131   64  189 1    
   132   65   66 2    
   133   67   68 2    
   134   67   69 am   BACKBONE|DICT|INTERRES
   135   69   70 1    
   136   69  190 1    
   137   70   71 1    
   138   70   72 1    
   139   70  191 1    
   140   71  192 1    
   141   71  193 1    
   142   71  194 1    
   143   72   73 2    
   144   72   74 am   BACKBONE|DICT|INTERRES
   145   74   75 1    
   146   74  195 1    
   147   75   76 1    
   148   75   77 1    
   149   75  196 1    
   150   76  197 1    
   151   76  198 1    
   152   76  199 1    
   153   77   78 2    
   154   77   79 am   BACKBONE|DICT|INTERRES
   155   79   80 1    
   156   79  200 1    
   157   80   81 1    
   158   80   82 1    
   159   80  201 1    
   160   81  202 1    
   161   81  203 1    
   162   81  204 1    
   163   82   83 2    
   164   82   84 am   BACKBONE|DICT|INTERRES
   165   84   85 1    
   166   84  205 1    
   167   85   86 1    
   168   85   87 1    
   169   85  206 1    
   170   86  207 1    
   171   86  208 1    
   172   86  209 1    
   173   87   88 2    
   174   87   89 am   BACKBONE|DICT|INTERRES
   175   89   90 1    
   176   89  210 1    
   177   90   91 1    
   178   90   92 1    
   179   90  211 1    
   180   91  212 1    
   181   91  213 1    
   182   91  214 1    
   183   92   93 2    
   184   92   94 am   BACKBONE|DICT|INTERRES
   185   94   95 1    
   186   94  215 1    
   187   95   96 1    
   188   95   97 1    
   189   95  216 1    
   190   96  217 1    
   191   96  218 1    
   192   96  219 1    
   193   97   98 2    
   194   97   99 am   BACKBONE|DICT|INTERRES
   195   99  100 1    
   196   99  220 1    
   197  100  101 1    
   198  100  102 1    
   199  100  221 1    
   200  101  222 1    
   201  101  223 1    
   202  101  224 1    
   203  102  103 2    
   204  102  104 am   BACKBONE|DICT|INTERRES
   205  104  105 1    
   206  104  225 1    
   207  105  106 1    
   208  105  107 1    
   209  105  226 1    
   210  106  227 1    
   211  106  228 1    
   212  106  229 1    
   213  107  108 2    
   214  107  109 am   BACKBONE|DICT|INTERRES
   215  109  110 1    
   216  109  230 1    
   217  110  111 1    
   218  110  112 1    
   219  110  231 1    
   220  111  232 1    
   221  111  233 1    
   222  111  234 1    
   223  112  113 2    
   224  112  114 am   BACKBONE|DICT|INTERRES
   225  114  115 1    
   226  114  235 1    
   227  115  116 1    
   228  115  117 1    
   229  115  236 1    
   230  116  237 1    
   231  116  238 1    
   232  116  239 1    
   233  117  118 2    
   234  117  119 am   BACKBONE|DICT|INTERRES
   235  119  120 1    
   236  119  240 1    
   237  120  121 1    
   238  120  124 1    
   239  120  241 1    
   240  121  122 am   BACKBONE|DICT|INTERRES
   241  121  123 2    
   242  122  242 1    
   243  122  243 1    
   244  124  125 1    
   245  124  244 1    
   246  124  245 1    
   247  125  126 1    
   248  126  246 1    
   249  126  247 1    
@<TRIPOS>SUBSTRUCTURE
     1 UNK         1 GROUP             0       ****    0 ROOT    
