@<TRIPOS>MOLECULE
3R540
247   249    1
SMALL
USER_CHARGES


@<TRIPOS>ATOM
      1 CA         -4.4630  -15.3664  -43.2026 C.3       0 UNK        -0.1800 
      2 C          -3.5972  -14.2195  -43.7009 C.2       0 UNK         0.5000 
      3 O          -3.6882  -13.1060  -43.1836 O.2       0 UNK        -0.5000 
      4 N          -2.7461  -14.4867  -44.6959 N.am      1 UNK        -0.5000 
      5 CA         -1.8418  -13.5252  -45.3305 C.3       1 UNK         0.1400 
      6 C6         -1.7034  -13.8126  -46.8486 C.3       23 UNK        -0.0398 
      7 S7         -3.0954  -13.1101  -47.7995 S.3       23 UNK        -0.2404 
      8 C8         -4.3600  -14.4214  -47.7363 C.3       23 UNK        -0.0205 
      9 C9         -4.0275  -15.6046  -48.6321 C.ar      23 UNK        -0.0193 
     10 C10        -4.1798  -15.4983  -50.0174 C.ar      23 UNK        -0.1150 
     11 C11        -3.9158  -16.5919  -50.8464 C.ar      23 UNK        -0.0193 
     12 C12        -3.4823  -17.7942  -50.2815 C.ar      23 UNK        -0.1150 
     13 C13        -3.3251  -17.9133  -48.8974 C.ar      23 UNK        -0.0193 
     14 C14        -3.6076  -16.8170  -48.0777 C.ar      23 UNK        -0.1150 
     15 C15        -2.8324  -19.2195  -48.2959 C.3       23 UNK        -0.0205 
     16 S16        -4.1219  -20.5063  -48.2912 S.3       23 UNK        -0.2404 
     17 C17        -4.5388  -20.5473  -46.5160 C.3       23 UNK        -0.0398 
     18 CA         -3.5159  -21.3875  -45.7064 C.3       11 UNK         0.1400 
     19 N          -3.2411  -20.7989  -44.3854 N.am      11 UNK        -0.5000 
     20 C          -2.2475  -21.1831  -43.5718 C.2       10 UNK         0.5000 
     21 O          -1.4798  -22.1099  -43.8305 O.2       10 UNK        -0.5000 
     22 CA         -2.0891  -20.4019  -42.2634 C.3       10 UNK         0.1400 
     23 CB         -1.5150  -21.2734  -41.1322 C.3       10 UNK        -0.1800 
     24 N          -1.1775  -19.2995  -42.5249 N.am      10 UNK        -0.5000 
     25 C          -1.4335  -18.0077  -42.2972 C.2       9 UNK         0.5000 
     26 O          -2.4651  -17.5916  -41.7710 O.2       9 UNK        -0.5000 
     27 CA         -0.3559  -17.0081  -42.7529 C.3       9 UNK         0.1400 
     28 CB          0.7746  -16.9348  -41.7140 C.3       9 UNK        -0.1800 
     29 N           0.2101  -17.3397  -44.0615 N.am      9 UNK        -0.5000 
     30 C          -0.4693  -17.3736  -45.2174 C.2       8 UNK         0.5000 
     31 O          -1.6630  -17.0896  -45.3152 O.2       8 UNK        -0.5000 
     32 CA          0.3126  -17.8161  -46.4671 C.3       8 UNK         0.1400 
     33 CB          1.0933  -16.6450  -47.0767 C.3       8 UNK        -0.1800 
     34 N           1.2413  -18.8937  -46.1359 N.am      8 UNK        -0.5000 
     35 C           0.9351  -20.1971  -46.1805 C.2       7 UNK         0.5000 
     36 O          -0.1252  -20.6285  -46.6287 O.2       7 UNK        -0.5000 
     37 CA          1.9823  -21.1914  -45.6373 C.3       7 UNK         0.1400 
     38 CB          2.7684  -21.8329  -46.7908 C.3       7 UNK        -0.1800 
     39 N           2.9345  -20.5888  -44.7015 N.am      7 UNK        -0.5000 
     40 C           2.6324  -20.1677  -43.4658 C.2       6 UNK         0.5000 
     41 O           1.5159  -20.2760  -42.9614 O.2       6 UNK        -0.5000 
     42 CA          3.7532  -19.4462  -42.6887 C.3       6 UNK         0.1400 
     43 CB          4.5937  -20.4592  -41.8977 C.3       6 UNK        -0.1800 
     44 N           4.6394  -18.6320  -43.5313 N.am      6 UNK        -0.5000 
     45 C           4.2386  -17.6344  -44.3322 C.2       5 UNK         0.5000 
     46 O           3.0563  -17.3176  -44.4690 O.2       5 UNK        -0.5000 
     47 CA          5.3348  -16.9373  -45.1630 C.3       5 UNK         0.1400 
     48 CB          5.8470  -17.8838  -46.2619 C.3       5 UNK        -0.1800 
     49 N           4.8896  -15.6967  -45.8050 N.am      5 UNK        -0.5000 
     50 C           4.5373  -14.5670  -45.1770 C.2       4 UNK         0.5000 
     51 O           4.5536  -14.4414  -43.9502 O.2       4 UNK        -0.5000 
     52 CA          4.1662  -13.3623  -46.0710 C.3       4 UNK         0.1400 
     53 CB          3.4776  -13.7488  -47.3944 C.3       4 UNK        -0.1800 
     54 N           3.2908  -12.4407  -45.3517 N.am      4 UNK        -0.5000 
     55 C           3.6538  -11.2528  -44.8484 C.2       3 UNK         0.5000 
     56 O           4.7758  -10.7631  -44.9874 O.2       3 UNK        -0.5000 
     57 CA          2.5845  -10.4654  -44.0599 C.3       3 UNK         0.1400 
     58 CB          1.9591   -9.3754  -44.9443 C.3       3 UNK        -0.1800 
     59 N           1.5158  -11.3181  -43.5382 N.am      3 UNK        -0.5000 
     60 C           1.6650  -12.2068  -42.5475 C.2       2 UNK         0.5000 
     61 O           2.6807  -12.2847  -41.8558 O.2       2 UNK        -0.5000 
     62 CA          0.5017  -13.1857  -42.2895 C.3       2 UNK         0.1400 
     63 CB         -0.1045  -12.9735  -40.8936 C.3       2 UNK        -0.1800 
     64 N          -0.5811  -13.1549  -43.2776 N.am      2 UNK        -0.5000 
     65 C          -0.5034  -13.5281  -44.5628 C.2       1 UNK         0.5000 
     66 O           0.5460  -13.8676  -45.1110 O.2       1 UNK        -0.5000 
     67 C          -3.8888  -22.8889  -45.6610 C.2       11 UNK         0.5000 
     68 O          -3.7392  -23.5883  -46.6640 O.2       11 UNK        -0.5000 
     69 N          -4.2984  -23.3793  -44.4822 N.am      12 UNK        -0.5000 
     70 CA         -4.4792  -24.7977  -44.1761 C.3       12 UNK         0.1400 
     71 CB         -5.0952  -24.9341  -42.7762 C.3       12 UNK        -0.1800 
     72 C          -3.1745  -25.6161  -44.2729 C.2       12 UNK         0.5000 
     73 O          -3.2358  -26.7903  -44.6355 O.2       12 UNK        -0.5000 
     74 N          -2.0167  -24.9893  -44.0052 N.am      13 UNK        -0.5000 
     75 CA         -0.6945  -25.6076  -44.1571 C.3       13 UNK         0.1400 
     76 CB          0.3560  -24.7843  -43.3957 C.3       13 UNK        -0.1800 
     77 C          -0.2908  -25.7738  -45.6353 C.2       13 UNK         0.5000 
     78 O           0.4654  -26.6895  -45.9589 O.2       13 UNK        -0.5000 
     79 N          -0.8368  -24.9151  -46.5074 N.am      14 UNK        -0.5000 
     80 CA         -0.7421  -25.0199  -47.9642 C.3       14 UNK         0.1400 
     81 CB         -0.8092  -23.6056  -48.5677 C.3       14 UNK        -0.1800 
     82 C          -1.8546  -25.9072  -48.5604 C.2       14 UNK         0.5000 
     83 O          -1.9080  -26.0565  -49.7807 O.2       14 UNK        -0.5000 
     84 N          -2.7582  -26.4296  -47.7138 N.am      15 UNK        -0.5000 
     85 CA         -3.9663  -27.1938  -48.0521 C.3       15 UNK         0.1400 
     86 CB         -3.5850  -28.5812  -48.6078 C.3       15 UNK        -0.1800 
     87 C          -4.9318  -26.4234  -48.9814 C.2       15 UNK         0.5000 
     88 O          -5.6448  -27.0391  -49.7750 O.2       15 UNK        -0.5000 
     89 N          -4.8983  -25.0843  -48.8903 N.am      16 UNK        -0.5000 
     90 CA         -5.5699  -24.1000  -49.7447 C.3       16 UNK         0.1400 
     91 CB         -7.1015  -24.1972  -49.5983 C.3       16 UNK        -0.1800 
     92 C          -5.1225  -24.1119  -51.2260 C.2       16 UNK         0.5000 
     93 O          -5.7251  -23.4069  -52.0363 O.2       16 UNK        -0.5000 
     94 N          -4.0606  -24.8600  -51.5711 N.am      17 UNK        -0.5000 
     95 CA         -3.5336  -24.9776  -52.9369 C.3       17 UNK         0.1400 
     96 CB         -2.5366  -26.1431  -53.0060 C.3       17 UNK        -0.1800 
     97 C          -2.8821  -23.6782  -53.4443 C.2       17 UNK         0.5000 
     98 O          -2.8237  -23.4517  -54.6535 O.2       17 UNK        -0.5000 
     99 N          -2.4608  -22.8181  -52.5067 N.am      18 UNK        -0.5000 
    100 CA        -1.9390  -21.4723  -52.7426 C.3       18 UNK         0.1400 
    101 CB        -1.4749  -20.8858  -51.4050 C.3       18 UNK        -0.1800 
    102 C         -2.9326  -20.5226  -53.4441 C.2       18 UNK         0.5000 
    103 O         -2.4965  -19.5340  -54.0308 O.2       18 UNK        -0.5000 
    104 N         -4.2317  -20.8593  -53.4492 N.am      19 UNK        -0.5000 
    105 CA        -5.2654  -20.1881  -54.2417 C.3       19 UNK         0.1400 
    106 CB        -6.6305  -20.8148  -53.9248 C.3       19 UNK        -0.1800 
    107 C         -4.9971  -20.2134  -55.7617 C.2       19 UNK         0.5000 
    108 O         -5.4219  -19.2928  -56.4593 O.2       19 UNK        -0.5000 
    109 N         -4.2794  -21.2402  -56.2422 N.am      20 UNK        -0.5000 
    110 CA        -3.8236  -21.3475  -57.6286 C.3       20 UNK         0.1400 
    111 CB        -3.6461  -22.8328  -57.9805 C.3       20 UNK        -0.1800 
    112 C         -2.5146  -20.5738  -57.8876 C.2       20 UNK         0.5000 
    113 O         -2.2255  -20.2600  -59.0430 O.2       20 UNK        -0.5000 
    114 N         -1.7391  -20.2944  -56.8297 N.am      21 UNK        -0.5000 
    115 CA        -0.4835  -19.5448  -56.8972 C.3       21 UNK         0.1400 
    116 CB         0.4360  -19.9671  -55.7398 C.3       21 UNK        -0.1800 
    117 C         -0.7266  -18.0257  -56.8809 C.2       21 UNK         0.5000 
    118 O         -0.0289  -17.2966  -57.5876 O.2       21 UNK        -0.5000 
    119 N         -1.7122  -17.5797  -56.0900 N.am      22 UNK        -0.5000 
    120 CA        -2.2015  -16.1930  -56.0460 C.3       22 UNK         0.1400 
    121 C         -2.7707  -15.7092  -57.4112 C.2       22 UNK         0.5000 
    122 N         -2.5411  -14.4546  -57.7752 N.am      22 UNK        -0.7600 
    123 O         -3.4547  -16.4433  -58.1208 O.2       22 UNK        -0.5000 
    124 C124       -3.2651  -15.9995  -54.9366 C.3       23 UNK        -0.0398 
    125 S125       -2.5917  -16.1892  -53.2522 S.3       23 UNK        -0.2404 
    126 C126       -4.1384  -16.4884  -52.3458 C.3       23 UNK        -0.0205 
    127 H127       -4.3239  -15.5034  -42.1303 H         1 UNK         0.0600 
    128 H128       -4.2140  -16.3046  -43.6998 H         1 UNK         0.0600 
    129 H129       -5.5151  -15.1504  -43.3874 H         1 UNK         0.0600 
    130 H130       -2.6275  -15.4488  -45.0033 H         1 UNK         0.3000 
    131 H131       -2.2432  -12.5152  -45.2204 H         1 UNK         0.0600 
    132 H132       -0.7986  -13.3561  -47.2536 H         1 UNK         0.0800 
    133 H133       -1.6193  -14.8809  -47.0466 H         1 UNK         0.0800 
    134 H134       -5.3115  -13.9956  -48.0578 H         1 UNK         0.0800 
    135 H135       -4.5151  -14.7444  -46.7073 H         1 UNK         0.0800 
    136 H136       -4.5170  -14.5654  -50.4474 H         1 UNK         0.1150 
    137 H137       -3.2780  -18.6401  -50.9213 H         1 UNK         0.1150 
    138 H138       -3.5053  -16.9078  -47.0069 H         1 UNK         0.1150 
    139 H139       -2.4771  -19.0568  -47.2782 H         1 UNK         0.0800 
    140 H140       -1.9642  -19.5727  -48.8514 H         1 UNK         0.0800 
    141 H141       -5.5565  -20.9227  -46.3946 H         1 UNK         0.0800 
    142 H142       -4.5658  -19.5153  -46.1623 H         1 UNK         0.0800 
    143 H143       -2.5606  -21.3527  -46.2317 H         1 UNK         0.0600 
    144 H144       -3.8230  -20.0215  -44.1082 H         1 UNK         0.3000 
    145 H145       -3.0729  -20.0417  -41.9557 H         1 UNK         0.0600 
    146 H146       -1.4477  -20.7108  -40.2011 H         1 UNK         0.0600 
    147 H147       -2.1498  -22.1404  -40.9458 H         1 UNK         0.0600 
    148 H148       -0.5157  -21.6411  -41.3707 H         1 UNK         0.0600 
    149 H149       -0.2809  -19.5624  -42.9276 H         1 UNK         0.3000 
    150 H150       -0.8196  -16.0241  -42.8329 H         1 UNK         0.0600 
    151 H151        1.1441  -17.9259  -41.4513 H         1 UNK         0.0600 
    152 H152        0.4236  -16.4656  -40.7943 H         1 UNK         0.0600 
    153 H153        1.6229  -16.3551  -42.0781 H         1 UNK         0.0600 
    154 H154        1.2117  -17.5052  -44.0940 H         1 UNK         0.3000 
    155 H155       -0.3964  -18.1597  -47.2197 H         1 UNK         0.0600 
    156 H156        1.7441  -16.1730  -46.3423 H         1 UNK         0.0600 
    157 H157        0.4186  -15.8777  -47.4532 H         1 UNK         0.0600 
    158 H158        1.7108  -16.9713  -47.9135 H         1 UNK         0.0600 
    159 H159        2.1147  -18.6078  -45.7104 H         1 UNK         0.3000 
    160 H160        1.4376  -21.9787  -45.1124 H         1 UNK         0.0600 
    161 H161        3.3491  -21.0922  -47.3421 H         1 UNK         0.0600 
    162 H162        2.1000  -22.3188  -47.5012 H         1 UNK         0.0600 
    163 H163        3.4559  -22.5949  -46.4233 H         1 UNK         0.0600 
    164 H164        3.8771  -20.4547  -45.0362 H         1 UNK         0.3000 
    165 H165        3.2767  -18.7730  -41.9747 H         1 UNK         0.0600 
    166 H166        5.3249  -19.9567  -41.2642 H         1 UNK         0.0600 
    167 H167        5.1318  -21.1399  -42.5585 H         1 UNK         0.0600 
    168 H168        3.9631  -21.0649  -41.2452 H         1 UNK         0.0600 
    169 H169        5.6246  -18.8481  -43.4794 H         1 UNK         0.3000 
    170 H170        6.1610  -16.6925  -44.4926 H         1 UNK         0.0600 
    171 H171        6.2531  -18.8038  -45.8399 H         1 UNK         0.0600 
    172 H172        5.0512  -18.1636  -46.9539 H         1 UNK         0.0600 
    173 H173        6.6460  -17.4199  -46.8409 H         1 UNK         0.0600 
    174 H174        4.8302  -15.7190  -46.8117 H         1 UNK         0.3000 
    175 H175        5.1076  -12.8707  -46.3233 H         1 UNK         0.0600 
    176 H176        2.5125  -14.2213  -47.2215 H         1 UNK         0.0600 
    177 H177        3.2972  -12.8636  -48.0047 H         1 UNK         0.0600 
    178 H178        4.0857  -14.4243  -47.9961 H         1 UNK         0.0600 
    179 H179        2.3628  -12.7950  -45.1472 H         1 UNK         0.3000 
    180 H180        3.0831   -9.9809  -43.2178 H         1 UNK         0.0600 
    181 H181        1.4371   -9.8029  -45.8014 H         1 UNK         0.0600 
    182 H182        2.7234   -8.6991  -45.3296 H         1 UNK         0.0600 
    183 H183        1.2464   -8.7714  -44.3824 H         1 UNK         0.0600 
    184 H184        0.6424  -11.3128  -44.0429 H         1 UNK         0.3000 
    185 H185        0.9397  -14.1823  -42.3213 H         1 UNK         0.0600 
    186 H186       -0.8539  -13.7333  -40.6700 H         1 UNK         0.0600 
    187 H187        0.6596  -13.0371  -40.1178 H         1 UNK         0.0600 
    188 H188       -0.5799  -11.9957  -40.8082 H         1 UNK         0.0600 
    189 H189       -1.4959  -12.8952  -42.9275 H         1 UNK         0.3000 
    190 H190       -4.3990  -22.7366  -43.7110 H         1 UNK         0.3000 
    191 H191       -5.1819  -25.2099  -44.9036 H         1 UNK         0.0600 
    192 H192       -5.2674  -25.9818  -42.5256 H         1 UNK         0.0600 
    193 H193       -6.0576  -24.4253  -42.7168 H         1 UNK         0.0600 
    194 H194       -4.4446  -24.5153  -42.0073 H         1 UNK         0.0600 
    195 H195       -2.0205  -24.0020  -43.7663 H         1 UNK         0.3000 
    196 H196       -0.7299  -26.6029  -43.7089 H         1 UNK         0.0600 
    197 H197        0.4986  -23.7993  -43.8392 H         1 UNK         0.0600 
    198 H198        0.0710  -24.6443  -42.3529 H         1 UNK         0.0600 
    199 H199        1.3238  -25.2868  -43.4050 H         1 UNK         0.0600 
    200 H200       -1.4577  -24.2002  -46.1542 H         1 UNK         0.3000 
    201 H201        0.2172  -25.4632  -48.2382 H         1 UNK         0.0600 
    202 H202       -1.7743  -23.1302  -48.3913 H         1 UNK         0.0600 
    203 H203       -0.6510  -23.6332  -49.6463 H         1 UNK         0.0600 
    204 H204       -0.0418  -22.9586  -48.1465 H         1 UNK         0.0600 
    205 H205       -2.6340  -26.2480  -46.7270 H         1 UNK         0.3000 
    206 H206       -4.5051  -27.3470  -47.1162 H         1 UNK         0.0600 
    207 H207       -2.9078  -29.1030  -47.9316 H         1 UNK         0.0600 
    208 H208       -4.4668  -29.2109  -48.7306 H         1 UNK         0.0600 
    209 H209       -3.0974  -28.5075  -49.5804 H         1 UNK         0.0600 
    210 H210       -4.3038  -24.6792  -48.1711 H         1 UNK         0.3000 
    211 H211       -5.2689  -23.1266  -49.3564 H         1 UNK         0.0600 
    212 H212       -7.5965  -23.3672  -50.1039 H         1 UNK         0.0600 
    213 H213       -7.3999  -24.1600  -48.5506 H         1 UNK         0.0600 
    214 H214       -7.4933  -25.1193  -50.0279 H         1 UNK         0.0600 
    215 H215       -3.5742  -25.3895  -50.8556 H         1 UNK         0.3000 
    216 H216       -4.3701  -25.2065  -53.6004 H         1 UNK         0.0600 
    217 H217       -1.6411  -25.9430  -52.4170 H         1 UNK         0.0600 
    218 H218       -2.2172  -26.3202  -54.0337 H         1 UNK         0.0600 
    219 H219       -2.9815  -27.0681  -52.6385 H         1 UNK         0.0600 
    220 H220       -2.5579  -23.1005  -51.5429 H         1 UNK         0.3000 
    221 H221       -1.0698  -21.5643  -53.3966 H         1 UNK         0.0600 
    222 H222       -0.6486  -21.4598  -50.9859 H         1 UNK         0.0600 
    223 H223       -2.2876  -20.8900  -50.6805 H         1 UNK         0.0600 
    224 H224       -1.1303  -19.8568  -51.5188 H         1 UNK         0.0600 
    225 H225       -4.5221  -21.6916  -52.9514 H         1 UNK         0.3000 
    226 H226       -5.2943  -19.1423  -53.9373 H         1 UNK         0.0600 
    227 H227       -6.6621  -21.8688  -54.2041 H         1 UNK         0.0600 
    228 H228       -6.8609  -20.7432  -52.8616 H         1 UNK         0.0600 
    229 H229       -7.4298  -20.3069  -54.4660 H         1 UNK         0.0600 
    230 H230       -3.9574  -21.9622  -55.6064 H         1 UNK         0.3000 
    231 H231       -4.5881  -20.9350  -58.2906 H         1 UNK         0.0600 
    232 H232       -2.8683  -23.3003  -57.3757 H         1 UNK         0.0600 
    233 H233       -3.3639  -22.9546  -59.0270 H         1 UNK         0.0600 
    234 H234       -4.5710  -23.3888  -57.8266 H         1 UNK         0.0600 
    235 H235       -2.0780  -20.5224  -55.9055 H         1 UNK         0.3000 
    236 H236        0.0262  -19.7930  -57.8308 H         1 UNK         0.0600 
    237 H237        0.5989  -21.0451  -55.7366 H         1 UNK         0.0600 
    238 H238        1.4129  -19.4909  -55.8307 H         1 UNK         0.0600 
    239 H239        0.0286  -19.6848  -54.7692 H         1 UNK         0.0600 
    240 H240       -2.1854  -18.2421  -55.4841 H         1 UNK         0.3000 
    241 H241       -1.3426  -15.5632  -55.8057 H         1 UNK         0.0600 
    242 H242       -2.9168  -14.1225  -58.6502 H         1 UNK         0.3800 
    243 H243       -1.9893  -13.8300  -57.2071 H         1 UNK         0.3800 
    244 H244       -4.0862  -16.7046  -55.0809 H         1 UNK         0.0800 
    245 H245       -3.7047  -15.0017  -54.9932 H         1 UNK         0.0800 
    246 H246       -4.5932  -17.4103  -52.7041 H         1 UNK         0.0800 
    247 H247       -4.8474  -15.6888  -52.5668 H         1 UNK         0.0800 
@<TRIPOS>BOND
     1    1    2 1    
     2    1  127 1    
     3    1  128 1    
     4    1  129 1    
     5    2    3 2    
     6    2    4 am   BACKBONE|DICT|INTERRES
     7    4    5 1    
     8    4  130 1    
     9    5    6 1    
    10    5   65 1    
    11    5  131 1    
    12    6    7 1    
    13    6  132 1    
    14    6  133 1    
    15    7    8 1    
    16    8    9 1    
    17    8  134 1    
    18    8  135 1    
    19    9   10 ar   
    20    9   14 ar   
    21   10   11 ar   
    22   10  136 1    
    23   11   12 ar   
    24   11  126 1    
    25   12   13 ar   
    26   12  137 1    
    27   13   14 ar   
    28   13   15 1    
    29   14  138 1    
    30   15   16 1    
    31   15  139 1    
    32   15  140 1    
    33   16   17 1    
    34   17   18 1    
    35   17  141 1    
    36   17  142 1    
    37   18   19 1    
    38   18   67 1    
    39   18  143 1    
    40   19   20 am   BACKBONE|DICT|INTERRES
    41   19  144 1    
    42   20   21 2    
    43   20   22 1    
    44   22   23 1    
    45   22   24 1    
    46   22  145 1    
    47   23  146 1    
    48   23  147 1    
    49   23  148 1    
    50   24   25 am   BACKBONE|DICT|INTERRES
    51   24  149 1    
    52   25   26 2    
    53   25   27 1    
    54   27   28 1    
    55   27   29 1    
    56   27  150 1    
    57   28  151 1    
    58   28  152 1    
    59   28  153 1    
    60   29   30 am   BACKBONE|DICT|INTERRES
    61   29  154 1    
    62   30   31 2    
    63   30   32 1    
    64   32   33 1    
    65   32   34 1    
    66   32  155 1    
    67   33  156 1    
    68   33  157 1    
    69   33  158 1    
    70   34   35 am   BACKBONE|DICT|INTERRES
    71   34  159 1    
    72   35   36 2    
    73   35   37 1    
    74   37   38 1    
    75   37   39 1    
    76   37  160 1    
    77   38  161 1    
    78   38  162 1    
    79   38  163 1    
    80   39   40 am   BACKBONE|DICT|INTERRES
    81   39  164 1    
    82   40   41 2    
    83   40   42 1    
    84   42   43 1    
    85   42   44 1    
    86   42  165 1    
    87   43  166 1    
    88   43  167 1    
    89   43  168 1    
    90   44   45 am   BACKBONE|DICT|INTERRES
    91   44  169 1    
    92   45   46 2    
    93   45   47 1    
    94   47   48 1    
    95   47   49 1    
    96   47  170 1    
    97   48  171 1    
    98   48  172 1    
    99   48  173 1    
   100   49   50 am   BACKBONE|DICT|INTERRES
   101   49  174 1    
   102   50   51 2    
   103   50   52 1    
   104   52   53 1    
   105   52   54 1    
   106   52  175 1    
   107   53  176 1    
   108   53  177 1    
   109   53  178 1    
   110   54   55 am   BACKBONE|DICT|INTERRES
   111   54  179 1    
   112   55   56 2    
   113   55   57 1    
   114   57   58 1    
   115   57   59 1    
   116   57  180 1    
   117   58  181 1    
   118   58  182 1    
   119   58  183 1    
   120   59   60 am   BACKBONE|DICT|INTERRES
   121   59  184 1    
   122   60   61 2    
   123   60   62 1    
   124   62   63 1    
   125   62   64 1    
   126   62  185 1    
   127   63  186 1    
   128   63  187 1    
   129   63  188 1    
   130   64   65 am   BACKBONE|DICT|INTERRES
   131   64  189 1    
   132   65   66 2    
   133   67   68 2    
   134   67   69 am   BACKBONE|DICT|INTERRES
   135   69   70 1    
   136   69  190 1    
   137   70   71 1    
   138   70   72 1    
   139   70  191 1    
   140   71  192 1    
   141   71  193 1    
   142   71  194 1    
   143   72   73 2    
   144   72   74 am   BACKBONE|DICT|INTERRES
   145   74   75 1    
   146   74  195 1    
   147   75   76 1    
   148   75   77 1    
   149   75  196 1    
   150   76  197 1    
   151   76  198 1    
   152   76  199 1    
   153   77   78 2    
   154   77   79 am   BACKBONE|DICT|INTERRES
   155   79   80 1    
   156   79  200 1    
   157   80   81 1    
   158   80   82 1    
   159   80  201 1    
   160   81  202 1    
   161   81  203 1    
   162   81  204 1    
   163   82   83 2    
   164   82   84 am   BACKBONE|DICT|INTERRES
   165   84   85 1    
   166   84  205 1    
   167   85   86 1    
   168   85   87 1    
   169   85  206 1    
   170   86  207 1    
   171   86  208 1    
   172   86  209 1    
   173   87   88 2    
   174   87   89 am   BACKBONE|DICT|INTERRES
   175   89   90 1    
   176   89  210 1    
   177   90   91 1    
   178   90   92 1    
   179   90  211 1    
   180   91  212 1    
   181   91  213 1    
   182   91  214 1    
   183   92   93 2    
   184   92   94 am   BACKBONE|DICT|INTERRES
   185   94   95 1    
   186   94  215 1    
   187   95   96 1    
   188   95   97 1    
   189   95  216 1    
   190   96  217 1    
   191   96  218 1    
   192   96  219 1    
   193   97   98 2    
   194   97   99 am   BACKBONE|DICT|INTERRES
   195   99  100 1    
   196   99  220 1    
   197  100  101 1    
   198  100  102 1    
   199  100  221 1    
   200  101  222 1    
   201  101  223 1    
   202  101  224 1    
   203  102  103 2    
   204  102  104 am   BACKBONE|DICT|INTERRES
   205  104  105 1    
   206  104  225 1    
   207  105  106 1    
   208  105  107 1    
   209  105  226 1    
   210  106  227 1    
   211  106  228 1    
   212  106  229 1    
   213  107  108 2    
   214  107  109 am   BACKBONE|DICT|INTERRES
   215  109  110 1    
   216  109  230 1    
   217  110  111 1    
   218  110  112 1    
   219  110  231 1    
   220  111  232 1    
   221  111  233 1    
   222  111  234 1    
   223  112  113 2    
   224  112  114 am   BACKBONE|DICT|INTERRES
   225  114  115 1    
   226  114  235 1    
   227  115  116 1    
   228  115  117 1    
   229  115  236 1    
   230  116  237 1    
   231  116  238 1    
   232  116  239 1    
   233  117  118 2    
   234  117  119 am   BACKBONE|DICT|INTERRES
   235  119  120 1    
   236  119  240 1    
   237  120  121 1    
   238  120  124 1    
   239  120  241 1    
   240  121  122 am   BACKBONE|DICT|INTERRES
   241  121  123 2    
   242  122  242 1    
   243  122  243 1    
   244  124  125 1    
   245  124  244 1    
   246  124  245 1    
   247  125  126 1    
   248  126  246 1    
   249  126  247 1    
@<TRIPOS>SUBSTRUCTURE
     1 UNK         1 GROUP             0       ****    0 ROOT    
