@<TRIPOS>MOLECULE
3R540
247   249    1
SMALL
USER_CHARGES


@<TRIPOS>ATOM
      1 CA          0.4834   -8.5724  -44.6044 C.3       0 UNK        -0.1800 
      2 C          -0.3086   -9.7264  -45.2030 C.2       0 UNK         0.5000 
      3 O          -1.3617  -10.0865  -44.6767 O.2       0 UNK        -0.5000 
      4 N           0.1907  -10.3058  -46.2979 N.am      1 UNK        -0.5000 
      5 CA         -0.4247  -11.4079  -47.0303 C.3       1 UNK         0.1400 
      6 C6         -0.1721  -12.7713  -46.3333 C.3       23 UNK        -0.0398 
      7 S7         -1.0154  -14.1702  -47.1401 S.3       23 UNK        -0.2404 
      8 C8         -2.5958  -14.2340  -46.2361 C.3       23 UNK        -0.0205 
      9 C9         -3.5697  -15.1944  -46.9060 C.ar      23 UNK        -0.0193 
     10 C10        -3.9814  -14.9458  -48.2164 C.ar      23 UNK        -0.1150 
     11 C11        -4.8520  -15.8167  -48.8751 C.ar      23 UNK        -0.0193 
     12 C12        -5.3549  -16.9267  -48.1862 C.ar      23 UNK        -0.1150 
     13 C13        -4.9829  -17.1721  -46.8585 C.ar      23 UNK        -0.0193 
     14 C14        -4.0742  -16.3115  -46.2299 C.ar      23 UNK        -0.1150 
     15 C15        -5.6138  -18.3264  -46.0863 C.3       23 UNK        -0.0205 
     16 S16        -4.9220  -19.9501  -46.5457 S.3       23 UNK        -0.2404 
     17 C17        -4.4103  -20.6262  -44.9277 C.3       23 UNK        -0.0398 
     18 CA         -3.2408  -21.6408  -45.0452 C.3       11 UNK         0.1400 
     19 N          -2.4663  -21.7940  -43.8138 N.am      11 UNK        -0.5000 
     20 C          -2.8925  -22.1716  -42.6006 C.2       10 UNK         0.5000 
     21 O          -4.0604  -22.4690  -42.3482 O.2       10 UNK        -0.5000 
     22 CA         -1.8330  -22.2224  -41.4863 C.3       10 UNK         0.1400 
     23 CB         -1.0380  -23.5329  -41.5601 C.3       10 UNK        -0.1800 
     24 N          -0.9078  -21.0961  -41.6031 N.am      10 UNK        -0.5000 
     25 C          -0.9346  -20.0030  -40.8287 C.2       9 UNK         0.5000 
     26 O          -1.6513  -19.8802  -39.8346 O.2       9 UNK        -0.5000 
     27 CA         -0.0273  -18.8300  -41.2551 C.3       9 UNK         0.1400 
     28 CB          1.3580  -18.9555  -40.6033 C.3       9 UNK        -0.1800 
     29 N           0.1380  -18.7224  -42.7059 N.am      9 UNK        -0.5000 
     30 C          -0.8546  -18.5506  -43.5907 C.2       8 UNK         0.5000 
     31 O          -2.0290  -18.3620  -43.2750 O.2       8 UNK        -0.5000 
     32 CA         -0.4843  -18.6275  -45.0825 C.3       8 UNK         0.1400 
     33 CB         -0.3414  -17.2115  -45.6440 C.3       8 UNK        -0.1800 
     34 N           0.7399  -19.3770  -45.3745 N.am      8 UNK        -0.5000 
     35 C           0.9717  -20.6675  -45.0974 C.2       7 UNK         0.5000 
     36 O           0.1748  -21.3954  -44.5058 O.2       7 UNK        -0.5000 
     37 CA          2.3402  -21.2214  -45.5199 C.3       7 UNK         0.1400 
     38 CB          2.3733  -21.5112  -47.0279 C.3       7 UNK        -0.1800 
     39 N           3.4051  -20.2803  -45.1813 N.am      7 UNK        -0.5000 
     40 C           3.9851  -20.1979  -43.9764 C.2       6 UNK         0.5000 
     41 O           3.7327  -20.9591  -43.0423 O.2       6 UNK        -0.5000 
     42 CA          5.0107  -19.0658  -43.7731 C.3       6 UNK         0.1400 
     43 CB          6.4224  -19.5461  -44.1422 C.3       6 UNK        -0.1800 
     44 N           4.6995  -17.8585  -44.5408 N.am      6 UNK        -0.5000 
     45 C           3.6465  -17.0621  -44.3107 C.2       5 UNK         0.5000 
     46 O           2.8283  -17.2519  -43.4108 O.2       5 UNK        -0.5000 
     47 CA          3.4568  -15.8728  -45.2725 C.3       5 UNK         0.1400 
     48 CB          4.2423  -14.6499  -44.7764 C.3       5 UNK        -0.1800 
     49 N           3.8184  -16.1441  -46.6688 N.am      5 UNK        -0.5000 
     50 C           3.3200  -17.1315  -47.4249 C.2       4 UNK         0.5000 
     51 O           2.5843  -18.0202  -46.9952 O.2       4 UNK        -0.5000 
     52 CA          3.6896  -17.1194  -48.9177 C.3       4 UNK         0.1400 
     53 CB          4.2233  -18.4893  -49.3682 C.3       4 UNK        -0.1800 
     54 N           2.5223  -16.7736  -49.7263 N.am      4 UNK        -0.5000 
     55 C           1.9375  -15.5683  -49.7466 C.2       3 UNK         0.5000 
     56 O           2.3820  -14.5899  -49.1400 O.2       3 UNK        -0.5000 
     57 CA          0.6532  -15.4475  -50.5911 C.3       3 UNK         0.1400 
     58 CB         -0.3972  -16.4860  -50.1735 C.3       3 UNK        -0.1800 
     59 N           0.0531  -14.1237  -50.4555 N.am      3 UNK        -0.5000 
     60 C           0.3069  -13.0692  -51.2384 C.2       2 UNK         0.5000 
     61 O           1.0483  -13.1061  -52.2215 O.2       2 UNK        -0.5000 
     62 CA         -0.3971  -11.7485  -50.8684 C.3       2 UNK         0.1400 
     63 CB         -1.6776  -11.5766  -51.7011 C.3       2 UNK        -0.1800 
     64 N          -0.7447  -11.6692  -49.4471 N.am      2 UNK        -0.5000 
     65 C           0.1169  -11.3531  -48.4714 C.2       1 UNK         0.5000 
     66 O           1.2883  -11.0187  -48.6689 O.2       1 UNK        -0.5000 
     67 C          -3.6646  -23.0047  -45.6247 C.2       11 UNK         0.5000 
     68 O          -3.1686  -23.3909  -46.6849 O.2       11 UNK        -0.5000 
     69 N          -4.5441  -23.7139  -44.9073 N.am      12 UNK        -0.5000 
     70 CA         -5.1630  -24.9757  -45.3180 C.3       12 UNK         0.1400 
     71 CB         -6.4306  -25.1925  -44.4770 C.3       12 UNK        -0.1800 
     72 C          -4.2334  -26.2005  -45.2181 C.2       12 UNK         0.5000 
     73 O          -4.5421  -27.2351  -45.8102 O.2       12 UNK        -0.5000 
     74 N          -3.1231  -26.0785  -44.4756 N.am      13 UNK        -0.5000 
     75 CA         -2.0856  -27.1114  -44.3756 C.3       13 UNK         0.1400 
     76 CB         -1.2195  -26.8436  -43.1367 C.3       13 UNK        -0.1800 
     77 C          -1.2042  -27.1892  -45.6386 C.2       13 UNK         0.5000 
     78 O          -0.6045  -28.2330  -45.8993 O.2       13 UNK        -0.5000 
     79 N          -1.1492  -26.0861  -46.3931 N.am      14 UNK        -0.5000 
     80 CA         -0.5168  -25.9776  -47.7027 C.3       14 UNK         0.1400 
     81 CB          0.2327  -24.6346  -47.7514 C.3       14 UNK        -0.1800 
     82 C          -1.5963  -26.0517  -48.7983 C.2       14 UNK         0.5000 
     83 O          -2.7818  -26.2149  -48.4962 O.2       14 UNK        -0.5000 
     84 N          -1.1887  -25.8785  -50.0625 N.am      15 UNK        -0.5000 
     85 CA         -2.0818  -25.7440  -51.2189 C.3       15 UNK         0.1400 
     86 CB         -1.2869  -26.0368  -52.5043 C.3       15 UNK        -0.1800 
     87 C          -2.7646  -24.3578  -51.2416 C.2       15 UNK         0.5000 
     88 O          -2.5215  -23.5636  -52.1529 O.2       15 UNK        -0.5000 
     89 N          -3.5520  -24.0824  -50.1901 N.am      16 UNK        -0.5000 
     90 CA         -4.2664  -22.8428  -49.8769 C.3       16 UNK         0.1400 
     91 CB         -5.4889  -22.6903  -50.7930 C.3       16 UNK        -0.1800 
     92 C          -3.3155  -21.6308  -49.8873 C.2       16 UNK         0.5000 
     93 O          -3.2768  -20.8703  -50.8595 O.2       16 UNK        -0.5000 
     94 N          -2.4916  -21.5677  -48.8299 N.am      17 UNK        -0.5000 
     95 CA         -1.3706  -20.6419  -48.6071 C.3       17 UNK         0.1400 
     96 CB         -1.8469  -19.1777  -48.5681 C.3       17 UNK        -0.1800 
     97 C          -0.2018  -20.8419  -49.5937 C.2       17 UNK         0.5000 
     98 O           0.6218  -19.9426  -49.7605 O.2       17 UNK        -0.5000 
     99 N          -0.1640  -22.0176  -50.2400 N.am      18 UNK        -0.5000 
    100 CA         0.7376  -22.4010  -51.3328 C.3       18 UNK         0.1400 
    101 CB         2.2011  -22.4624  -50.8458 C.3       18 UNK        -0.1800 
    102 C          0.5619  -21.5257  -52.5953 C.2       18 UNK         0.5000 
    103 O          1.4840  -21.4311  -53.4070 O.2       18 UNK        -0.5000 
    104 N         -0.6141  -20.8990  -52.7330 N.am      19 UNK        -0.5000 
    105 CA        -0.9367  -19.9232  -53.7712 C.3       19 UNK         0.1400 
    106 CB        -0.9178  -18.5195  -53.1398 C.3       19 UNK        -0.1800 
    107 C         -2.2885  -20.2173  -54.4432 C.2       19 UNK         0.5000 
    108 O         -2.7688  -19.3740  -55.2030 O.2       19 UNK        -0.5000 
    109 N         -2.8966  -21.3773  -54.1442 N.am      20 UNK        -0.5000 
    110 CA        -4.2040  -21.8294  -54.6331 C.3       20 UNK         0.1400 
    111 CB        -4.1400  -22.1489  -56.1413 C.3       20 UNK        -0.1800 
    112 C         -5.3401  -20.8503  -54.2655 C.2       20 UNK         0.5000 
    113 O         -6.1996  -20.5572  -55.0982 O.2       20 UNK        -0.5000 
    114 N         -5.2938  -20.3514  -53.0204 N.am      21 UNK        -0.5000 
    115 CA        -6.1758  -19.3385  -52.4347 C.3       21 UNK         0.1400 
    116 CB        -7.6467  -19.8077  -52.4000 C.3       21 UNK        -0.1800 
    117 C         -5.9847  -17.9635  -53.1014 C.2       21 UNK         0.5000 
    118 O         -6.9606  -17.2642  -53.3792 O.2       21 UNK        -0.5000 
    119 N         -4.7126  -17.6030  -53.3161 N.am      22 UNK        -0.5000 
    120 CA        -4.2559  -16.3380  -53.9124 C.3       22 UNK         0.1400 
    121 C         -4.6556  -16.1980  -55.4099 C.2       22 UNK         0.5000 
    122 N         -4.4416  -17.2315  -56.2146 N.am      22 UNK        -0.7600 
    123 O         -5.1464  -15.1625  -55.8530 O.2       22 UNK        -0.5000 
    124 C124       -4.6069  -15.0958  -53.0451 C.3       23 UNK        -0.0398 
    125 S125       -3.8372  -15.1890  -51.3940 S.3       23 UNK        -0.2404 
    126 C126       -5.2682  -15.5370  -50.3154 C.3       23 UNK        -0.0205 
    127 H127        0.7697   -8.8059  -43.5789 H         1 UNK         0.0600 
    128 H128        1.3912   -8.3662  -45.1722 H         1 UNK         0.0600 
    129 H129       -0.1233   -7.6669  -44.5926 H         1 UNK         0.0600 
    130 H130        1.0468   -9.9654  -46.7194 H         1 UNK         0.3000 
    131 H131       -1.5014  -11.2277  -47.0709 H         1 UNK         0.0600 
    132 H132       -0.4934  -12.7295  -45.2919 H         1 UNK         0.0800 
    133 H133        0.8970  -12.9903  -46.3071 H         1 UNK         0.0800 
    134 H134       -3.0418  -13.2389  -46.2085 H         1 UNK         0.0800 
    135 H135       -2.4098  -14.5235  -45.2009 H         1 UNK         0.0800 
    136 H136       -3.6021  -14.0770  -48.7353 H         1 UNK         0.1150 
    137 H137       -6.0510  -17.5939  -48.6745 H         1 UNK         0.1150 
    138 H138       -3.7778  -16.5001  -45.2073 H         1 UNK         0.1150 
    139 H139       -5.5151  -18.1559  -45.0136 H         1 UNK         0.0800 
    140 H140       -6.6868  -18.3418  -46.2824 H         1 UNK         0.0800 
    141 H141       -5.2772  -21.0590  -44.4264 H         1 UNK         0.0800 
    142 H142       -4.0894  -19.7926  -44.3023 H         1 UNK         0.0800 
    143 H143       -2.5248  -21.2211  -45.7522 H         1 UNK         0.0600 
    144 H144       -1.4674  -21.6405  -43.9402 H         1 UNK         0.3000 
    145 H145       -2.3548  -22.1963  -40.5275 H         1 UNK         0.0600 
    146 H146       -0.3143  -23.5986  -40.7476 H         1 UNK         0.0600 
    147 H147       -1.7016  -24.3936  -41.4733 H         1 UNK         0.0600 
    148 H148       -0.4922  -23.6213  -42.5003 H         1 UNK         0.0600 
    149 H149       -0.2959  -21.0951  -42.4097 H         1 UNK         0.3000 
    150 H150       -0.4923  -17.9065  -40.9047 H         1 UNK         0.0600 
    151 H151        1.2755  -19.0273  -39.5180 H         1 UNK         0.0600 
    152 H152        1.9780  -18.0866  -40.8248 H         1 UNK         0.0600 
    153 H153        1.8881  -19.8424  -40.9534 H         1 UNK         0.0600 
    154 H154        1.0837  -18.7846  -43.0596 H         1 UNK         0.3000 
    155 H155       -1.3058  -19.1226  -45.6018 H         1 UNK         0.0600 
    156 H156        0.3895  -16.6313  -45.0831 H         1 UNK         0.0600 
    157 H157       -1.2915  -16.6861  -45.5787 H         1 UNK         0.0600 
    158 H158       -0.0381  -17.2108  -46.6901 H         1 UNK         0.0600 
    159 H159        1.4533  -18.8661  -45.8928 H         1 UNK         0.3000 
    160 H160        2.5012  -22.1637  -44.9917 H         1 UNK         0.0600 
    161 H161        3.3134  -21.9792  -47.3194 H         1 UNK         0.0600 
    162 H162        2.2570  -20.6029  -47.6185 H         1 UNK         0.0600 
    163 H163        1.5699  -22.1882  -47.3146 H         1 UNK         0.0600 
    164 H164        3.6115  -19.5689  -45.8706 H         1 UNK         0.3000 
    165 H165        5.0055  -18.8030  -42.7130 H         1 UNK         0.0600 
    166 H166        7.1684  -18.7805  -43.9281 H         1 UNK         0.0600 
    167 H167        6.6953  -20.4331  -43.5689 H         1 UNK         0.0600 
    168 H168        6.4971  -19.8027  -45.1997 H         1 UNK         0.0600 
    169 H169        5.3168  -17.6294  -45.3058 H         1 UNK         0.3000 
    170 H170        2.3986  -15.6101  -45.2632 H         1 UNK         0.0600 
    171 H171        3.9791  -14.4076  -43.7458 H         1 UNK         0.0600 
    172 H172        5.3188  -14.8224  -44.8090 H         1 UNK         0.0600 
    173 H173        4.0238  -13.7691  -45.3807 H         1 UNK         0.0600 
    174 H174        4.3953  -15.4469  -47.1168 H         1 UNK         0.3000 
    175 H175        4.4699  -16.3752  -49.0896 H         1 UNK         0.0600 
    176 H176        3.4629  -19.2670  -49.2850 H         1 UNK         0.0600 
    177 H177        4.5554  -18.4599  -50.4060 H         1 UNK         0.0600 
    178 H178        5.0761  -18.7967  -48.7618 H         1 UNK         0.0600 
    179 H179        2.0658  -17.5463  -50.1908 H         1 UNK         0.3000 
    180 H180        0.9200  -15.6281  -51.6343 H         1 UNK         0.0600 
    181 H181       -0.6870  -16.3685  -49.1296 H         1 UNK         0.0600 
    182 H182       -0.0275  -17.5008  -50.3054 H         1 UNK         0.0600 
    183 H183       -1.2966  -16.4013  -50.7803 H         1 UNK         0.0600 
    184 H184       -0.5130  -13.9822  -49.6315 H         1 UNK         0.3000 
    185 H185        0.2818  -10.9292  -51.1148 H         1 UNK         0.0600 
    186 H186       -1.4569  -11.6098  -52.7688 H         1 UNK         0.0600 
    187 H187       -2.4030  -12.3639  -51.4923 H         1 UNK         0.0600 
    188 H188       -2.1546  -10.6175  -51.4986 H         1 UNK         0.0600 
    189 H189       -1.6926  -11.9179  -49.2041 H         1 UNK         0.3000 
    190 H190       -4.8139  -23.3474  -43.9999 H         1 UNK         0.3000 
    191 H191       -5.4595  -24.8832  -46.3651 H         1 UNK         0.0600 
    192 H192       -6.1980  -25.2737  -43.4144 H         1 UNK         0.0600 
    193 H193       -6.9463  -26.1074  -44.7719 H         1 UNK         0.0600 
    194 H194       -7.1342  -24.3697  -44.6050 H         1 UNK         0.0600 
    195 H195       -2.9562  -25.2057  -43.9986 H         1 UNK         0.3000 
    196 H196       -2.5702  -28.0817  -44.2472 H         1 UNK         0.0600 
    197 H197       -0.6602  -25.9133  -43.2329 H         1 UNK         0.0600 
    198 H198       -0.4936  -27.6446  -42.9907 H         1 UNK         0.0600 
    199 H199       -1.8256  -26.7879  -42.2324 H         1 UNK         0.0600 
    200 H200       -1.7573  -25.3179  -46.1454 H         1 UNK         0.3000 
    201 H201        0.1934  -26.7917  -47.8603 H         1 UNK         0.0600 
    202 H202        0.7918  -24.5211  -48.6799 H         1 UNK         0.0600 
    203 H203        0.9525  -24.5620  -46.9358 H         1 UNK         0.0600 
    204 H204       -0.4501  -23.7881  -47.6675 H         1 UNK         0.0600 
    205 H205       -0.2029  -25.7628  -50.2457 H         1 UNK         0.3000 
    206 H206       -2.8731  -26.4931  -51.1444 H         1 UNK         0.0600 
    207 H207       -0.8736  -27.0453  -52.4894 H         1 UNK         0.0600 
    208 H208       -1.9281  -25.9641  -53.3839 H         1 UNK         0.0600 
    209 H209       -0.4612  -25.3393  -52.6435 H         1 UNK         0.0600 
    210 H210       -3.5986  -24.8014  -49.4715 H         1 UNK         0.3000 
    211 H211       -4.6459  -22.9394  -48.8588 H         1 UNK         0.0600 
    212 H212       -5.2158  -22.7449  -51.8444 H         1 UNK         0.0600 
    213 H213       -5.9918  -21.7406  -50.6133 H         1 UNK         0.0600 
    214 H214       -6.2153  -23.4806  -50.6044 H         1 UNK         0.0600 
    215 H215       -2.6272  -22.2679  -48.1041 H         1 UNK         0.3000 
    216 H216       -0.9684  -20.8829  -47.6228 H         1 UNK         0.0600 
    217 H217       -2.6381  -19.0260  -47.8394 H         1 UNK         0.0600 
    218 H218       -2.2124  -18.8363  -49.5368 H         1 UNK         0.0600 
    219 H219       -1.0289  -18.5223  -48.2776 H         1 UNK         0.0600 
    220 H220       -0.9130  -22.6647  -50.0466 H         1 UNK         0.3000 
    221 H221        0.4469  -23.4097  -51.6244 H         1 UNK         0.0600 
    222 H222        2.5988  -21.4709  -50.6279 H         1 UNK         0.0600 
    223 H223        2.2954  -23.0646  -49.9428 H         1 UNK         0.0600 
    224 H224        2.8458  -22.9111  -51.6021 H         1 UNK         0.0600 
    225 H225       -1.3246  -21.0403  -52.0243 H         1 UNK         0.3000 
    226 H226       -0.1905  -19.9528  -54.5673 H         1 UNK         0.0600 
    227 H227       -1.6755  -18.4200  -52.3613 H         1 UNK         0.0600 
    228 H228        0.0521  -18.3071  -52.6901 H         1 UNK         0.0600 
    229 H229       -1.1011  -17.7456  -53.8856 H         1 UNK         0.0600 
    230 H230       -2.4508  -22.0084  -53.4855 H         1 UNK         0.3000 
    231 H231       -4.4212  -22.7625  -54.1122 H         1 UNK         0.0600 
    232 H232       -3.3365  -22.8519  -56.3605 H         1 UNK         0.0600 
    233 H233       -3.9749  -21.2530  -56.7404 H         1 UNK         0.0600 
    234 H234       -5.0702  -22.6037  -56.4836 H         1 UNK         0.0600 
    235 H235       -4.5264  -20.6446  -52.4218 H         1 UNK         0.3000 
    236 H236       -5.8489  -19.2199  -51.4003 H         1 UNK         0.0600 
    237 H237       -8.2564  -19.1229  -51.8097 H         1 UNK         0.0600 
    238 H238       -8.0852  -19.8520  -53.3971 H         1 UNK         0.0600 
    239 H239       -7.7414  -20.7952  -51.9500 H         1 UNK         0.0600 
    240 H240       -3.9871  -18.2653  -53.0893 H         1 UNK         0.3000 
    241 H241       -3.1675  -16.3998  -53.9330 H         1 UNK         0.0600 
    242 H242       -3.9813  -18.0694  -55.8658 H         1 UNK         0.3800 
    243 H243       -4.6926  -17.1670  -57.1878 H         1 UNK         0.3800 
    244 H244       -4.2344  -14.1869  -53.5201 H         1 UNK         0.0800 
    245 H245       -5.6859  -14.9670  -52.9539 H         1 UNK         0.0800 
    246 H246       -5.9455  -14.6823  -50.3297 H         1 UNK         0.0800 
    247 H247       -5.8235  -16.3840  -50.7166 H         1 UNK         0.0800 
@<TRIPOS>BOND
     1    1    2 1    
     2    1  127 1    
     3    1  128 1    
     4    1  129 1    
     5    2    3 2    
     6    2    4 am   BACKBONE|DICT|INTERRES
     7    4    5 1    
     8    4  130 1    
     9    5    6 1    
    10    5   65 1    
    11    5  131 1    
    12    6    7 1    
    13    6  132 1    
    14    6  133 1    
    15    7    8 1    
    16    8    9 1    
    17    8  134 1    
    18    8  135 1    
    19    9   10 ar   
    20    9   14 ar   
    21   10   11 ar   
    22   10  136 1    
    23   11   12 ar   
    24   11  126 1    
    25   12   13 ar   
    26   12  137 1    
    27   13   14 ar   
    28   13   15 1    
    29   14  138 1    
    30   15   16 1    
    31   15  139 1    
    32   15  140 1    
    33   16   17 1    
    34   17   18 1    
    35   17  141 1    
    36   17  142 1    
    37   18   19 1    
    38   18   67 1    
    39   18  143 1    
    40   19   20 am   BACKBONE|DICT|INTERRES
    41   19  144 1    
    42   20   21 2    
    43   20   22 1    
    44   22   23 1    
    45   22   24 1    
    46   22  145 1    
    47   23  146 1    
    48   23  147 1    
    49   23  148 1    
    50   24   25 am   BACKBONE|DICT|INTERRES
    51   24  149 1    
    52   25   26 2    
    53   25   27 1    
    54   27   28 1    
    55   27   29 1    
    56   27  150 1    
    57   28  151 1    
    58   28  152 1    
    59   28  153 1    
    60   29   30 am   BACKBONE|DICT|INTERRES
    61   29  154 1    
    62   30   31 2    
    63   30   32 1    
    64   32   33 1    
    65   32   34 1    
    66   32  155 1    
    67   33  156 1    
    68   33  157 1    
    69   33  158 1    
    70   34   35 am   BACKBONE|DICT|INTERRES
    71   34  159 1    
    72   35   36 2    
    73   35   37 1    
    74   37   38 1    
    75   37   39 1    
    76   37  160 1    
    77   38  161 1    
    78   38  162 1    
    79   38  163 1    
    80   39   40 am   BACKBONE|DICT|INTERRES
    81   39  164 1    
    82   40   41 2    
    83   40   42 1    
    84   42   43 1    
    85   42   44 1    
    86   42  165 1    
    87   43  166 1    
    88   43  167 1    
    89   43  168 1    
    90   44   45 am   BACKBONE|DICT|INTERRES
    91   44  169 1    
    92   45   46 2    
    93   45   47 1    
    94   47   48 1    
    95   47   49 1    
    96   47  170 1    
    97   48  171 1    
    98   48  172 1    
    99   48  173 1    
   100   49   50 am   BACKBONE|DICT|INTERRES
   101   49  174 1    
   102   50   51 2    
   103   50   52 1    
   104   52   53 1    
   105   52   54 1    
   106   52  175 1    
   107   53  176 1    
   108   53  177 1    
   109   53  178 1    
   110   54   55 am   BACKBONE|DICT|INTERRES
   111   54  179 1    
   112   55   56 2    
   113   55   57 1    
   114   57   58 1    
   115   57   59 1    
   116   57  180 1    
   117   58  181 1    
   118   58  182 1    
   119   58  183 1    
   120   59   60 am   BACKBONE|DICT|INTERRES
   121   59  184 1    
   122   60   61 2    
   123   60   62 1    
   124   62   63 1    
   125   62   64 1    
   126   62  185 1    
   127   63  186 1    
   128   63  187 1    
   129   63  188 1    
   130   64   65 am   BACKBONE|DICT|INTERRES
   131   64  189 1    
   132   65   66 2    
   133   67   68 2    
   134   67   69 am   BACKBONE|DICT|INTERRES
   135   69   70 1    
   136   69  190 1    
   137   70   71 1    
   138   70   72 1    
   139   70  191 1    
   140   71  192 1    
   141   71  193 1    
   142   71  194 1    
   143   72   73 2    
   144   72   74 am   BACKBONE|DICT|INTERRES
   145   74   75 1    
   146   74  195 1    
   147   75   76 1    
   148   75   77 1    
   149   75  196 1    
   150   76  197 1    
   151   76  198 1    
   152   76  199 1    
   153   77   78 2    
   154   77   79 am   BACKBONE|DICT|INTERRES
   155   79   80 1    
   156   79  200 1    
   157   80   81 1    
   158   80   82 1    
   159   80  201 1    
   160   81  202 1    
   161   81  203 1    
   162   81  204 1    
   163   82   83 2    
   164   82   84 am   BACKBONE|DICT|INTERRES
   165   84   85 1    
   166   84  205 1    
   167   85   86 1    
   168   85   87 1    
   169   85  206 1    
   170   86  207 1    
   171   86  208 1    
   172   86  209 1    
   173   87   88 2    
   174   87   89 am   BACKBONE|DICT|INTERRES
   175   89   90 1    
   176   89  210 1    
   177   90   91 1    
   178   90   92 1    
   179   90  211 1    
   180   91  212 1    
   181   91  213 1    
   182   91  214 1    
   183   92   93 2    
   184   92   94 am   BACKBONE|DICT|INTERRES
   185   94   95 1    
   186   94  215 1    
   187   95   96 1    
   188   95   97 1    
   189   95  216 1    
   190   96  217 1    
   191   96  218 1    
   192   96  219 1    
   193   97   98 2    
   194   97   99 am   BACKBONE|DICT|INTERRES
   195   99  100 1    
   196   99  220 1    
   197  100  101 1    
   198  100  102 1    
   199  100  221 1    
   200  101  222 1    
   201  101  223 1    
   202  101  224 1    
   203  102  103 2    
   204  102  104 am   BACKBONE|DICT|INTERRES
   205  104  105 1    
   206  104  225 1    
   207  105  106 1    
   208  105  107 1    
   209  105  226 1    
   210  106  227 1    
   211  106  228 1    
   212  106  229 1    
   213  107  108 2    
   214  107  109 am   BACKBONE|DICT|INTERRES
   215  109  110 1    
   216  109  230 1    
   217  110  111 1    
   218  110  112 1    
   219  110  231 1    
   220  111  232 1    
   221  111  233 1    
   222  111  234 1    
   223  112  113 2    
   224  112  114 am   BACKBONE|DICT|INTERRES
   225  114  115 1    
   226  114  235 1    
   227  115  116 1    
   228  115  117 1    
   229  115  236 1    
   230  116  237 1    
   231  116  238 1    
   232  116  239 1    
   233  117  118 2    
   234  117  119 am   BACKBONE|DICT|INTERRES
   235  119  120 1    
   236  119  240 1    
   237  120  121 1    
   238  120  124 1    
   239  120  241 1    
   240  121  122 am   BACKBONE|DICT|INTERRES
   241  121  123 2    
   242  122  242 1    
   243  122  243 1    
   244  124  125 1    
   245  124  244 1    
   246  124  245 1    
   247  125  126 1    
   248  126  246 1    
   249  126  247 1    
@<TRIPOS>SUBSTRUCTURE
     1 UNK         1 GROUP             0       ****    0 ROOT    
