@<TRIPOS>MOLECULE
3R540
247   249    1
SMALL
USER_CHARGES


@<TRIPOS>ATOM
      1 CA         -4.0430  -11.9741  -46.7147 C.3       0 UNK        -0.1800 
      2 C          -2.7512  -11.7547  -47.4884 C.2       0 UNK         0.5000 
      3 O          -2.5969  -10.7274  -48.1499 O.2       0 UNK        -0.5000 
      4 N          -1.8167  -12.7094  -47.4031 N.am      1 UNK        -0.5000 
      5 CA         -0.5078  -12.6799  -48.0619 C.3       1 UNK         0.1400 
      6 C6          0.0286  -14.1155  -48.2875 C.3       23 UNK        -0.0398 
      7 S7          1.3173  -14.1985  -49.5804 S.3       23 UNK        -0.2404 
      8 C8          0.3388  -14.2093  -51.1216 C.3       23 UNK        -0.0205 
      9 C9         -0.6672  -15.3497  -51.1724 C.ar      23 UNK        -0.0193 
     10 C10        -2.0387  -15.0824  -51.1566 C.ar      23 UNK        -0.1150 
     11 C11        -2.9673  -16.1272  -51.1776 C.ar      23 UNK        -0.0193 
     12 C12        -2.5153  -17.4499  -51.2084 C.ar      23 UNK        -0.1150 
     13 C13        -1.1450  -17.7275  -51.2309 C.ar      23 UNK        -0.0193 
     14 C14        -0.2275  -16.6738  -51.2225 C.ar      23 UNK        -0.1150 
     15 C15        -0.6412  -19.1594  -51.2838 C.3       23 UNK        -0.0205 
     16 S16         0.0628  -19.6726  -49.6910 S.3       23 UNK        -0.2404 
     17 C17        -1.4339  -20.0440  -48.7100 C.3       23 UNK        -0.0398 
     18 CA         -1.3484  -21.4662  -48.1065 C.3       11 UNK         0.1400 
     19 N          -0.2358  -21.5767  -47.1597 N.am      11 UNK        -0.5000 
     20 C           0.5524  -22.6472  -47.0263 C.2       10 UNK         0.5000 
     21 O           0.4028  -23.6873  -47.6655 O.2       10 UNK        -0.5000 
     22 CA          1.6911  -22.5457  -45.9956 C.3       10 UNK         0.1400 
     23 CB          2.9442  -21.9368  -46.6416 C.3       10 UNK        -0.1800 
     24 N           1.3271  -21.7723  -44.8051 N.am      10 UNK        -0.5000 
     25 C           0.4100  -22.1602  -43.9074 C.2       9 UNK         0.5000 
     26 O          -0.2138  -23.2170  -43.9898 O.2       9 UNK        -0.5000 
     27 CA          0.1255  -21.2090  -42.7310 C.3       9 UNK         0.1400 
     28 CB          1.1951  -21.3616  -41.6392 C.3       9 UNK        -0.1800 
     29 N           0.0390  -19.8082  -43.1418 N.am      9 UNK        -0.5000 
     30 C          -0.9431  -19.2948  -43.8967 C.2       8 UNK         0.5000 
     31 O          -1.9191  -19.9375  -44.2808 O.2       8 UNK        -0.5000 
     32 CA         -0.7898  -17.8254  -44.3359 C.3       8 UNK         0.1400 
     33 CB         -1.2679  -16.8672  -43.2353 C.3       8 UNK        -0.1800 
     34 N           0.5801  -17.4846  -44.7215 N.am      8 UNK        -0.5000 
     35 C           1.2556  -18.0777  -45.7164 C.2       7 UNK         0.5000 
     36 O           0.7844  -18.9603  -46.4302 O.2       7 UNK        -0.5000 
     37 CA          2.7222  -17.6599  -45.9012 C.3       7 UNK         0.1400 
     38 CB          2.8232  -16.3258  -46.6533 C.3       7 UNK        -0.1800 
     39 N           3.4178  -17.5657  -44.6182 N.am      7 UNK        -0.5000 
     40 C           3.7234  -18.6226  -43.8517 C.2       6 UNK         0.5000 
     41 O           3.4814  -19.7881  -44.1641 O.2       6 UNK        -0.5000 
     42 CA          4.3678  -18.3215  -42.4869 C.3       6 UNK         0.1400 
     43 CB          5.8748  -18.0669  -42.6403 C.3       6 UNK        -0.1800 
     44 N           3.7464  -17.1804  -41.8136 N.am      6 UNK        -0.5000 
     45 C           2.4817  -17.1620  -41.3698 C.2       5 UNK         0.5000 
     46 O           1.7120  -18.1174  -41.4581 O.2       5 UNK        -0.5000 
     47 CA          1.9792  -15.8404  -40.7623 C.3       5 UNK         0.1400 
     48 CB          2.3083  -15.7761  -39.2636 C.3       5 UNK        -0.1800 
     49 N           2.5107  -14.6482  -41.4279 N.am      5 UNK        -0.5000 
     50 C           2.3074  -14.3353  -42.7140 C.2       4 UNK         0.5000 
     51 O           1.6879  -15.0501  -43.5054 O.2       4 UNK        -0.5000 
     52 CA          2.8920  -12.9975  -43.1930 C.3       4 UNK         0.1400 
     53 CB          3.8179  -13.1900  -44.4042 C.3       4 UNK        -0.1800 
     54 N           1.8117  -12.0803  -43.5436 N.am      4 UNK        -0.5000 
     55 C           1.0809  -11.3970  -42.6493 C.2       3 UNK         0.5000 
     56 O           1.2871  -11.4509  -41.4352 O.2       3 UNK        -0.5000 
     57 CA         -0.0765  -10.5208  -43.1845 C.3       3 UNK         0.1400 
     58 CB         -0.3255   -9.2683  -42.3180 C.3       3 UNK        -0.1800 
     59 N           0.0544  -10.1598  -44.6003 N.am      3 UNK        -0.5000 
     60 C           1.0275   -9.4403  -45.1809 C.2       2 UNK         0.5000 
     61 O           1.9241   -8.8708  -44.5568 O.2       2 UNK        -0.5000 
     62 CA          1.0001   -9.3685  -46.7258 C.3       2 UNK         0.1400 
     63 CB          2.4172   -9.2834  -47.3299 C.3       2 UNK        -0.1800 
     64 N           0.2412  -10.4542  -47.3668 N.am      2 UNK        -0.5000 
     65 C           0.4628  -11.7743  -47.2727 C.2       1 UNK         0.5000 
     66 O           1.3278  -12.2689  -46.5484 O.2       1 UNK        -0.5000 
     67 C          -2.6915  -21.9277  -47.5011 C.2       11 UNK         0.5000 
     68 O          -3.7041  -21.8720  -48.2006 O.2       11 UNK        -0.5000 
     69 N          -2.6960  -22.3907  -46.2421 N.am      12 UNK        -0.5000 
     70 CA         -3.8696  -22.9184  -45.5416 C.3       12 UNK         0.1400 
     71 CB         -3.4987  -23.1890  -44.0754 C.3       12 UNK        -0.1800 
     72 C          -4.4167  -24.2072  -46.1826 C.2       12 UNK         0.5000 
     73 O          -3.6832  -24.9102  -46.8814 O.2       12 UNK        -0.5000 
     74 N          -5.6866  -24.5220  -45.8919 N.am      13 UNK        -0.5000 
     75 CA         -6.4159  -25.6958  -46.3918 C.3       13 UNK         0.1400 
     76 CB         -7.8662  -25.6321  -45.8901 C.3       13 UNK        -0.1800 
     77 C          -5.7802  -27.0525  -46.0253 C.2       13 UNK         0.5000 
     78 O          -5.9430  -28.0199  -46.7687 O.2       13 UNK        -0.5000 
     79 N          -5.0539  -27.0913  -44.9011 N.am      14 UNK        -0.5000 
     80 CA         -4.2816  -28.2464  -44.4403 C.3       14 UNK         0.1400 
     81 CB         -4.0840  -28.1199  -42.9208 C.3       14 UNK        -0.1800 
     82 C          -2.9182  -28.3952  -45.1506 C.2       14 UNK         0.5000 
     83 O          -2.2599  -29.4206  -44.9680 O.2       14 UNK        -0.5000 
     84 N          -2.5060  -27.3770  -45.9154 N.am      15 UNK        -0.5000 
     85 CA         -1.2307  -27.2900  -46.6152 C.3       15 UNK         0.1400 
     86 CB         -0.4001  -26.1684  -45.9693 C.3       15 UNK        -0.1800 
     87 C          -1.4990  -27.1210  -48.1235 C.2       15 UNK         0.5000 
     88 O          -2.1150  -28.0125  -48.7111 O.2       15 UNK        -0.5000 
     89 N          -1.0332  -26.0254  -48.7450 N.am      16 UNK        -0.5000 
     90 CA         -1.1346  -25.8016  -50.1935 C.3       16 UNK         0.1400 
     91 CB         -0.1033  -24.7509  -50.6344 C.3       16 UNK        -0.1800 
     92 C          -2.5449  -25.4251  -50.6930 C.2       16 UNK         0.5000 
     93 O          -2.7647  -25.4630  -51.9043 O.2       16 UNK        -0.5000 
     94 N          -3.4646  -25.0826  -49.7764 N.am      17 UNK        -0.5000 
     95 CA         -4.8911  -24.8210  -49.9997 C.3       17 UNK         0.1400 
     96 CB         -5.6272  -26.1430  -50.2970 C.3       17 UNK        -0.1800 
     97 C          -5.1480  -23.7381  -51.0634 C.2       17 UNK         0.5000 
     98 O          -5.6650  -24.0328  -52.1418 O.2       17 UNK        -0.5000 
     99 N          -4.7264  -22.5074  -50.7443 N.am      18 UNK        -0.5000 
    100 CA        -4.7914  -21.2782  -51.5473 C.3       18 UNK         0.1400 
    101 CB        -6.2366  -20.9814  -51.9923 C.3       18 UNK        -0.1800 
    102 C         -3.8020  -21.2241  -52.7319 C.2       18 UNK         0.5000 
    103 O         -3.5293  -20.1281  -53.2273 O.2       18 UNK        -0.5000 
    104 N         -3.2496  -22.3790  -53.1330 N.am      19 UNK        -0.5000 
    105 CA        -2.2386  -22.5822  -54.1739 C.3       19 UNK         0.1400 
    106 CB        -0.8789  -22.0320  -53.6886 C.3       19 UNK        -0.1800 
    107 C         -2.6599  -22.0199  -55.5514 C.2       19 UNK         0.5000 
    108 O         -3.8517  -21.8555  -55.8203 O.2       19 UNK        -0.5000 
    109 N         -1.6754  -21.7212  -56.4081 N.am      20 UNK        -0.5000 
    110 CA        -1.8802  -21.0451  -57.6920 C.3       20 UNK         0.1400 
    111 CB        -0.6376  -21.2629  -58.5695 C.3       20 UNK        -0.1800 
    112 C         -2.1729  -19.5375  -57.5350 C.2       20 UNK         0.5000 
    113 O         -2.6896  -18.9226  -58.4684 O.2       20 UNK        -0.5000 
    114 N         -1.8198  -18.9693  -56.3730 N.am      21 UNK        -0.5000 
    115 CA        -1.9820  -17.5569  -56.0378 C.3       21 UNK         0.1400 
    116 CB        -1.1654  -17.2455  -54.7757 C.3       21 UNK        -0.1800 
    117 C         -3.4536  -17.1502  -55.8524 C.2       21 UNK         0.5000 
    118 O         -3.8838  -16.1656  -56.4556 O.2       21 UNK        -0.5000 
    119 N         -4.1893  -17.9117  -55.0332 N.am      22 UNK        -0.5000 
    120 CA        -5.5975  -17.6540  -54.6919 C.3       22 UNK         0.1400 
    121 C         -6.5578  -18.8157  -55.0762 C.2       22 UNK         0.5000 
    122 N         -6.0919  -19.9669  -55.5431 N.am      22 UNK        -0.7600 
    123 O         -7.7714  -18.6615  -54.9696 O.2       22 UNK        -0.5000 
    124 C124       -5.7544  -17.2636  -53.1981 C.3       23 UNK        -0.0398 
    125 S125       -5.1262  -15.5915  -52.8276 S.3       23 UNK        -0.2404 
    126 C126       -4.4546  -15.8138  -51.1500 C.3       23 UNK        -0.0205 
    127 H127       -4.8922  -11.9801  -47.3980 H         1 UNK         0.0600 
    128 H128       -4.1896  -11.1698  -45.9938 H         1 UNK         0.0600 
    129 H129       -4.0360  -12.9201  -46.1726 H         1 UNK         0.0600 
    130 H130       -1.9928  -13.5157  -46.8207 H         1 UNK         0.3000 
    131 H131       -0.6455  -12.2256  -49.0454 H         1 UNK         0.0600 
    132 H132        0.4252  -14.5402  -47.3643 H         1 UNK         0.0800 
    133 H133       -0.7863  -14.7813  -48.5709 H         1 UNK         0.0800 
    134 H134       -0.1609  -13.2464  -51.2359 H         1 UNK         0.0800 
    135 H135        1.0195  -14.2998  -51.9691 H         1 UNK         0.0800 
    136 H136       -2.3870  -14.0596  -51.1222 H         1 UNK         0.1150 
    137 H137       -3.2281  -18.2612  -51.2233 H         1 UNK         0.1150 
    138 H138        0.8325  -16.8858  -51.2347 H         1 UNK         0.1150 
    139 H139        0.1301  -19.2379  -52.0511 H         1 UNK         0.0800 
    140 H140       -1.4335  -19.8474  -51.5755 H         1 UNK         0.0800 
    141 H141       -1.5367  -19.2935  -47.9246 H         1 UNK         0.0800 
    142 H142       -2.3131  -19.9419  -49.3477 H         1 UNK         0.0800 
    143 H143       -1.1716  -22.1473  -48.9388 H         1 UNK         0.0600 
    144 H144        0.0116  -20.7264  -46.6602 H         1 UNK         0.3000 
    145 H145        1.9342  -23.5609  -45.6751 H         1 UNK         0.0600 
    146 H146        3.7861  -21.9397  -45.9492 H         1 UNK         0.0600 
    147 H147        3.2453  -22.5050  -47.5226 H         1 UNK         0.0600 
    148 H148        2.7727  -20.9073  -46.9574 H         1 UNK         0.0600 
    149 H149        1.8355  -20.9079  -44.6513 H         1 UNK         0.3000 
    150 H150       -0.8372  -21.4935  -42.3012 H         1 UNK         0.0600 
    151 H151        1.2756  -22.3990  -41.3122 H         1 UNK         0.0600 
    152 H152        0.9499  -20.7624  -40.7622 H         1 UNK         0.0600 
    153 H153        2.1788  -21.0498  -41.9920 H         1 UNK         0.0600 
    154 H154        0.7743  -19.1916  -42.8093 H         1 UNK         0.3000 
    155 H155       -1.4220  -17.6760  -45.2136 H         1 UNK         0.0600 
    156 H156       -0.6778  -16.9745  -42.3256 H         1 UNK         0.0600 
    157 H157       -2.3092  -17.0611  -42.9755 H         1 UNK         0.0600 
    158 H158       -1.1994  -15.8281  -43.5583 H         1 UNK         0.0600 
    159 H159        1.0327  -16.7398  -44.1985 H         1 UNK         0.3000 
    160 H160        3.2179  -18.4247  -46.5029 H         1 UNK         0.0600 
    161 H161        2.3028  -15.5256  -46.1278 H         1 UNK         0.0600 
    162 H162        2.3765  -16.4091  -47.6447 H         1 UNK         0.0600 
    163 H163        3.8611  -16.0218  -46.7885 H         1 UNK         0.0600 
    164 H164        3.5943  -16.6381  -44.2628 H         1 UNK         0.3000 
    165 H165        4.2331  -19.2018  -41.8547 H         1 UNK         0.0600 
    166 H166        6.3524  -17.9323  -41.6696 H         1 UNK         0.0600 
    167 H167        6.3647  -18.9107  -43.1280 H         1 UNK         0.0600 
    168 H168        6.0764  -17.1786  -43.2402 H         1 UNK         0.0600 
    169 H169        4.3091  -16.3503  -41.7004 H         1 UNK         0.3000 
    170 H170        0.8932  -15.8207  -40.8712 H         1 UNK         0.0600 
    171 H171        1.9053  -16.6429  -38.7379 H         1 UNK         0.0600 
    172 H172        3.3845  -15.7560  -39.0871 H         1 UNK         0.0600 
    173 H173        1.8752  -14.8883  -38.8022 H         1 UNK         0.0600 
    174 H174        3.0092  -13.9936  -40.8422 H         1 UNK         0.3000 
    175 H175        3.4865  -12.5561  -42.3902 H         1 UNK         0.0600 
    176 H176        3.2833  -13.5916  -45.2642 H         1 UNK         0.0600 
    177 H177        4.2669  -12.2442  -44.7079 H         1 UNK         0.0600 
    178 H178        4.6311  -13.8782  -44.1709 H         1 UNK         0.0600 
    179 H179        1.5714  -12.0294  -44.5285 H         1 UNK         0.3000 
    180 H180       -0.9696  -11.1436  -43.1186 H         1 UNK         0.0600 
    181 H181        0.5567   -8.6301  -42.2636 H         1 UNK         0.0600 
    182 H182       -0.5902   -9.5445  -41.2967 H         1 UNK         0.0600 
    183 H183       -1.1478   -8.6720  -42.7133 H         1 UNK         0.0600 
    184 H184       -0.6230  -10.5834  -45.2176 H         1 UNK         0.3000 
    185 H185        0.4775   -8.4438  -46.9742 H         1 UNK         0.0600 
    186 H186        2.9436   -8.3960  -46.9765 H         1 UNK         0.0600 
    187 H187        3.0224  -10.1505  -47.0629 H         1 UNK         0.0600 
    188 H188        2.3795   -9.2230  -48.4176 H         1 UNK         0.0600 
    189 H189       -0.5655  -10.1630  -47.9092 H         1 UNK         0.3000 
    190 H190       -1.8202  -22.4207  -45.7389 H         1 UNK         0.3000 
    191 H191       -4.6490  -22.1547  -45.5750 H         1 UNK         0.0600 
    192 H192       -2.7640  -23.9906  -43.9898 H         1 UNK         0.0600 
    193 H193       -4.3731  -23.4848  -43.4948 H         1 UNK         0.0600 
    194 H194       -3.0832  -22.3010  -43.5996 H         1 UNK         0.0600 
    195 H195       -6.2134  -23.8993  -45.2961 H         1 UNK         0.3000 
    196 H196       -6.4371  -25.6361  -47.4797 H         1 UNK         0.0600 
    197 H197       -8.4471  -26.4766  -46.2636 H         1 UNK         0.0600 
    198 H198       -8.3628  -24.7235  -46.2311 H         1 UNK         0.0600 
    199 H199       -7.9164  -25.6553  -44.8008 H         1 UNK         0.0600 
    200 H200       -4.9809  -26.2494  -44.3496 H         1 UNK         0.3000 
    201 H201       -4.8532  -29.1562  -44.6352 H         1 UNK         0.0600 
    202 H202       -5.0409  -28.0668  -42.4012 H         1 UNK         0.0600 
    203 H203       -3.5106  -27.2286  -42.6628 H         1 UNK         0.0600 
    204 H204       -3.5477  -28.9819  -42.5216 H         1 UNK         0.0600 
    205 H205       -3.1323  -26.5952  -46.0787 H         1 UNK         0.3000 
    206 H206       -0.6701  -28.2207  -46.5103 H         1 UNK         0.0600 
    207 H207       -0.1982  -26.3890  -44.9211 H         1 UNK         0.0600 
    208 H208        0.5661  -26.0544  -46.4612 H         1 UNK         0.0600 
    209 H209       -0.9231  -25.2120  -46.0020 H         1 UNK         0.0600 
    210 H210       -0.5453  -25.3089  -48.2127 H         1 UNK         0.3000 
    211 H211       -0.8693  -26.7379  -50.6891 H         1 UNK         0.0600 
    212 H212       -0.3480  -23.7596  -50.2584 H         1 UNK         0.0600 
    213 H213       -0.0600  -24.6818  -51.7220 H         1 UNK         0.0600 
    214 H214        0.8977  -25.0056  -50.2861 H         1 UNK         0.0600 
    215 H215       -3.1832  -25.0708  -48.8006 H         1 UNK         0.3000 
    216 H216       -5.2858  -24.4233  -49.0658 H         1 UNK         0.0600 
    217 H217       -6.7020  -25.9807  -50.3845 H         1 UNK         0.0600 
    218 H218       -5.4703  -26.8682  -49.4982 H         1 UNK         0.0600 
    219 H219       -5.2862  -26.5964  -51.2284 H         1 UNK         0.0600 
    220 H220       -4.3103  -22.3789  -49.8224 H         1 UNK         0.3000 
    221 H221       -4.4907  -20.4791  -50.8684 H         1 UNK         0.0600 
    222 H222       -6.5698  -21.6595  -52.7783 H         1 UNK         0.0600 
    223 H223       -6.9336  -21.0620  -51.1583 H         1 UNK         0.0600 
    224 H224       -6.3260  -19.9722  -52.3859 H         1 UNK         0.0600 
    225 H225       -3.5976  -23.2272  -52.7042 H         1 UNK         0.3000 
    226 H226       -2.1440  -23.6622  -54.2938 H         1 UNK         0.0600 
    227 H227       -0.6672  -22.3487  -52.6671 H         1 UNK         0.0600 
    228 H228       -0.0575  -22.3939  -54.3074 H         1 UNK         0.0600 
    229 H229       -0.8551  -20.9422  -53.7083 H         1 UNK         0.0600 
    230 H230       -0.7190  -21.9015  -56.1389 H         1 UNK         0.3000 
    231 H231       -2.7371  -21.4972  -58.1962 H         1 UNK         0.0600 
    232 H232       -0.7644  -20.7992  -59.5487 H         1 UNK         0.0600 
    233 H233       -0.4533  -22.3244  -58.7362 H         1 UNK         0.0600 
    234 H234        0.2564  -20.8328  -58.1162 H         1 UNK         0.0600 
    235 H235       -1.4164  -19.5576  -55.6606 H         1 UNK         0.3000 
    236 H236       -1.5735  -16.9634  -56.8586 H         1 UNK         0.0600 
    237 H237       -0.0990  -17.3937  -54.9455 H         1 UNK         0.0600 
    238 H238       -1.3058  -16.2117  -54.4565 H         1 UNK         0.0600 
    239 H239       -1.4651  -17.8877  -53.9488 H         1 UNK         0.0600 
    240 H240       -3.7625  -18.6993  -54.5539 H         1 UNK         0.3000 
    241 H241       -5.9653  -16.8136  -55.2831 H         1 UNK         0.0600 
    242 H242       -6.7492  -20.6876  -55.7929 H         1 UNK         0.3800 
    243 H243       -5.1034  -20.1700  -55.6131 H         1 UNK         0.3800 
    244 H244       -6.8015  -17.2807  -52.8907 H         1 UNK         0.0800 
    245 H245       -5.2385  -17.9893  -52.5703 H         1 UNK         0.0800 
    246 H246       -4.6226  -14.8953  -50.5855 H         1 UNK         0.0800 
    247 H247       -5.0027  -16.5935  -50.6188 H         1 UNK         0.0800 
@<TRIPOS>BOND
     1    1    2 1    
     2    1  127 1    
     3    1  128 1    
     4    1  129 1    
     5    2    3 2    
     6    2    4 am   BACKBONE|DICT|INTERRES
     7    4    5 1    
     8    4  130 1    
     9    5    6 1    
    10    5   65 1    
    11    5  131 1    
    12    6    7 1    
    13    6  132 1    
    14    6  133 1    
    15    7    8 1    
    16    8    9 1    
    17    8  134 1    
    18    8  135 1    
    19    9   10 ar   
    20    9   14 ar   
    21   10   11 ar   
    22   10  136 1    
    23   11   12 ar   
    24   11  126 1    
    25   12   13 ar   
    26   12  137 1    
    27   13   14 ar   
    28   13   15 1    
    29   14  138 1    
    30   15   16 1    
    31   15  139 1    
    32   15  140 1    
    33   16   17 1    
    34   17   18 1    
    35   17  141 1    
    36   17  142 1    
    37   18   19 1    
    38   18   67 1    
    39   18  143 1    
    40   19   20 am   BACKBONE|DICT|INTERRES
    41   19  144 1    
    42   20   21 2    
    43   20   22 1    
    44   22   23 1    
    45   22   24 1    
    46   22  145 1    
    47   23  146 1    
    48   23  147 1    
    49   23  148 1    
    50   24   25 am   BACKBONE|DICT|INTERRES
    51   24  149 1    
    52   25   26 2    
    53   25   27 1    
    54   27   28 1    
    55   27   29 1    
    56   27  150 1    
    57   28  151 1    
    58   28  152 1    
    59   28  153 1    
    60   29   30 am   BACKBONE|DICT|INTERRES
    61   29  154 1    
    62   30   31 2    
    63   30   32 1    
    64   32   33 1    
    65   32   34 1    
    66   32  155 1    
    67   33  156 1    
    68   33  157 1    
    69   33  158 1    
    70   34   35 am   BACKBONE|DICT|INTERRES
    71   34  159 1    
    72   35   36 2    
    73   35   37 1    
    74   37   38 1    
    75   37   39 1    
    76   37  160 1    
    77   38  161 1    
    78   38  162 1    
    79   38  163 1    
    80   39   40 am   BACKBONE|DICT|INTERRES
    81   39  164 1    
    82   40   41 2    
    83   40   42 1    
    84   42   43 1    
    85   42   44 1    
    86   42  165 1    
    87   43  166 1    
    88   43  167 1    
    89   43  168 1    
    90   44   45 am   BACKBONE|DICT|INTERRES
    91   44  169 1    
    92   45   46 2    
    93   45   47 1    
    94   47   48 1    
    95   47   49 1    
    96   47  170 1    
    97   48  171 1    
    98   48  172 1    
    99   48  173 1    
   100   49   50 am   BACKBONE|DICT|INTERRES
   101   49  174 1    
   102   50   51 2    
   103   50   52 1    
   104   52   53 1    
   105   52   54 1    
   106   52  175 1    
   107   53  176 1    
   108   53  177 1    
   109   53  178 1    
   110   54   55 am   BACKBONE|DICT|INTERRES
   111   54  179 1    
   112   55   56 2    
   113   55   57 1    
   114   57   58 1    
   115   57   59 1    
   116   57  180 1    
   117   58  181 1    
   118   58  182 1    
   119   58  183 1    
   120   59   60 am   BACKBONE|DICT|INTERRES
   121   59  184 1    
   122   60   61 2    
   123   60   62 1    
   124   62   63 1    
   125   62   64 1    
   126   62  185 1    
   127   63  186 1    
   128   63  187 1    
   129   63  188 1    
   130   64   65 am   BACKBONE|DICT|INTERRES
   131   64  189 1    
   132   65   66 2    
   133   67   68 2    
   134   67   69 am   BACKBONE|DICT|INTERRES
   135   69   70 1    
   136   69  190 1    
   137   70   71 1    
   138   70   72 1    
   139   70  191 1    
   140   71  192 1    
   141   71  193 1    
   142   71  194 1    
   143   72   73 2    
   144   72   74 am   BACKBONE|DICT|INTERRES
   145   74   75 1    
   146   74  195 1    
   147   75   76 1    
   148   75   77 1    
   149   75  196 1    
   150   76  197 1    
   151   76  198 1    
   152   76  199 1    
   153   77   78 2    
   154   77   79 am   BACKBONE|DICT|INTERRES
   155   79   80 1    
   156   79  200 1    
   157   80   81 1    
   158   80   82 1    
   159   80  201 1    
   160   81  202 1    
   161   81  203 1    
   162   81  204 1    
   163   82   83 2    
   164   82   84 am   BACKBONE|DICT|INTERRES
   165   84   85 1    
   166   84  205 1    
   167   85   86 1    
   168   85   87 1    
   169   85  206 1    
   170   86  207 1    
   171   86  208 1    
   172   86  209 1    
   173   87   88 2    
   174   87   89 am   BACKBONE|DICT|INTERRES
   175   89   90 1    
   176   89  210 1    
   177   90   91 1    
   178   90   92 1    
   179   90  211 1    
   180   91  212 1    
   181   91  213 1    
   182   91  214 1    
   183   92   93 2    
   184   92   94 am   BACKBONE|DICT|INTERRES
   185   94   95 1    
   186   94  215 1    
   187   95   96 1    
   188   95   97 1    
   189   95  216 1    
   190   96  217 1    
   191   96  218 1    
   192   96  219 1    
   193   97   98 2    
   194   97   99 am   BACKBONE|DICT|INTERRES
   195   99  100 1    
   196   99  220 1    
   197  100  101 1    
   198  100  102 1    
   199  100  221 1    
   200  101  222 1    
   201  101  223 1    
   202  101  224 1    
   203  102  103 2    
   204  102  104 am   BACKBONE|DICT|INTERRES
   205  104  105 1    
   206  104  225 1    
   207  105  106 1    
   208  105  107 1    
   209  105  226 1    
   210  106  227 1    
   211  106  228 1    
   212  106  229 1    
   213  107  108 2    
   214  107  109 am   BACKBONE|DICT|INTERRES
   215  109  110 1    
   216  109  230 1    
   217  110  111 1    
   218  110  112 1    
   219  110  231 1    
   220  111  232 1    
   221  111  233 1    
   222  111  234 1    
   223  112  113 2    
   224  112  114 am   BACKBONE|DICT|INTERRES
   225  114  115 1    
   226  114  235 1    
   227  115  116 1    
   228  115  117 1    
   229  115  236 1    
   230  116  237 1    
   231  116  238 1    
   232  116  239 1    
   233  117  118 2    
   234  117  119 am   BACKBONE|DICT|INTERRES
   235  119  120 1    
   236  119  240 1    
   237  120  121 1    
   238  120  124 1    
   239  120  241 1    
   240  121  122 am   BACKBONE|DICT|INTERRES
   241  121  123 2    
   242  122  242 1    
   243  122  243 1    
   244  124  125 1    
   245  124  244 1    
   246  124  245 1    
   247  125  126 1    
   248  126  246 1    
   249  126  247 1    
@<TRIPOS>SUBSTRUCTURE
     1 UNK         1 GROUP             0       ****    0 ROOT    
