@<TRIPOS>MOLECULE
3R540
247   249    1
SMALL
USER_CHARGES


@<TRIPOS>ATOM
      1 CA         -2.8414  -14.6512  -52.8662 C.3       0 UNK        -0.1800 
      2 C          -2.0171  -14.0116  -51.7573 C.2       0 UNK         0.5000 
      3 O          -2.1841  -12.8226  -51.4844 O.2       0 UNK        -0.5000 
      4 N          -1.1236  -14.7829  -51.1257 N.am      1 UNK        -0.5000 
      5 CA         -0.3104  -14.3497  -49.9853 C.3       1 UNK         0.1400 
      6 C6          0.9777  -15.1947  -49.8032 C.3       23 UNK        -0.0398 
      7 S7          0.7318  -17.0064  -49.8150 S.3       23 UNK        -0.2404 
      8 C8          1.7346  -17.5006  -51.2631 C.3       23 UNK        -0.0205 
      9 C9          1.7968  -19.0042  -51.5482 C.ar      23 UNK        -0.0193 
     10 C10         2.3972  -19.4359  -52.7380 C.ar      23 UNK        -0.1150 
     11 C11         2.4851  -20.7976  -53.0483 C.ar      23 UNK        -0.0193 
     12 C12         1.9626  -21.7366  -52.1571 C.ar      23 UNK        -0.1150 
     13 C13         1.3639  -21.3248  -50.9662 C.ar      23 UNK        -0.0193 
     14 C14         1.2941  -19.9654  -50.6614 C.ar      23 UNK        -0.1150 
     15 C15         0.7817  -22.3499  -50.0140 C.3       23 UNK        -0.0205 
     16 S16         1.9981  -22.8939  -48.7786 S.3       23 UNK        -0.2404 
     17 C17         1.4160  -22.0216  -47.2869 C.3       23 UNK        -0.0398 
     18 CA          0.5191  -22.9155  -46.3933 C.3       11 UNK         0.1400 
     19 N           0.5957  -22.5357  -44.9787 N.am      11 UNK        -0.5000 
     20 C           0.1427  -23.2794  -43.9584 C.2       10 UNK         0.5000 
     21 O          -0.4317  -24.3595  -44.1038 O.2       10 UNK        -0.5000 
     22 CA          0.3420  -22.7073  -42.5425 C.3       10 UNK         0.1400 
     23 CB          1.7947  -22.8854  -42.0756 C.3       10 UNK        -0.1800 
     24 N          -0.0274  -21.2949  -42.4626 N.am      10 UNK        -0.5000 
     25 C          -1.2863  -20.8396  -42.5340 C.2       9 UNK         0.5000 
     26 O          -2.2755  -21.5702  -42.5874 O.2       9 UNK        -0.5000 
     27 CA         -1.4692  -19.3105  -42.5925 C.3       9 UNK         0.1400 
     28 CB         -1.4275  -18.7120  -41.1793 C.3       9 UNK        -0.1800 
     29 N          -0.4744  -18.6483  -43.4404 N.am      9 UNK        -0.5000 
     30 C          -0.3105  -18.8950  -44.7486 C.2       8 UNK         0.5000 
     31 O          -1.0105  -19.6787  -45.3854 O.2       8 UNK        -0.5000 
     32 CA          0.8693  -18.2037  -45.4514 C.3       8 UNK         0.1400 
     33 CB          0.4967  -16.7817  -45.8849 C.3       8 UNK        -0.1800 
     34 N           2.0656  -18.1655  -44.6108 N.am      8 UNK        -0.5000 
     35 C           2.7761  -19.2472  -44.2632 C.2       7 UNK         0.5000 
     36 O           2.5074  -20.3887  -44.6333 O.2       7 UNK        -0.5000 
     37 CA          3.9492  -19.0208  -43.2947 C.3       7 UNK         0.1400 
     38 CB          5.1628  -18.4345  -44.0315 C.3       7 UNK        -0.1800 
     39 N           3.5820  -18.1460  -42.1818 N.am      7 UNK        -0.5000 
     40 C           2.6705  -18.4525  -41.2478 C.2       6 UNK         0.5000 
     41 O           2.0791  -19.5312  -41.1967 O.2       6 UNK        -0.5000 
     42 CA          2.3350  -17.3510  -40.2249 C.3       6 UNK         0.1400 
     43 CB          3.2709  -17.4408  -39.0105 C.3       6 UNK        -0.1800 
     44 N           2.3907  -15.9949  -40.7818 N.am      6 UNK        -0.5000 
     45 C           1.6006  -15.5444  -41.7649 C.2       5 UNK         0.5000 
     46 O           0.7758  -16.2455  -42.3559 O.2       5 UNK        -0.5000 
     47 CA          1.7865  -14.0774  -42.1854 C.3       5 UNK         0.1400 
     48 CB          2.5218  -13.9908  -43.5316 C.3       5 UNK        -0.1800 
     49 N           0.4830  -13.4328  -42.3071 N.am      5 UNK        -0.5000 
     50 C          -0.2354  -12.9809  -41.2673 C.2       4 UNK         0.5000 
     51 O           0.1988  -12.9121  -40.1167 O.2       4 UNK        -0.5000 
     52 CA         -1.6923  -12.5585  -41.5518 C.3       4 UNK         0.1400 
     53 CB         -1.7711  -11.0550  -41.8569 C.3       4 UNK        -0.1800 
     54 N          -2.2688  -13.3022  -42.6707 N.am      4 UNK        -0.5000 
     55 C          -2.5303  -14.6162  -42.6602 C.2       3 UNK         0.5000 
     56 O          -2.5497  -15.2862  -41.6284 O.2       3 UNK        -0.5000 
     57 CA         -2.7893  -15.3025  -44.0207 C.3       3 UNK         0.1400 
     58 CB         -4.0777  -16.1414  -43.9964 C.3       3 UNK        -0.1800 
     59 N          -2.8392  -14.3915  -45.1714 N.am      3 UNK        -0.5000 
     60 C          -1.8021  -13.7285  -45.7008 C.2       2 UNK         0.5000 
     61 O          -0.6651  -13.7357  -45.2253 O.2       2 UNK        -0.5000 
     62 CA         -2.1124  -12.8497  -46.9255 C.3       2 UNK         0.1400 
     63 CB         -2.0059  -11.3612  -46.5587 C.3       2 UNK        -0.1800 
     64 N          -1.2382  -13.1283  -48.0650 N.am      2 UNK        -0.5000 
     65 C          -1.1801  -14.3000  -48.7118 C.2       1 UNK         0.5000 
     66 O          -1.8072  -15.2999  -48.3640 O.2       1 UNK        -0.5000 
     67 C          -0.9269  -22.9978  -46.9323 C.2       11 UNK         0.5000 
     68 O          -1.1626  -23.7155  -47.9045 O.2       11 UNK        -0.5000 
     69 N          -1.8831  -22.3104  -46.2919 N.am      12 UNK        -0.5000 
     70 CA         -3.3073  -22.3265  -46.6399 C.3       12 UNK         0.1400 
     71 CB         -4.0795  -21.4036  -45.6855 C.3       12 UNK        -0.1800 
     72 C          -3.9346  -23.7340  -46.6533 C.2       12 UNK         0.5000 
     73 O          -4.8114  -24.0004  -47.4757 O.2       12 UNK        -0.5000 
     74 N          -3.4421  -24.6162  -45.7738 N.am      13 UNK        -0.5000 
     75 CA         -3.8267  -26.0251  -45.7075 C.3       13 UNK         0.1400 
     76 CB         -3.4991  -26.5544  -44.3026 C.3       13 UNK        -0.1800 
     77 C          -3.1412  -26.8949  -46.7818 C.2       13 UNK         0.5000 
     78 O          -3.6268  -27.9926  -47.0579 O.2       13 UNK        -0.5000 
     79 N          -2.0267  -26.4152  -47.3506 N.am      14 UNK        -0.5000 
     80 CA         -1.2285  -27.1235  -48.3485 C.3       14 UNK         0.1400 
     81 CB          0.2620  -26.8058  -48.1395 C.3       14 UNK        -0.1800 
     82 C          -1.6722  -26.7698  -49.7761 C.2       14 UNK         0.5000 
     83 O          -1.9341  -27.6791  -50.5649 O.2       14 UNK        -0.5000 
     84 N          -1.7566  -25.4684  -50.0853 N.am      15 UNK        -0.5000 
     85 CA         -2.1195  -24.9595  -51.4073 C.3       15 UNK         0.1400 
     86 CB         -0.9673  -25.1418  -52.4206 C.3       15 UNK        -0.1800 
     87 C          -2.6450  -23.5179  -51.3211 C.2       15 UNK         0.5000 
     88 O          -2.0587  -22.6020  -51.8996 O.2       15 UNK        -0.5000 
     89 N          -3.7721  -23.3601  -50.6148 N.am      16 UNK        -0.5000 
     90 CA         -4.7298  -22.2445  -50.6542 C.3       16 UNK         0.1400 
     91 CB         -5.2794  -22.0754  -52.0822 C.3       16 UNK        -0.1800 
     92 C          -4.2647  -20.8881  -50.0853 C.2       16 UNK         0.5000 
     93 O          -5.0759  -20.2113  -49.4526 O.2       16 UNK        -0.5000 
     94 N          -2.9946  -20.5208  -50.2993 N.am      17 UNK        -0.5000 
     95 CA         -2.3079  -19.3016  -49.8533 C.3       17 UNK         0.1400 
     96 CB         -1.9313  -19.4051  -48.3663 C.3       17 UNK        -0.1800 
     97 C          -3.0682  -18.0028  -50.1830 C.2       17 UNK         0.5000 
     98 O          -2.9143  -17.4815  -51.2852 O.2       17 UNK        -0.5000 
     99 N          -3.8841  -17.5107  -49.2424 N.am      18 UNK        -0.5000 
    100 CA        -4.7011  -16.3069  -49.3937 C.3       18 UNK         0.1400 
    101 CB        -5.2986  -15.9305  -48.0301 C.3       18 UNK        -0.1800 
    102 C         -5.8041  -16.4534  -50.4563 C.2       18 UNK         0.5000 
    103 O         -6.1697  -15.4628  -51.0902 O.2       18 UNK        -0.5000 
    104 N         -6.2863  -17.6844  -50.6724 N.am      19 UNK        -0.5000 
    105 CA        -7.2651  -18.0304  -51.7020 C.3       19 UNK         0.1400 
    106 CB        -8.0992  -19.2294  -51.2170 C.3       19 UNK        -0.1800 
    107 C         -6.5865  -18.2523  -53.0718 C.2       19 UNK         0.5000 
    108 O         -6.6988  -19.3300  -53.6551 O.2       19 UNK        -0.5000 
    109 N         -5.8934  -17.2104  -53.5529 N.am      20 UNK        -0.5000 
    110 CA        -5.2259  -17.0907  -54.8572 C.3       20 UNK         0.1400 
    111 CB        -6.2434  -17.2184  -56.0110 C.3       20 UNK        -0.1800 
    112 C         -3.9865  -17.9939  -55.0557 C.2       20 UNK         0.5000 
    113 O         -3.5421  -18.1586  -56.1932 O.2       20 UNK        -0.5000 
    114 N         -3.4161  -18.4983  -53.9528 N.am      21 UNK        -0.5000 
    115 CA        -2.1602  -19.2501  -53.8509 C.3       21 UNK         0.1400 
    116 CB        -0.9678  -18.3053  -54.1272 C.3       21 UNK        -0.1800 
    117 C         -2.1080  -20.5554  -54.6764 C.2       21 UNK         0.5000 
    118 O         -3.1439  -21.0995  -55.0664 O.2       21 UNK        -0.5000 
    119 N         -0.8850  -21.0557  -54.8797 N.am      22 UNK        -0.5000 
    120 CA        -0.5417  -22.2245  -55.6954 C.3       22 UNK         0.1400 
    121 C         -0.9306  -22.0830  -57.1965 C.2       22 UNK         0.5000 
    122 N         -1.2458  -23.1857  -57.8637 N.am      22 UNK        -0.7600 
    123 O         -0.9126  -20.9980  -57.7741 O.2       22 UNK        -0.5000 
    124 C124        0.9580  -22.5917  -55.5275 C.3       23 UNK        -0.0398 
    125 S125        2.1081  -21.1872  -55.7905 S.3       23 UNK        -0.2404 
    126 C126        3.1830  -21.2591  -54.3210 C.3       23 UNK        -0.0205 
    127 H127       -2.4414  -15.6200  -53.1604 H         1 UNK         0.0600 
    128 H128       -2.8515  -14.0107  -53.7479 H         1 UNK         0.0600 
    129 H129       -3.8690  -14.7930  -52.5337 H         1 UNK         0.0600 
    130 H130       -1.0977  -15.7745  -51.3231 H         1 UNK         0.3000 
    131 H131        0.0236  -13.3304  -50.1923 H         1 UNK         0.0600 
    132 H132        1.4829  -14.9249  -48.8742 H         1 UNK         0.0800 
    133 H133        1.6800  -14.9329  -50.5954 H         1 UNK         0.0800 
    134 H134        1.3400  -16.9909  -52.1434 H         1 UNK         0.0800 
    135 H135        2.7537  -17.1388  -51.1202 H         1 UNK         0.0800 
    136 H136        2.8037  -18.7079  -53.4264 H         1 UNK         0.1150 
    137 H137        2.0318  -22.7917  -52.3805 H         1 UNK         0.1150 
    138 H138        0.8460  -19.6733  -49.7244 H         1 UNK         0.1150 
    139 H139       -0.1128  -21.9445  -49.5423 H         1 UNK         0.0800 
    140 H140        0.4480  -23.2241  -50.5656 H         1 UNK         0.0800 
    141 H141        0.9333  -21.0771  -47.5416 H         1 UNK         0.0800 
    142 H142        2.3230  -21.7524  -46.7473 H         1 UNK         0.0800 
    143 H143        0.9158  -23.9322  -46.4405 H         1 UNK         0.0600 
    144 H144        1.0926  -21.6733  -44.7716 H         1 UNK         0.3000 
    145 H145       -0.3015  -23.2687  -41.8618 H         1 UNK         0.0600 
    146 H146        2.0906  -23.9345  -42.1108 H         1 UNK         0.0600 
    147 H147        2.4929  -22.3252  -42.6982 H         1 UNK         0.0600 
    148 H148        1.9210  -22.5452  -41.0476 H         1 UNK         0.0600 
    149 H149        0.7293  -20.6273  -42.3613 H         1 UNK         0.3000 
    150 H150       -2.4518  -19.1055  -43.0225 H         1 UNK         0.0600 
    151 H151       -1.5187  -17.6275  -41.2038 H         1 UNK         0.0600 
    152 H152       -0.4986  -18.9551  -40.6648 H         1 UNK         0.0600 
    153 H153       -2.2474  -19.0955  -40.5712 H         1 UNK         0.0600 
    154 H154        0.1127  -17.9463  -42.9984 H         1 UNK         0.3000 
    155 H155        1.1014  -18.7782  -46.3508 H         1 UNK         0.0600 
    156 H156       -0.4088  -16.7799  -46.4928 H         1 UNK         0.0600 
    157 H157        1.2880  -16.3270  -46.4806 H         1 UNK         0.0600 
    158 H158        0.3145  -16.1416  -45.0234 H         1 UNK         0.0600 
    159 H159        2.3124  -17.2718  -44.2134 H         1 UNK         0.3000 
    160 H160        4.2347  -19.9916  -42.8836 H         1 UNK         0.0600 
    161 H161        5.4609  -19.0756  -44.8622 H         1 UNK         0.0600 
    162 H162        6.0221  -18.3462  -43.3664 H         1 UNK         0.0600 
    163 H163        4.9511  -17.4454  -44.4395 H         1 UNK         0.0600 
    164 H164        4.0216  -17.2385  -42.1452 H         1 UNK         0.3000 
    165 H165        1.3140  -17.5240  -39.8796 H         1 UNK         0.0600 
    166 H166        2.9850  -16.7266  -38.2381 H         1 UNK         0.0600 
    167 H167        3.2334  -18.4345  -38.5617 H         1 UNK         0.0600 
    168 H168        4.3079  -17.2434  -39.2847 H         1 UNK         0.0600 
    169 H169        3.0471  -15.3601  -40.3504 H         1 UNK         0.3000 
    170 H170        2.3805  -13.5540  -41.4332 H         1 UNK         0.0600 
    171 H171        2.6785  -12.9532  -43.8266 H         1 UNK         0.0600 
    172 H172        3.5025  -14.4647  -43.4743 H         1 UNK         0.0600 
    173 H173        1.9644  -14.4815  -44.3301 H         1 UNK         0.0600 
    174 H174        0.0397  -13.5007  -43.2164 H         1 UNK         0.3000 
    175 H175       -2.2841  -12.7632  -40.6572 H         1 UNK         0.0600 
    176 H176       -1.2060  -10.7954  -42.7531 H         1 UNK         0.0600 
    177 H177       -2.8029  -10.7362  -42.0059 H         1 UNK         0.0600 
    178 H178       -1.3661  -10.4681  -41.0314 H         1 UNK         0.0600 
    179 H179       -2.2820  -12.8324  -43.5629 H         1 UNK         0.3000 
    180 H180       -1.9541  -15.9877  -44.1771 H         1 UNK         0.0600 
    181 H181       -4.2014  -16.7002  -44.9243 H         1 UNK         0.0600 
    182 H182       -4.9608  -15.5171  -43.8567 H         1 UNK         0.0600 
    183 H183       -4.0583  -16.8710  -43.1857 H         1 UNK         0.0600 
    184 H184       -3.7441  -14.2923  -45.6072 H         1 UNK         0.3000 
    185 H185       -3.1374  -13.0457  -47.2477 H         1 UNK         0.0600 
    186 H186       -0.9909  -11.0907  -46.2640 H         1 UNK         0.0600 
    187 H187       -2.2925  -10.7261  -47.3972 H         1 UNK         0.0600 
    188 H188       -2.6659  -11.1142  -45.7261 H         1 UNK         0.0600 
    189 H189       -0.6853  -12.3535  -48.4007 H         1 UNK         0.3000 
    190 H190       -1.6023  -21.6645  -45.5621 H         1 UNK         0.3000 
    191 H191       -3.3913  -21.9274  -47.6488 H         1 UNK         0.0600 
    192 H192       -4.0507  -21.7740  -44.6605 H         1 UNK         0.0600 
    193 H193       -5.1272  -21.3294  -45.9797 H         1 UNK         0.0600 
    194 H194       -3.6708  -20.3935  -45.6850 H         1 UNK         0.0600 
    195 H195       -2.7044  -24.3171  -45.1491 H         1 UNK         0.3000 
    196 H196       -4.9055  -26.1039  -45.8580 H         1 UNK         0.0600 
    197 H197       -3.7983  -27.5981  -44.1971 H         1 UNK         0.0600 
    198 H198       -4.0253  -25.9872  -43.5346 H         1 UNK         0.0600 
    199 H199       -2.4307  -26.4953  -44.0904 H         1 UNK         0.0600 
    200 H200       -1.7393  -25.4670  -47.1413 H         1 UNK         0.3000 
    201 H201       -1.3529  -28.2005  -48.2155 H         1 UNK         0.0600 
    202 H202        0.5838  -27.0722  -47.1327 H         1 UNK         0.0600 
    203 H203        0.4846  -25.7498  -48.2922 H         1 UNK         0.0600 
    204 H204        0.8796  -27.3709  -48.8385 H         1 UNK         0.0600 
    205 H205       -1.5453  -24.7740  -49.3700 H         1 UNK         0.3000 
    206 H206       -2.9618  -25.5488  -51.7766 H         1 UNK         0.0600 
    207 H207       -1.2223  -24.7017  -53.3851 H         1 UNK         0.0600 
    208 H208       -0.0400  -24.6823  -52.0873 H         1 UNK         0.0600 
    209 H209       -0.7628  -26.1971  -52.5996 H         1 UNK         0.0600 
    210 H210       -4.0998  -24.1617  -50.0925 H         1 UNK         0.3000 
    211 H211       -5.5611  -22.5659  -50.0245 H         1 UNK         0.0600 
    212 H212       -4.5243  -21.6846  -52.7646 H         1 UNK         0.0600 
    213 H213       -6.1178  -21.3839  -52.1016 H         1 UNK         0.0600 
    214 H214       -5.6383  -23.0222  -52.4853 H         1 UNK         0.0600 
    215 H215       -2.4438  -21.1590  -50.8709 H         1 UNK         0.3000 
    216 H216       -1.3818  -19.2537  -50.4242 H         1 UNK         0.0600 
    217 H217       -2.8034  -19.5396  -47.7284 H         1 UNK         0.0600 
    218 H218       -1.4138  -18.5059  -48.0300 H         1 UNK         0.0600 
    219 H219       -1.2604  -20.2436  -48.1924 H         1 UNK         0.0600 
    220 H220       -3.9781  -18.0194  -48.3765 H         1 UNK         0.3000 
    221 H221       -4.0496  -15.4942  -49.7193 H         1 UNK         0.0600 
    222 H222       -5.9456  -16.7183  -47.6423 H         1 UNK         0.0600 
    223 H223       -4.5122  -15.7491  -47.2980 H         1 UNK         0.0600 
    224 H224       -5.8934  -15.0191  -48.1018 H         1 UNK         0.0600 
    225 H225       -5.8939  -18.4569  -50.1428 H         1 UNK         0.3000 
    226 H226       -7.9588  -17.1971  -51.8330 H         1 UNK         0.0600 
    227 H227       -8.6971  -18.9571  -50.3472 H         1 UNK         0.0600 
    228 H228       -8.7907  -19.5716  -51.9880 H         1 UNK         0.0600 
    229 H229       -7.4741  -20.0726  -50.9295 H         1 UNK         0.0600 
    230 H230       -5.8531  -16.3850  -52.9649 H         1 UNK         0.3000 
    231 H231       -4.8407  -16.0706  -54.8867 H         1 UNK         0.0600 
    232 H232       -5.7903  -16.9496  -56.9659 H         1 UNK         0.0600 
    233 H233       -6.6213  -18.2366  -56.1067 H         1 UNK         0.0600 
    234 H234       -7.0956  -16.5553  -55.8622 H         1 UNK         0.0600 
    235 H235       -3.8313  -18.2575  -53.0621 H         1 UNK         0.3000 
    236 H236       -2.0875  -19.5704  -52.8127 H         1 UNK         0.0600 
    237 H237       -0.9477  -17.9731  -55.1655 H         1 UNK         0.0600 
    238 H238       -1.0135  -17.4219  -53.4920 H         1 UNK         0.0600 
    239 H239       -0.0128  -18.7826  -53.9171 H         1 UNK         0.0600 
    240 H240       -0.0901  -20.5404  -54.5317 H         1 UNK         0.3000 
    241 H241       -1.1294  -23.0530  -55.2957 H         1 UNK         0.0600 
    242 H242       -1.4860  -23.1128  -58.8404 H         1 UNK         0.3800 
    243 H243       -1.2624  -24.0907  -57.4192 H         1 UNK         0.3800 
    244 H244        1.1083  -22.9974  -54.5281 H         1 UNK         0.0800 
    245 H245        1.2382  -23.4000  -56.2052 H         1 UNK         0.0800 
    246 H246        4.0551  -20.6282  -54.4988 H         1 UNK         0.0800 
    247 H247        3.5677  -22.2734  -54.2024 H         1 UNK         0.0800 
@<TRIPOS>BOND
     1    1    2 1    
     2    1  127 1    
     3    1  128 1    
     4    1  129 1    
     5    2    3 2    
     6    2    4 am   BACKBONE|DICT|INTERRES
     7    4    5 1    
     8    4  130 1    
     9    5    6 1    
    10    5   65 1    
    11    5  131 1    
    12    6    7 1    
    13    6  132 1    
    14    6  133 1    
    15    7    8 1    
    16    8    9 1    
    17    8  134 1    
    18    8  135 1    
    19    9   10 ar   
    20    9   14 ar   
    21   10   11 ar   
    22   10  136 1    
    23   11   12 ar   
    24   11  126 1    
    25   12   13 ar   
    26   12  137 1    
    27   13   14 ar   
    28   13   15 1    
    29   14  138 1    
    30   15   16 1    
    31   15  139 1    
    32   15  140 1    
    33   16   17 1    
    34   17   18 1    
    35   17  141 1    
    36   17  142 1    
    37   18   19 1    
    38   18   67 1    
    39   18  143 1    
    40   19   20 am   BACKBONE|DICT|INTERRES
    41   19  144 1    
    42   20   21 2    
    43   20   22 1    
    44   22   23 1    
    45   22   24 1    
    46   22  145 1    
    47   23  146 1    
    48   23  147 1    
    49   23  148 1    
    50   24   25 am   BACKBONE|DICT|INTERRES
    51   24  149 1    
    52   25   26 2    
    53   25   27 1    
    54   27   28 1    
    55   27   29 1    
    56   27  150 1    
    57   28  151 1    
    58   28  152 1    
    59   28  153 1    
    60   29   30 am   BACKBONE|DICT|INTERRES
    61   29  154 1    
    62   30   31 2    
    63   30   32 1    
    64   32   33 1    
    65   32   34 1    
    66   32  155 1    
    67   33  156 1    
    68   33  157 1    
    69   33  158 1    
    70   34   35 am   BACKBONE|DICT|INTERRES
    71   34  159 1    
    72   35   36 2    
    73   35   37 1    
    74   37   38 1    
    75   37   39 1    
    76   37  160 1    
    77   38  161 1    
    78   38  162 1    
    79   38  163 1    
    80   39   40 am   BACKBONE|DICT|INTERRES
    81   39  164 1    
    82   40   41 2    
    83   40   42 1    
    84   42   43 1    
    85   42   44 1    
    86   42  165 1    
    87   43  166 1    
    88   43  167 1    
    89   43  168 1    
    90   44   45 am   BACKBONE|DICT|INTERRES
    91   44  169 1    
    92   45   46 2    
    93   45   47 1    
    94   47   48 1    
    95   47   49 1    
    96   47  170 1    
    97   48  171 1    
    98   48  172 1    
    99   48  173 1    
   100   49   50 am   BACKBONE|DICT|INTERRES
   101   49  174 1    
   102   50   51 2    
   103   50   52 1    
   104   52   53 1    
   105   52   54 1    
   106   52  175 1    
   107   53  176 1    
   108   53  177 1    
   109   53  178 1    
   110   54   55 am   BACKBONE|DICT|INTERRES
   111   54  179 1    
   112   55   56 2    
   113   55   57 1    
   114   57   58 1    
   115   57   59 1    
   116   57  180 1    
   117   58  181 1    
   118   58  182 1    
   119   58  183 1    
   120   59   60 am   BACKBONE|DICT|INTERRES
   121   59  184 1    
   122   60   61 2    
   123   60   62 1    
   124   62   63 1    
   125   62   64 1    
   126   62  185 1    
   127   63  186 1    
   128   63  187 1    
   129   63  188 1    
   130   64   65 am   BACKBONE|DICT|INTERRES
   131   64  189 1    
   132   65   66 2    
   133   67   68 2    
   134   67   69 am   BACKBONE|DICT|INTERRES
   135   69   70 1    
   136   69  190 1    
   137   70   71 1    
   138   70   72 1    
   139   70  191 1    
   140   71  192 1    
   141   71  193 1    
   142   71  194 1    
   143   72   73 2    
   144   72   74 am   BACKBONE|DICT|INTERRES
   145   74   75 1    
   146   74  195 1    
   147   75   76 1    
   148   75   77 1    
   149   75  196 1    
   150   76  197 1    
   151   76  198 1    
   152   76  199 1    
   153   77   78 2    
   154   77   79 am   BACKBONE|DICT|INTERRES
   155   79   80 1    
   156   79  200 1    
   157   80   81 1    
   158   80   82 1    
   159   80  201 1    
   160   81  202 1    
   161   81  203 1    
   162   81  204 1    
   163   82   83 2    
   164   82   84 am   BACKBONE|DICT|INTERRES
   165   84   85 1    
   166   84  205 1    
   167   85   86 1    
   168   85   87 1    
   169   85  206 1    
   170   86  207 1    
   171   86  208 1    
   172   86  209 1    
   173   87   88 2    
   174   87   89 am   BACKBONE|DICT|INTERRES
   175   89   90 1    
   176   89  210 1    
   177   90   91 1    
   178   90   92 1    
   179   90  211 1    
   180   91  212 1    
   181   91  213 1    
   182   91  214 1    
   183   92   93 2    
   184   92   94 am   BACKBONE|DICT|INTERRES
   185   94   95 1    
   186   94  215 1    
   187   95   96 1    
   188   95   97 1    
   189   95  216 1    
   190   96  217 1    
   191   96  218 1    
   192   96  219 1    
   193   97   98 2    
   194   97   99 am   BACKBONE|DICT|INTERRES
   195   99  100 1    
   196   99  220 1    
   197  100  101 1    
   198  100  102 1    
   199  100  221 1    
   200  101  222 1    
   201  101  223 1    
   202  101  224 1    
   203  102  103 2    
   204  102  104 am   BACKBONE|DICT|INTERRES
   205  104  105 1    
   206  104  225 1    
   207  105  106 1    
   208  105  107 1    
   209  105  226 1    
   210  106  227 1    
   211  106  228 1    
   212  106  229 1    
   213  107  108 2    
   214  107  109 am   BACKBONE|DICT|INTERRES
   215  109  110 1    
   216  109  230 1    
   217  110  111 1    
   218  110  112 1    
   219  110  231 1    
   220  111  232 1    
   221  111  233 1    
   222  111  234 1    
   223  112  113 2    
   224  112  114 am   BACKBONE|DICT|INTERRES
   225  114  115 1    
   226  114  235 1    
   227  115  116 1    
   228  115  117 1    
   229  115  236 1    
   230  116  237 1    
   231  116  238 1    
   232  116  239 1    
   233  117  118 2    
   234  117  119 am   BACKBONE|DICT|INTERRES
   235  119  120 1    
   236  119  240 1    
   237  120  121 1    
   238  120  124 1    
   239  120  241 1    
   240  121  122 am   BACKBONE|DICT|INTERRES
   241  121  123 2    
   242  122  242 1    
   243  122  243 1    
   244  124  125 1    
   245  124  244 1    
   246  124  245 1    
   247  125  126 1    
   248  126  246 1    
   249  126  247 1    
@<TRIPOS>SUBSTRUCTURE
     1 UNK         1 GROUP             0       ****    0 ROOT    
