@<TRIPOS>MOLECULE
3R540
247   249    1
SMALL
USER_CHARGES


@<TRIPOS>ATOM
      1 CA         -2.1529  -11.9386  -48.3787 C.3       0 UNK        -0.1800 
      2 C          -2.2677  -12.6485  -49.7273 C.2       0 UNK         0.5000 
      3 O          -3.3684  -12.7365  -50.2681 O.2       0 UNK        -0.5000 
      4 N          -1.1759  -13.1527  -50.3199 N.am      1 UNK        -0.5000 
      5 CA          0.1836  -13.2103  -49.7736 C.3       1 UNK         0.1400 
      6 C6          1.2112  -13.5416  -50.8876 C.3       23 UNK        -0.0398 
      7 S7          2.9541  -13.5073  -50.3208 S.3       23 UNK        -0.2404 
      8 C8          3.6969  -14.9622  -51.1306 C.3       23 UNK        -0.0205 
      9 C9          3.0322  -16.2842  -50.7626 C.ar      23 UNK        -0.0193 
     10 C10         2.1597  -16.8924  -51.6697 C.ar      23 UNK        -0.1150 
     11 C11         1.5824  -18.1308  -51.3845 C.ar      23 UNK        -0.0193 
     12 C12         1.8907  -18.7714  -50.1828 C.ar      23 UNK        -0.1150 
     13 C13         2.7690  -18.1822  -49.2673 C.ar      23 UNK        -0.0193 
     14 C14         3.3309  -16.9324  -49.5579 C.ar      23 UNK        -0.1150 
     15 C15         3.1527  -18.9345  -47.9992 C.3       23 UNK        -0.0205 
     16 S16         2.2162  -18.4116  -46.5267 S.3       23 UNK        -0.2404 
     17 C17         0.4818  -18.7211  -47.0097 C.3       23 UNK        -0.0398 
     18 CA          0.1017  -20.2215  -47.0419 C.3       11 UNK         0.1400 
     19 N           0.3023  -20.8975  -45.7560 N.am      11 UNK        -0.5000 
     20 C           0.1798  -22.2191  -45.5641 C.2       10 UNK         0.5000 
     21 O          -0.0543  -23.0220  -46.4664 O.2       10 UNK        -0.5000 
     22 CA          0.2747  -22.7251  -44.1159 C.3       10 UNK         0.1400 
     23 CB          1.7373  -22.9438  -43.6996 C.3       10 UNK        -0.1800 
     24 N          -0.3827  -21.8098  -43.1837 N.am      10 UNK        -0.5000 
     25 C          -1.7116  -21.6749  -43.0717 C.2       9 UNK         0.5000 
     26 O          -2.5200  -22.3431  -43.7153 O.2       9 UNK        -0.5000 
     27 CA         -2.2236  -20.5861  -42.1092 C.3       9 UNK         0.1400 
     28 CB         -2.2665  -21.1138  -40.6677 C.3       9 UNK        -0.1800 
     29 N          -1.4194  -19.3644  -42.1523 N.am      9 UNK        -0.5000 
     30 C          -1.3279  -18.5557  -43.2169 C.2       8 UNK         0.5000 
     31 O          -1.9490  -18.7318  -44.2638 O.2       8 UNK        -0.5000 
     32 CA         -0.3342  -17.3838  -43.1211 C.3       8 UNK         0.1400 
     33 CB         -1.0163  -16.1534  -42.5051 C.3       8 UNK        -0.1800 
     34 N           0.8881  -17.6810  -42.3704 N.am      8 UNK        -0.5000 
     35 C           1.7173  -18.7125  -42.5845 C.2       7 UNK         0.5000 
     36 O           1.5095  -19.5870  -43.4231 O.2       7 UNK        -0.5000 
     37 CA          2.9865  -18.7998  -41.7204 C.3       7 UNK         0.1400 
     38 CB          4.2193  -18.4104  -42.5484 C.3       7 UNK        -0.1800 
     39 N           2.9251  -17.9636  -40.5201 N.am      7 UNK        -0.5000 
     40 C           2.2742  -18.2907  -39.3949 C.2       6 UNK         0.5000 
     41 O           1.6420  -19.3376  -39.2519 O.2       6 UNK        -0.5000 
     42 CA          2.3380  -17.2752  -38.2378 C.3       6 UNK         0.1400 
     43 CB          3.5421  -17.5719  -37.3310 C.3       6 UNK        -0.1800 
     44 N           2.4245  -15.8916  -38.7095 N.am      6 UNK        -0.5000 
     45 C           1.3864  -15.1910  -39.1868 C.2       5 UNK         0.5000 
     46 O           0.2338  -15.6204  -39.2305 O.2       5 UNK        -0.5000 
     47 CA          1.6984  -13.7872  -39.7435 C.3       5 UNK         0.1400 
     48 CB          1.6594  -12.7390  -38.6213 C.3       5 UNK        -0.1800 
     49 N           2.9884  -13.7073  -40.4395 N.am      5 UNK        -0.5000 
     50 C           3.2897  -14.4023  -41.5430 C.2       4 UNK         0.5000 
     51 O           2.5143  -15.2015  -42.0755 O.2       4 UNK        -0.5000 
     52 CA          4.6965  -14.2148  -42.1277 C.3       4 UNK         0.1400 
     53 CB          5.7470  -14.9371  -41.2615 C.3       4 UNK        -0.1800 
     54 N           4.6722  -14.7703  -43.4742 N.am      4 UNK        -0.5000 
     55 C           5.5966  -14.6552  -44.4315 C.2       3 UNK         0.5000 
     56 O           6.6589  -14.0476  -44.2941 O.2       3 UNK        -0.5000 
     57 CA          5.2676  -15.3281  -45.7803 C.3       3 UNK         0.1400 
     58 CB          5.9034  -16.7243  -45.8601 C.3       3 UNK        -0.1800 
     59 N           3.8271  -15.4460  -46.0320 N.am      3 UNK        -0.5000 
     60 C           3.0322  -14.4102  -46.3248 C.2       2 UNK         0.5000 
     61 O           3.4293  -13.2461  -46.4254 O.2       2 UNK        -0.5000 
     62 CA          1.5437  -14.7145  -46.5322 C.3       2 UNK         0.1400 
     63 CB          0.7405  -14.4489  -45.2509 C.3       2 UNK        -0.1800 
     64 N           1.0772  -13.8479  -47.6003 N.am      2 UNK        -0.5000 
     65 C           0.2680  -14.2092  -48.5983 C.2       1 UNK         0.5000 
     66 O          -0.3623  -15.2684  -48.6334 O.2       1 UNK        -0.5000 
     67 C          -1.3397  -20.4089  -47.5588 C.2       11 UNK         0.5000 
     68 O          -1.5237  -20.7612  -48.7237 O.2       11 UNK        -0.5000 
     69 N          -2.3303  -20.2280  -46.6722 N.am      12 UNK        -0.5000 
     70 CA         -3.7480  -20.4602  -46.9494 C.3       12 UNK         0.1400 
     71 CB         -4.5967  -19.9641  -45.7700 C.3       12 UNK        -0.1800 
     72 C          -4.0664  -21.9322  -47.2624 C.2       12 UNK         0.5000 
     73 O          -4.8700  -22.1922  -48.1579 O.2       12 UNK        -0.5000 
     74 N          -3.4200  -22.8649  -46.5479 N.am      13 UNK        -0.5000 
     75 CA         -3.5268  -24.3048  -46.7861 C.3       13 UNK         0.1400 
     76 CB         -2.8715  -25.0815  -45.6346 C.3       13 UNK        -0.1800 
     77 C          -2.9304  -24.7199  -48.1427 C.2       13 UNK         0.5000 
     78 O          -3.5725  -25.4726  -48.8748 O.2       13 UNK        -0.5000 
     79 N          -1.7463  -24.1859  -48.4786 N.am      14 UNK        -0.5000 
     80 CA         -1.0746  -24.3801  -49.7678 C.3       14 UNK         0.1400 
     81 CB          0.3233  -23.7434  -49.7232 C.3       14 UNK        -0.1800 
     82 C          -1.8884  -23.8215  -50.9497 C.2       14 UNK         0.5000 
     83 O          -1.9822  -24.4704  -51.9907 O.2       14 UNK        -0.5000 
     84 N          -2.5060  -22.6522  -50.7410 N.am      15 UNK        -0.5000 
     85 CA         -3.4272  -22.0076  -51.6741 C.3       15 UNK         0.1400 
     86 CB         -3.5670  -20.5317  -51.2744 C.3       15 UNK        -0.1800 
     87 C          -4.8148  -22.6722  -51.7495 C.2       15 UNK         0.5000 
     88 O          -5.6084  -22.2786  -52.6045 O.2       15 UNK        -0.5000 
     89 N          -5.1032  -23.6269  -50.8525 N.am      16 UNK        -0.5000 
     90 CA         -6.3724  -24.3412  -50.6830 C.3       16 UNK         0.1400 
     91 CB         -6.6231  -25.2852  -51.8765 C.3       16 UNK        -0.1800 
     92 C          -7.5496  -23.3806  -50.4187 C.2       16 UNK         0.5000 
     93 O          -8.5894  -23.4808  -51.0694 O.2       16 UNK        -0.5000 
     94 N          -7.3352  -22.4188  -49.5084 N.am      17 UNK        -0.5000 
     95 CA         -8.2333  -21.3014  -49.1868 C.3       17 UNK         0.1400 
     96 CB         -9.5202  -21.8053  -48.5012 C.3       17 UNK        -0.1800 
     97 C          -8.5065  -20.3994  -50.4121 C.2       17 UNK         0.5000 
     98 O          -9.6310  -19.9392  -50.6136 O.2       17 UNK        -0.5000 
     99 N          -7.4516  -20.1960  -51.2143 N.am      18 UNK        -0.5000 
    100 CA        -7.3806  -19.4530  -52.4767 C.3       18 UNK         0.1400 
    101 CB        -7.8753  -18.0006  -52.3184 C.3       18 UNK        -0.1800 
    102 C         -8.0232  -20.1658  -53.6849 C.2       18 UNK         0.5000 
    103 O         -8.0134  -19.5957  -54.7765 O.2       18 UNK        -0.5000 
    104 N         -8.5193  -21.4013  -53.5164 N.am      19 UNK        -0.5000 
    105 CA        -9.0947  -22.2048  -54.6002 C.3       19 UNK         0.1400 
    106 CB        -9.9080  -23.3660  -54.0106 C.3       19 UNK        -0.1800 
    107 C         -8.0380  -22.7394  -55.5870 C.2       19 UNK         0.5000 
    108 O         -8.3570  -22.9334  -56.7606 O.2       19 UNK        -0.5000 
    109 N         -6.8071  -22.9556  -55.1041 N.am      20 UNK        -0.5000 
    110 CA        -5.6573  -23.4088  -55.8908 C.3       20 UNK         0.1400 
    111 CB        -5.0165  -24.6164  -55.1849 C.3       20 UNK        -0.1800 
    112 C         -4.6230  -22.2853  -56.0970 C.2       20 UNK         0.5000 
    113 O         -3.5614  -22.5490  -56.6668 O.2       20 UNK        -0.5000 
    114 N         -4.9291  -21.0702  -55.6127 N.am      21 UNK        -0.5000 
    115 CA        -4.1568  -19.8180  -55.6395 C.3       21 UNK         0.1400 
    116 CB        -3.9316  -19.3355  -57.0844 C.3       21 UNK        -0.1800 
    117 C         -2.8299  -19.8616  -54.8547 C.2       21 UNK         0.5000 
    118 O         -2.5847  -18.9905  -54.0214 O.2       21 UNK        -0.5000 
    119 N         -2.0136  -20.8800  -55.1249 N.am      22 UNK        -0.5000 
    120 CA        -0.7512  -21.2114  -54.4559 C.3       22 UNK         0.1400 
    121 C         -0.3313  -22.6995  -54.6602 C.2       22 UNK         0.5000 
    122 N         -1.0769  -23.5226  -55.3928 N.am      22 UNK        -0.7600 
    123 O          0.6885  -23.1317  -54.1319 O.2       22 UNK        -0.5000 
    124 C124        0.3786  -20.2028  -54.8077 C.3       23 UNK        -0.0398 
    125 S125        1.5695  -19.9469  -53.4508 S.3       23 UNK        -0.2404 
    126 C126        0.6525  -18.7858  -52.3919 C.3       23 UNK        -0.0205 
    127 H127       -3.0767  -11.4061  -48.1514 H         1 UNK         0.0600 
    128 H128       -1.3471  -11.2054  -48.3787 H         1 UNK         0.0600 
    129 H129       -1.9794  -12.6564  -47.5772 H         1 UNK         0.0600 
    130 H130       -1.2995  -13.6328  -51.1993 H         1 UNK         0.3000 
    131 H131        0.4307  -12.2157  -49.3979 H         1 UNK         0.0600 
    132 H132        0.9753  -14.5067  -51.3328 H         1 UNK         0.0800 
    133 H133        1.1203  -12.8147  -51.6958 H         1 UNK         0.0800 
    134 H134        4.7525  -15.0076  -50.8593 H         1 UNK         0.0800 
    135 H135        3.6736  -14.8122  -52.2111 H         1 UNK         0.0800 
    136 H136        1.9400  -16.4078  -52.6107 H         1 UNK         0.1150 
    137 H137        1.4609  -19.7409  -49.9731 H         1 UNK         0.1150 
    138 H138        4.0204  -16.4770  -48.8610 H         1 UNK         0.1150 
    139 H139        3.0248  -20.0084  -48.1414 H         1 UNK         0.0800 
    140 H140        4.2157  -18.7903  -47.8036 H         1 UNK         0.0800 
    141 H141        0.2956  -18.2491  -47.9755 H         1 UNK         0.0800 
    142 H142       -0.1553  -18.1887  -46.3032 H         1 UNK         0.0800 
    143 H143        0.7556  -20.7155  -47.7625 H         1 UNK         0.0600 
    144 H144        0.5662  -20.3158  -44.9659 H         1 UNK         0.3000 
    145 H145       -0.2337  -23.6899  -44.0631 H         1 UNK         0.0600 
    146 H146        1.8054  -23.3111  -42.6755 H         1 UNK         0.0600 
    147 H147        2.2146  -23.6840  -44.3428 H         1 UNK         0.0600 
    148 H148        2.3251  -22.0286  -43.7680 H         1 UNK         0.0600 
    149 H149        0.2175  -21.1509  -42.7056 H         1 UNK         0.3000 
    150 H150       -3.2421  -20.3308  -42.4097 H         1 UNK         0.0600 
    151 H151       -2.8702  -22.0200  -40.6015 H         1 UNK         0.0600 
    152 H152       -2.7076  -20.3804  -39.9925 H         1 UNK         0.0600 
    153 H153       -1.2694  -21.3547  -40.2964 H         1 UNK         0.0600 
    154 H154       -0.8594  -19.1531  -41.3389 H         1 UNK         0.3000 
    155 H155       -0.0292  -17.1352  -44.1382 H         1 UNK         0.0600 
    156 H156       -1.3477  -16.3484  -41.4845 H         1 UNK         0.0600 
    157 H157       -1.8916  -15.8600  -43.0860 H         1 UNK         0.0600 
    158 H158       -0.3429  -15.2967  -42.4761 H         1 UNK         0.0600 
    159 H159        1.1862  -16.9741  -41.7112 H         1 UNK         0.3000 
    160 H160        3.1016  -19.8422  -41.4157 H         1 UNK         0.0600 
    161 H161        4.1480  -17.3874  -42.9131 H         1 UNK         0.0600 
    162 H162        4.3242  -19.0594  -43.4190 H         1 UNK         0.0600 
    163 H163        5.1354  -18.4996  -41.9645 H         1 UNK         0.0600 
    164 H164        3.3785  -17.0645  -40.5718 H         1 UNK         0.3000 
    165 H165        1.4288  -17.3891  -37.6433 H         1 UNK         0.0600 
    166 H166        3.5637  -16.9003  -36.4725 H         1 UNK         0.0600 
    167 H167        3.4974  -18.5908  -36.9440 H         1 UNK         0.0600 
    168 H168        4.4869  -17.4649  -37.8656 H         1 UNK         0.0600 
    169 H169        3.3351  -15.4565  -38.6942 H         1 UNK         0.3000 
    170 H170        0.9163  -13.5418  -40.4654 H         1 UNK         0.0600 
    171 H171        0.7022  -12.7622  -38.0985 H         1 UNK         0.0600 
    172 H172        2.4419  -12.9107  -37.8812 H         1 UNK         0.0600 
    173 H173        1.7866  -11.7315  -39.0179 H         1 UNK         0.0600 
    174 H174        3.6731  -13.0741  -40.0517 H         1 UNK         0.3000 
    175 H175        4.9192  -13.1476  -42.1833 H         1 UNK         0.0600 
    176 H176        5.5542  -16.0085  -41.2027 H         1 UNK         0.0600 
    177 H177        6.7528  -14.8029  -41.6589 H         1 UNK         0.0600 
    178 H178        5.7538  -14.5478  -40.2429 H         1 UNK         0.0600 
    179 H179        3.8072  -15.2543  -43.6819 H         1 UNK         0.3000 
    180 H180        5.7053  -14.7116  -46.5684 H         1 UNK         0.0600 
    181 H181        5.4614  -17.4120  -45.1389 H         1 UNK         0.0600 
    182 H182        6.9744  -16.6794  -45.6582 H         1 UNK         0.0600 
    183 H183        5.7808  -17.1545  -46.8538 H         1 UNK         0.0600 
    184 H184        3.4315  -16.3760  -45.9837 H         1 UNK         0.3000 
    185 H185        1.4290  -15.7564  -46.8275 H         1 UNK         0.0600 
    186 H186        1.1291  -15.0424  -44.4238 H         1 UNK         0.0600 
    187 H187        0.7911  -13.4011  -44.9525 H         1 UNK         0.0600 
    188 H188       -0.3093  -14.7117  -45.3820 H         1 UNK         0.0600 
    189 H189        1.6057  -12.9871  -47.6757 H         1 UNK         0.3000 
    190 H190       -2.1049  -19.8854  -45.7414 H         1 UNK         0.3000 
    191 H191       -4.0147  -19.8709  -47.8288 H         1 UNK         0.0600 
    192 H192       -4.3477  -20.4880  -44.8466 H         1 UNK         0.0600 
    193 H193       -5.6597  -20.1178  -45.9603 H         1 UNK         0.0600 
    194 H194       -4.4479  -18.8978  -45.5994 H         1 UNK         0.0600 
    195 H195       -2.8232  -22.5721  -45.7829 H         1 UNK         0.3000 
    196 H196       -4.5884  -24.5607  -46.7995 H         1 UNK         0.0600 
    197 H197       -2.9752  -26.1571  -45.7821 H         1 UNK         0.0600 
    198 H198       -3.3379  -24.8385  -44.6798 H         1 UNK         0.0600 
    199 H199       -1.8072  -24.8639  -45.5527 H         1 UNK         0.0600 
    200 H200       -1.2583  -23.6099  -47.7965 H         1 UNK         0.3000 
    201 H201       -0.9560  -25.4542  -49.9235 H         1 UNK         0.0600 
    202 H202        0.9350  -24.1907  -48.9397 H         1 UNK         0.0600 
    203 H203        0.2728  -22.6706  -49.5350 H         1 UNK         0.0600 
    204 H204        0.8478  -23.8859  -50.6690 H         1 UNK         0.0600 
    205 H205       -2.3211  -22.1538  -49.8748 H         1 UNK         0.3000 
    206 H206       -3.0002  -22.0605  -52.6756 H         1 UNK         0.0600 
    207 H207       -2.5974  -20.0334  -51.2649 H         1 UNK         0.0600 
    208 H208       -4.1960  -19.9894  -51.9789 H         1 UNK         0.0600 
    209 H209       -4.0090  -20.4226  -50.2839 H         1 UNK         0.0600 
    210 H210       -4.3869  -23.8684  -50.1796 H         1 UNK         0.3000 
    211 H211       -6.2654  -24.9551  -49.7878 H         1 UNK         0.0600 
    212 H212       -6.8122  -24.7332  -52.7966 H         1 UNK         0.0600 
    213 H213       -7.4906  -25.9205  -51.6950 H         1 UNK         0.0600 
    214 H214       -5.7691  -25.9405  -52.0476 H         1 UNK         0.0600 
    215 H215       -6.4313  -22.4032  -49.0357 H         1 UNK         0.3000 
    216 H216       -7.6991  -20.6805  -48.4661 H         1 UNK         0.0600 
    217 H217      -10.1221  -20.9706  -48.1404 H         1 UNK         0.0600 
    218 H218       -9.2878  -22.4325  -47.6407 H         1 UNK         0.0600 
    219 H219      -10.1437  -22.3862  -49.1814 H         1 UNK         0.0600 
    220 H220       -6.6030  -20.6869  -50.9722 H         1 UNK         0.3000 
    221 H221       -6.3189  -19.3975  -52.7161 H         1 UNK         0.0600 
    222 H222       -8.9551  -17.9498  -52.1787 H         1 UNK         0.0600 
    223 H223       -7.4009  -17.5116  -51.4675 H         1 UNK         0.0600 
    224 H224       -7.6375  -17.4096  -53.2036 H         1 UNK         0.0600 
    225 H225       -8.4733  -21.8352  -52.6025 H         1 UNK         0.3000 
    226 H226       -9.7815  -21.5687  -55.1626 H         1 UNK         0.0600 
    227 H227      -10.6359  -23.0123  -53.2801 H         1 UNK         0.0600 
    228 H228      -10.4585  -23.8898  -54.7929 H         1 UNK         0.0600 
    229 H229       -9.2667  -24.0990  -53.5206 H         1 UNK         0.0600 
    230 H230       -6.6151  -22.7508  -54.1256 H         1 UNK         0.3000 
    231 H231       -5.9761  -23.7310  -56.8838 H         1 UNK         0.0600 
    232 H232       -5.7437  -25.4135  -55.0305 H         1 UNK         0.0600 
    233 H233       -4.6023  -24.3470  -54.2133 H         1 UNK         0.0600 
    234 H234       -4.2038  -25.0339  -55.7803 H         1 UNK         0.0600 
    235 H235       -5.8277  -20.9965  -55.1578 H         1 UNK         0.3000 
    236 H236       -4.7859  -19.0767  -55.1439 H         1 UNK         0.0600 
    237 H237       -3.4289  -18.3676  -57.0971 H         1 UNK         0.0600 
    238 H238       -3.3161  -20.0292  -57.6576 H         1 UNK         0.0600 
    239 H239       -4.8789  -19.2162  -57.6102 H         1 UNK         0.0600 
    240 H240       -2.3331  -21.5393  -55.8285 H         1 UNK         0.3000 
    241 H241       -0.9565  -21.1296  -53.3876 H         1 UNK         0.0600 
    242 H242       -0.7749  -24.4794  -55.4853 H         1 UNK         0.3800 
    243 H243       -1.9309  -23.2338  -55.8537 H         1 UNK         0.3800 
    244 H244        0.9217  -20.5259  -55.6972 H         1 UNK         0.0800 
    245 H245       -0.0324  -19.2267  -55.0667 H         1 UNK         0.0800 
    246 H246       -0.1483  -19.3160  -51.8739 H         1 UNK         0.0800 
    247 H247        0.1697  -18.0230  -53.0050 H         1 UNK         0.0800 
@<TRIPOS>BOND
     1    1    2 1    
     2    1  127 1    
     3    1  128 1    
     4    1  129 1    
     5    2    3 2    
     6    2    4 am   BACKBONE|DICT|INTERRES
     7    4    5 1    
     8    4  130 1    
     9    5    6 1    
    10    5   65 1    
    11    5  131 1    
    12    6    7 1    
    13    6  132 1    
    14    6  133 1    
    15    7    8 1    
    16    8    9 1    
    17    8  134 1    
    18    8  135 1    
    19    9   10 ar   
    20    9   14 ar   
    21   10   11 ar   
    22   10  136 1    
    23   11   12 ar   
    24   11  126 1    
    25   12   13 ar   
    26   12  137 1    
    27   13   14 ar   
    28   13   15 1    
    29   14  138 1    
    30   15   16 1    
    31   15  139 1    
    32   15  140 1    
    33   16   17 1    
    34   17   18 1    
    35   17  141 1    
    36   17  142 1    
    37   18   19 1    
    38   18   67 1    
    39   18  143 1    
    40   19   20 am   BACKBONE|DICT|INTERRES
    41   19  144 1    
    42   20   21 2    
    43   20   22 1    
    44   22   23 1    
    45   22   24 1    
    46   22  145 1    
    47   23  146 1    
    48   23  147 1    
    49   23  148 1    
    50   24   25 am   BACKBONE|DICT|INTERRES
    51   24  149 1    
    52   25   26 2    
    53   25   27 1    
    54   27   28 1    
    55   27   29 1    
    56   27  150 1    
    57   28  151 1    
    58   28  152 1    
    59   28  153 1    
    60   29   30 am   BACKBONE|DICT|INTERRES
    61   29  154 1    
    62   30   31 2    
    63   30   32 1    
    64   32   33 1    
    65   32   34 1    
    66   32  155 1    
    67   33  156 1    
    68   33  157 1    
    69   33  158 1    
    70   34   35 am   BACKBONE|DICT|INTERRES
    71   34  159 1    
    72   35   36 2    
    73   35   37 1    
    74   37   38 1    
    75   37   39 1    
    76   37  160 1    
    77   38  161 1    
    78   38  162 1    
    79   38  163 1    
    80   39   40 am   BACKBONE|DICT|INTERRES
    81   39  164 1    
    82   40   41 2    
    83   40   42 1    
    84   42   43 1    
    85   42   44 1    
    86   42  165 1    
    87   43  166 1    
    88   43  167 1    
    89   43  168 1    
    90   44   45 am   BACKBONE|DICT|INTERRES
    91   44  169 1    
    92   45   46 2    
    93   45   47 1    
    94   47   48 1    
    95   47   49 1    
    96   47  170 1    
    97   48  171 1    
    98   48  172 1    
    99   48  173 1    
   100   49   50 am   BACKBONE|DICT|INTERRES
   101   49  174 1    
   102   50   51 2    
   103   50   52 1    
   104   52   53 1    
   105   52   54 1    
   106   52  175 1    
   107   53  176 1    
   108   53  177 1    
   109   53  178 1    
   110   54   55 am   BACKBONE|DICT|INTERRES
   111   54  179 1    
   112   55   56 2    
   113   55   57 1    
   114   57   58 1    
   115   57   59 1    
   116   57  180 1    
   117   58  181 1    
   118   58  182 1    
   119   58  183 1    
   120   59   60 am   BACKBONE|DICT|INTERRES
   121   59  184 1    
   122   60   61 2    
   123   60   62 1    
   124   62   63 1    
   125   62   64 1    
   126   62  185 1    
   127   63  186 1    
   128   63  187 1    
   129   63  188 1    
   130   64   65 am   BACKBONE|DICT|INTERRES
   131   64  189 1    
   132   65   66 2    
   133   67   68 2    
   134   67   69 am   BACKBONE|DICT|INTERRES
   135   69   70 1    
   136   69  190 1    
   137   70   71 1    
   138   70   72 1    
   139   70  191 1    
   140   71  192 1    
   141   71  193 1    
   142   71  194 1    
   143   72   73 2    
   144   72   74 am   BACKBONE|DICT|INTERRES
   145   74   75 1    
   146   74  195 1    
   147   75   76 1    
   148   75   77 1    
   149   75  196 1    
   150   76  197 1    
   151   76  198 1    
   152   76  199 1    
   153   77   78 2    
   154   77   79 am   BACKBONE|DICT|INTERRES
   155   79   80 1    
   156   79  200 1    
   157   80   81 1    
   158   80   82 1    
   159   80  201 1    
   160   81  202 1    
   161   81  203 1    
   162   81  204 1    
   163   82   83 2    
   164   82   84 am   BACKBONE|DICT|INTERRES
   165   84   85 1    
   166   84  205 1    
   167   85   86 1    
   168   85   87 1    
   169   85  206 1    
   170   86  207 1    
   171   86  208 1    
   172   86  209 1    
   173   87   88 2    
   174   87   89 am   BACKBONE|DICT|INTERRES
   175   89   90 1    
   176   89  210 1    
   177   90   91 1    
   178   90   92 1    
   179   90  211 1    
   180   91  212 1    
   181   91  213 1    
   182   91  214 1    
   183   92   93 2    
   184   92   94 am   BACKBONE|DICT|INTERRES
   185   94   95 1    
   186   94  215 1    
   187   95   96 1    
   188   95   97 1    
   189   95  216 1    
   190   96  217 1    
   191   96  218 1    
   192   96  219 1    
   193   97   98 2    
   194   97   99 am   BACKBONE|DICT|INTERRES
   195   99  100 1    
   196   99  220 1    
   197  100  101 1    
   198  100  102 1    
   199  100  221 1    
   200  101  222 1    
   201  101  223 1    
   202  101  224 1    
   203  102  103 2    
   204  102  104 am   BACKBONE|DICT|INTERRES
   205  104  105 1    
   206  104  225 1    
   207  105  106 1    
   208  105  107 1    
   209  105  226 1    
   210  106  227 1    
   211  106  228 1    
   212  106  229 1    
   213  107  108 2    
   214  107  109 am   BACKBONE|DICT|INTERRES
   215  109  110 1    
   216  109  230 1    
   217  110  111 1    
   218  110  112 1    
   219  110  231 1    
   220  111  232 1    
   221  111  233 1    
   222  111  234 1    
   223  112  113 2    
   224  112  114 am   BACKBONE|DICT|INTERRES
   225  114  115 1    
   226  114  235 1    
   227  115  116 1    
   228  115  117 1    
   229  115  236 1    
   230  116  237 1    
   231  116  238 1    
   232  116  239 1    
   233  117  118 2    
   234  117  119 am   BACKBONE|DICT|INTERRES
   235  119  120 1    
   236  119  240 1    
   237  120  121 1    
   238  120  124 1    
   239  120  241 1    
   240  121  122 am   BACKBONE|DICT|INTERRES
   241  121  123 2    
   242  122  242 1    
   243  122  243 1    
   244  124  125 1    
   245  124  244 1    
   246  124  245 1    
   247  125  126 1    
   248  126  246 1    
   249  126  247 1    
@<TRIPOS>SUBSTRUCTURE
     1 UNK         1 GROUP             0       ****    0 ROOT    
