@<TRIPOS>MOLECULE
3R540
247   249    1
SMALL
USER_CHARGES


@<TRIPOS>ATOM
      1 CA         -4.8494  -18.7882  -47.3344 C.3       0 UNK        -0.1800 
      2 C          -4.3890  -17.4059  -47.7743 C.2       0 UNK         0.5000 
      3 O          -4.6353  -16.4264  -47.0739 O.2       0 UNK        -0.5000 
      4 N          -3.7196  -17.3268  -48.9305 N.am      1 UNK        -0.5000 
      5 CA         -3.2770  -16.1033  -49.6129 C.3       1 UNK         0.1400 
      6 C6         -2.7067  -16.4137  -51.0202 C.3       23 UNK        -0.0398 
      7 S7         -1.1562  -17.3890  -51.0446 S.3       23 UNK        -0.2404 
      8 C8         -1.7682  -19.0779  -51.3642 C.3       23 UNK        -0.0205 
      9 C9         -0.6737  -20.0390  -51.8254 C.ar      23 UNK        -0.0193 
     10 C10        -0.8904  -20.8386  -52.9518 C.ar      23 UNK        -0.1150 
     11 C11         0.0806  -21.7411  -53.3973 C.ar      23 UNK        -0.0193 
     12 C12         1.2833  -21.8436  -52.6889 C.ar      23 UNK        -0.1150 
     13 C13         1.5284  -21.0410  -51.5719 C.ar      23 UNK        -0.0193 
     14 C14         0.5405  -20.1508  -51.1365 C.ar      23 UNK        -0.1150 
     15 C15         2.8890  -21.0902  -50.8884 C.3       23 UNK        -0.0205 
     16 S16         3.2819  -22.7364  -50.2003 S.3       23 UNK        -0.2404 
     17 C17         3.4392  -22.3879  -48.4128 C.3       23 UNK        -0.0398 
     18 CA          2.3313  -23.0138  -47.5313 C.3       11 UNK         0.1400 
     19 N           2.6162  -22.7729  -46.1147 N.am      11 UNK        -0.5000 
     20 C           1.8633  -23.1589  -45.0764 C.2       10 UNK         0.5000 
     21 O           0.8853  -23.8962  -45.1802 O.2       10 UNK        -0.5000 
     22 CA          2.2251  -22.5826  -43.6945 C.3       10 UNK         0.1400 
     23 CB          2.9689  -23.6294  -42.8528 C.3       10 UNK        -0.1800 
     24 N           3.0147  -21.3463  -43.7201 N.am      10 UNK        -0.5000 
     25 C           2.6878  -20.1967  -44.3270 C.2       9 UNK         0.5000 
     26 O           1.7042  -20.0594  -45.0577 O.2       9 UNK        -0.5000 
     27 CA          3.6246  -19.0070  -44.0484 C.3       9 UNK         0.1400 
     28 CB          3.2875  -17.7750  -44.9073 C.3       9 UNK        -0.1800 
     29 N           3.5589  -18.6313  -42.6384 N.am      9 UNK        -0.5000 
     30 C           4.1906  -19.2434  -41.6281 C.2       8 UNK         0.5000 
     31 O           4.9627  -20.1910  -41.7818 O.2       8 UNK        -0.5000 
     32 CA          3.8642  -18.7416  -40.2132 C.3       8 UNK         0.1400 
     33 CB          4.5064  -17.3689  -39.9559 C.3       8 UNK        -0.1800 
     34 N           2.4162  -18.6406  -40.0373 N.am      8 UNK        -0.5000 
     35 C           1.6463  -19.5710  -39.4554 C.2       7 UNK         0.5000 
     36 O           2.0874  -20.5904  -38.9237 O.2       7 UNK        -0.5000 
     37 CA          0.1218  -19.3290  -39.4725 C.3       7 UNK         0.1400 
     38 CB         -0.3196  -18.5863  -38.2024 C.3       7 UNK        -0.1800 
     39 N          -0.3211  -18.5713  -40.6433 N.am      7 UNK        -0.5000 
     40 C          -0.2964  -19.0337  -41.9011 C.2       6 UNK         0.5000 
     41 O          -0.0291  -20.1998  -42.1867 O.2       6 UNK        -0.5000 
     42 CA         -0.5894  -18.0260  -43.0325 C.3       6 UNK         0.1400 
     43 CB         -1.9769  -18.2895  -43.6393 C.3       6 UNK        -0.1800 
     44 N          -0.4765  -16.6114  -42.6409 N.am      6 UNK        -0.5000 
     45 C           0.6552  -16.0203  -42.2183 C.2       5 UNK         0.5000 
     46 O           1.7133  -16.6313  -42.0764 O.2       5 UNK        -0.5000 
     47 CA          0.6292  -14.5229  -41.8591 C.3       5 UNK         0.1400 
     48 CB          1.5332  -13.7148  -42.8029 C.3       5 UNK        -0.1800 
     49 N          -0.7146  -13.9487  -41.8558 N.am      5 UNK        -0.5000 
     50 C          -1.5766  -14.0589  -40.8343 C.2       4 UNK         0.5000 
     51 O          -1.3115  -14.6435  -39.7832 O.2       4 UNK        -0.5000 
     52 CA         -2.9762  -13.4365  -41.0186 C.3       4 UNK         0.1400 
     53 CB         -3.0396  -12.0525  -40.3550 C.3       4 UNK        -0.1800 
     54 N          -3.3944  -13.3126  -42.4175 N.am      4 UNK        -0.5000 
     55 C          -3.5682  -14.3395  -43.2596 C.2       3 UNK         0.5000 
     56 O          -3.3950  -15.5144  -42.9342 O.2       3 UNK        -0.5000 
     57 CA         -3.9632  -14.0157  -44.7138 C.3       3 UNK         0.1400 
     58 CB         -4.2126  -12.5162  -44.9934 C.3       3 UNK        -0.1800 
     59 N          -2.9877  -14.5591  -45.6611 N.am      3 UNK        -0.5000 
     60 C          -1.6759  -14.2811  -45.7292 C.2       2 UNK         0.5000 
     61 O          -1.1116  -13.4975  -44.9646 O.2       2 UNK        -0.5000 
     62 CA         -0.8442  -14.9898  -46.8222 C.3       2 UNK         0.1400 
     63 CB          0.1813  -15.9497  -46.2015 C.3       2 UNK        -0.1800 
     64 N          -1.6597  -15.7333  -47.7850 N.am      2 UNK        -0.5000 
     65 C          -2.3458  -15.1796  -48.7938 C.2       1 UNK         0.5000 
     66 O          -2.2912  -13.9810  -49.0724 O.2       1 UNK        -0.5000 
     67 C           0.9237  -22.5183  -47.9340 C.2       11 UNK         0.5000 
     68 O           0.1998  -23.2470  -48.6114 O.2       11 UNK        -0.5000 
     69 N           0.5387  -21.3205  -47.4677 N.am      12 UNK        -0.5000 
     70 CA         -0.7707  -20.7308  -47.7409 C.3       12 UNK         0.1400 
     71 CB         -0.7672  -19.2536  -47.3275 C.3       12 UNK        -0.1800 
     72 C          -1.9142  -21.4927  -47.0542 C.2       12 UNK         0.5000 
     73 O          -2.9651  -21.6828  -47.6648 O.2       12 UNK        -0.5000 
     74 N          -1.6755  -21.9483  -45.8174 N.am      13 UNK        -0.5000 
     75 CA         -2.6092  -22.7751  -45.0536 C.3       13 UNK         0.1400 
     76 CB         -2.1554  -22.8401  -43.5874 C.3       13 UNK        -0.1800 
     77 C          -2.7661  -24.1869  -45.6503 C.2       13 UNK         0.5000 
     78 O          -3.8827  -24.7029  -45.6960 O.2       13 UNK        -0.5000 
     79 N          -1.6525  -24.7726  -46.1130 N.am      14 UNK        -0.5000 
     80 CA         -1.6016  -26.0742  -46.7777 C.3       14 UNK         0.1400 
     81 CB         -0.1405  -26.5338  -46.8989 C.3       14 UNK        -0.1800 
     82 C          -2.2873  -26.0638  -48.1551 C.2       14 UNK         0.5000 
     83 O          -3.0310  -26.9957  -48.4650 O.2       14 UNK        -0.5000 
     84 N          -2.0406  -25.0105  -48.9481 N.am      15 UNK        -0.5000 
     85 CA         -2.6877  -24.7813  -50.2407 C.3       15 UNK         0.1400 
     86 CB         -1.9746  -23.6380  -50.9811 C.3       15 UNK        -0.1800 
     87 C          -4.1874  -24.4712  -50.0934 C.2       15 UNK         0.5000 
     88 O          -4.9890  -24.9603  -50.8894 O.2       15 UNK        -0.5000 
     89 N          -4.5244  -23.6577  -49.0805 N.am      16 UNK        -0.5000 
     90 CA         -5.8617  -23.1940  -48.6918 C.3       16 UNK         0.1400 
     91 CB         -6.7612  -24.3793  -48.2865 C.3       16 UNK        -0.1800 
     92 C          -6.5400  -22.2664  -49.7238 C.2       16 UNK         0.5000 
     93 O          -7.7170  -21.9381  -49.5649 O.2       16 UNK        -0.5000 
     94 N          -5.7930  -21.8401  -50.7494 N.am      17 UNK        -0.5000 
     95 CA         -6.2214  -20.8845  -51.7617 C.3       17 UNK         0.1400 
     96 CB         -5.3355  -21.0442  -53.0080 C.3       17 UNK        -0.1800 
     97 C          -6.1129  -19.4655  -51.1899 C.2       17 UNK         0.5000 
     98 O          -5.0155  -19.0587  -50.8070 O.2       17 UNK        -0.5000 
     99 N          -7.2426  -18.7498  -51.1280 N.am      18 UNK        -0.5000 
    100 CA        -7.3081  -17.3593  -50.6704 C.3       18 UNK         0.1400 
    101 CB        -8.7580  -17.0168  -50.2973 C.3       18 UNK        -0.1800 
    102 C         -6.7683  -16.3703  -51.7203 C.2       18 UNK         0.5000 
    103 O         -6.2387  -15.3213  -51.3541 O.2       18 UNK        -0.5000 
    104 N         -6.8981  -16.7293  -53.0033 N.am      19 UNK        -0.5000 
    105 CA        -6.2640  -16.0408  -54.1232 C.3       19 UNK         0.1400 
    106 CB        -7.0564  -16.3406  -55.4050 C.3       19 UNK        -0.1800 
    107 C         -4.8089  -16.5148  -54.2682 C.2       19 UNK         0.5000 
    108 O         -4.5141  -17.6770  -53.9785 O.2       19 UNK        -0.5000 
    109 N         -3.9308  -15.6181  -54.7325 N.am      20 UNK        -0.5000 
    110 CA        -2.5303  -15.9211  -55.0275 C.3       20 UNK         0.1400 
    111 CB        -1.7851  -14.6159  -55.3443 C.3       20 UNK        -0.1800 
    112 C         -2.4031  -16.9238  -56.1902 C.2       20 UNK         0.5000 
    113 O         -3.1271  -16.8110  -57.1830 O.2       20 UNK        -0.5000 
    114 N         -1.4825  -17.8765  -56.0415 N.am      21 UNK        -0.5000 
    115 CA        -1.2179  -18.9725  -56.9655 C.3       21 UNK         0.1400 
    116 CB        -2.3174  -20.0459  -56.8262 C.3       21 UNK        -0.1800 
    117 C          0.1923  -19.5170  -56.6783 C.2       21 UNK         0.5000 
    118 O          0.8877  -18.9723  -55.8162 O.2       21 UNK        -0.5000 
    119 N          0.5960  -20.5638  -57.4120 N.am      22 UNK        -0.5000 
    120 CA         1.9239  -21.2090  -57.3397 C.3       22 UNK         0.1400 
    121 C          3.0979  -20.3295  -57.8795 C.2       22 UNK         0.5000 
    122 N          2.8399  -19.2634  -58.6278 N.am      22 UNK        -0.7600 
    123 O          4.2664  -20.6334  -57.6540 O.2       22 UNK        -0.5000 
    124 C124        2.2329  -21.8256  -55.9423 C.3       23 UNK        -0.0398 
    125 S125        1.2090  -23.2841  -55.5335 S.3       23 UNK        -0.2404 
    126 C126       -0.2241  -22.5892  -54.6337 C.3       23 UNK        -0.0205 
    127 H127       -5.9256  -18.7882  -47.1624 H         1 UNK         0.0600 
    128 H128       -4.3522  -19.0737  -46.4073 H         1 UNK         0.0600 
    129 H129       -4.6288  -19.5461  -48.0864 H         1 UNK         0.0600 
    130 H130       -3.6731  -18.1626  -49.5022 H         1 UNK         0.3000 
    131 H131       -4.1842  -15.5172  -49.7646 H         1 UNK         0.0600 
    132 H132       -3.4642  -16.9326  -51.6067 H         1 UNK         0.0800 
    133 H133       -2.5230  -15.4823  -51.5586 H         1 UNK         0.0800 
    134 H134       -2.5559  -19.0247  -52.1178 H         1 UNK         0.0800 
    135 H135       -2.2317  -19.4740  -50.4606 H         1 UNK         0.0800 
    136 H136       -1.8267  -20.7612  -53.4856 H         1 UNK         0.1150 
    137 H137        2.0483  -22.5346  -53.0112 H         1 UNK         0.1150 
    138 H138        0.7231  -19.5280  -50.2724 H         1 UNK         0.1150 
    139 H139        3.6522  -20.8383  -51.6260 H         1 UNK         0.0800 
    140 H140        2.9545  -20.3172  -50.1226 H         1 UNK         0.0800 
    141 H141        3.5007  -21.3133  -48.2375 H         1 UNK         0.0800 
    142 H142        4.4069  -22.7851  -48.1032 H         1 UNK         0.0800 
    143 H143        2.3487  -24.0954  -47.6798 H         1 UNK         0.0600 
    144 H144        3.3975  -22.1675  -45.9131 H         1 UNK         0.3000 
    145 H145        1.2835  -22.3512  -43.1937 H         1 UNK         0.0600 
    146 H146        3.1318  -23.2730  -41.8353 H         1 UNK         0.0600 
    147 H147        2.3965  -24.5555  -42.7833 H         1 UNK         0.0600 
    148 H148        3.9406  -23.8740  -43.2837 H         1 UNK         0.0600 
    149 H149        3.8287  -21.3262  -43.1157 H         1 UNK         0.3000 
    150 H150        4.6425  -19.3179  -44.2923 H         1 UNK         0.0600 
    151 H151        3.3417  -18.0111  -45.9707 H         1 UNK         0.0600 
    152 H152        3.9860  -16.9599  -44.7182 H         1 UNK         0.0600 
    153 H153        2.2829  -17.4047  -44.7044 H         1 UNK         0.0600 
    154 H154        2.9165  -17.8722  -42.4182 H         1 UNK         0.3000 
    155 H155        4.2855  -19.4496  -39.4965 H         1 UNK         0.0600 
    156 H156        4.1248  -16.6053  -40.6349 H         1 UNK         0.0600 
    157 H157        5.5883  -17.4141  -40.0867 H         1 UNK         0.0600 
    158 H158        4.3160  -17.0327  -38.9366 H         1 UNK         0.0600 
    159 H159        1.9668  -17.8609  -40.5032 H         1 UNK         0.3000 
    160 H160       -0.3699  -20.3040  -39.4891 H         1 UNK         0.0600 
    161 H161        0.1238  -17.5914  -38.1429 H         1 UNK         0.0600 
    162 H162       -0.0223  -19.1332  -37.3067 H         1 UNK         0.0600 
    163 H163       -1.4034  -18.4731  -38.1683 H         1 UNK         0.0600 
    164 H164       -0.5742  -17.6054  -40.4937 H         1 UNK         0.3000 
    165 H165        0.1545  -18.2071  -43.8091 H         1 UNK         0.0600 
    166 H166       -2.1909  -17.6113  -44.4652 H         1 UNK         0.0600 
    167 H167       -2.0459  -19.3059  -44.0294 H         1 UNK         0.0600 
    168 H168       -2.7663  -18.1700  -42.8966 H         1 UNK         0.0600 
    169 H169       -1.3261  -16.0616  -42.7015 H         1 UNK         0.3000 
    170 H170        1.0491  -14.4339  -40.8549 H         1 UNK         0.0600 
    171 H171        2.5606  -14.0794  -42.7666 H         1 UNK         0.0600 
    172 H172        1.2038  -13.7782  -43.8385 H         1 UNK         0.0600 
    173 H173        1.5542  -12.6617  -42.5223 H         1 UNK         0.0600 
    174 H174       -1.0139  -13.4944  -42.7108 H         1 UNK         0.3000 
    175 H175       -3.6908  -14.0908  -40.5151 H         1 UNK         0.0600 
    176 H176       -2.3620  -11.3452  -40.8350 H         1 UNK         0.0600 
    177 H177       -4.0469  -11.6380  -40.4006 H         1 UNK         0.0600 
    178 H178       -2.7615  -12.1105  -39.3018 H         1 UNK         0.0600 
    179 H179       -3.5316  -12.3754  -42.7671 H         1 UNK         0.3000 
    180 H180       -4.8984  -14.5460  -44.8984 H         1 UNK         0.0600 
    181 H181       -3.3211  -11.9094  -44.8317 H         1 UNK         0.0600 
    182 H182       -5.0069  -12.1226  -44.3578 H         1 UNK         0.0600 
    183 H183       -4.5280  -12.3643  -46.0258 H         1 UNK         0.0600 
    184 H184       -3.3724  -15.2470  -46.3031 H         1 UNK         0.3000 
    185 H185       -0.2931  -14.2135  -47.3570 H         1 UNK         0.0600 
    186 H186       -0.3054  -16.7599  -45.6630 H         1 UNK         0.0600 
    187 H187        0.8214  -16.3921  -46.9650 H         1 UNK         0.0600 
    188 H188        0.8326  -15.4320  -45.4976 H         1 UNK         0.0600 
    189 H189       -1.7660  -16.7234  -47.6275 H         1 UNK         0.3000 
    190 H190        1.1400  -20.8152  -46.8240 H         1 UNK         0.3000 
    191 H191       -0.9489  -20.7840  -48.8158 H         1 UNK         0.0600 
    192 H192       -1.7344  -18.7956  -47.5256 H         1 UNK         0.0600 
    193 H193       -0.0180  -18.6907  -47.8843 H         1 UNK         0.0600 
    194 H194       -0.5576  -19.1353  -46.2643 H         1 UNK         0.0600 
    195 H195       -0.7716  -21.7736  -45.4027 H         1 UNK         0.3000 
    196 H196       -3.5886  -22.2925  -45.0821 H         1 UNK         0.0600 
    197 H197       -2.8509  -23.4313  -42.9904 H         1 UNK         0.0600 
    198 H198       -2.1118  -21.8453  -43.1440 H         1 UNK         0.0600 
    199 H199       -1.1696  -23.2944  -43.4869 H         1 UNK         0.0600 
    200 H200       -0.7606  -24.3066  -45.9663 H         1 UNK         0.3000 
    201 H201       -2.1303  -26.7926  -46.1478 H         1 UNK         0.0600 
    202 H202        0.3281  -26.6183  -45.9183 H         1 UNK         0.0600 
    203 H203        0.4526  -25.8381  -47.4932 H         1 UNK         0.0600 
    204 H204       -0.0765  -27.5124  -47.3762 H         1 UNK         0.0600 
    205 H205       -1.3552  -24.3183  -48.6548 H         1 UNK         0.3000 
    206 H206       -2.5880  -25.6897  -50.8383 H         1 UNK         0.0600 
    207 H207       -0.9262  -23.8770  -51.1613 H         1 UNK         0.0600 
    208 H208       -2.4351  -23.4503  -51.9518 H         1 UNK         0.0600 
    209 H209       -2.0075  -22.7057  -50.4156 H         1 UNK         0.0600 
    210 H210       -3.7739  -23.2550  -48.5266 H         1 UNK         0.3000 
    211 H211       -5.7089  -22.5823  -47.8015 H         1 UNK         0.0600 
    212 H212       -7.0221  -25.0031  -49.1416 H         1 UNK         0.0600 
    213 H213       -7.6937  -24.0294  -47.8424 H         1 UNK         0.0600 
    214 H214       -6.2682  -25.0107  -47.5470 H         1 UNK         0.0600 
    215 H215       -4.8248  -22.1199  -50.7752 H         1 UNK         0.3000 
    216 H216       -7.2557  -21.0927  -52.0438 H         1 UNK         0.0600 
    217 H217       -5.6293  -20.3401  -53.7877 H         1 UNK         0.0600 
    218 H218       -5.4185  -22.0477  -53.4255 H         1 UNK         0.0600 
    219 H219       -4.2839  -20.8609  -52.7839 H         1 UNK         0.0600 
    220 H220       -8.1115  -19.1720  -51.4224 H         1 UNK         0.3000 
    221 H221       -6.6948  -17.2574  -49.7730 H         1 UNK         0.0600 
    222 H222       -9.4279  -17.1088  -51.1531 H         1 UNK         0.0600 
    223 H223       -9.1271  -17.6727  -49.5085 H         1 UNK         0.0600 
    224 H224       -8.8340  -15.9927  -49.9292 H         1 UNK         0.0600 
    225 H225       -7.2971  -17.6333  -53.2048 H         1 UNK         0.3000 
    226 H226       -6.2777  -14.9632  -53.9455 H         1 UNK         0.0600 
    227 H227       -7.0665  -17.4074  -55.6325 H         1 UNK         0.0600 
    228 H228       -8.0901  -16.0058  -55.3171 H         1 UNK         0.0600 
    229 H229       -6.6198  -15.8272  -56.2627 H         1 UNK         0.0600 
    230 H230       -4.2539  -14.6961  -54.9862 H         1 UNK         0.3000 
    231 H231       -2.0866  -16.3620  -54.1318 H         1 UNK         0.0600 
    232 H232       -2.2009  -14.1175  -56.2210 H         1 UNK         0.0600 
    233 H233       -0.7305  -14.8086  -55.5455 H         1 UNK         0.0600 
    234 H234       -1.8333  -13.9202  -54.5064 H         1 UNK         0.0600 
    235 H235       -0.8606  -17.8670  -55.2417 H         1 UNK         0.3000 
    236 H236       -1.2149  -18.5870  -57.9870 H         1 UNK         0.0600 
    237 H237       -3.2861  -19.6561  -57.1390 H         1 UNK         0.0600 
    238 H238       -2.1147  -20.9208  -57.4441 H         1 UNK         0.0600 
    239 H239       -2.4215  -20.3814  -55.7948 H         1 UNK         0.0600 
    240 H240       -0.0293  -20.9423  -58.1088 H         1 UNK         0.3000 
    241 H241        1.8785  -22.0371  -58.0477 H         1 UNK         0.0600 
    242 H242        3.6048  -18.7105  -58.9823 H         1 UNK         0.3800 
    243 H243        1.8916  -19.0033  -58.8448 H         1 UNK         0.3800 
    244 H244        3.2625  -22.1838  -55.9044 H         1 UNK         0.0800 
    245 H245        2.1671  -21.0745  -55.1571 H         1 UNK         0.0800 
    246 H246       -0.8607  -23.4182  -54.3227 H         1 UNK         0.0800 
    247 H247       -0.8114  -22.0090  -55.3424 H         1 UNK         0.0800 
@<TRIPOS>BOND
     1    1    2 1    
     2    1  127 1    
     3    1  128 1    
     4    1  129 1    
     5    2    3 2    
     6    2    4 am   BACKBONE|DICT|INTERRES
     7    4    5 1    
     8    4  130 1    
     9    5    6 1    
    10    5   65 1    
    11    5  131 1    
    12    6    7 1    
    13    6  132 1    
    14    6  133 1    
    15    7    8 1    
    16    8    9 1    
    17    8  134 1    
    18    8  135 1    
    19    9   10 ar   
    20    9   14 ar   
    21   10   11 ar   
    22   10  136 1    
    23   11   12 ar   
    24   11  126 1    
    25   12   13 ar   
    26   12  137 1    
    27   13   14 ar   
    28   13   15 1    
    29   14  138 1    
    30   15   16 1    
    31   15  139 1    
    32   15  140 1    
    33   16   17 1    
    34   17   18 1    
    35   17  141 1    
    36   17  142 1    
    37   18   19 1    
    38   18   67 1    
    39   18  143 1    
    40   19   20 am   BACKBONE|DICT|INTERRES
    41   19  144 1    
    42   20   21 2    
    43   20   22 1    
    44   22   23 1    
    45   22   24 1    
    46   22  145 1    
    47   23  146 1    
    48   23  147 1    
    49   23  148 1    
    50   24   25 am   BACKBONE|DICT|INTERRES
    51   24  149 1    
    52   25   26 2    
    53   25   27 1    
    54   27   28 1    
    55   27   29 1    
    56   27  150 1    
    57   28  151 1    
    58   28  152 1    
    59   28  153 1    
    60   29   30 am   BACKBONE|DICT|INTERRES
    61   29  154 1    
    62   30   31 2    
    63   30   32 1    
    64   32   33 1    
    65   32   34 1    
    66   32  155 1    
    67   33  156 1    
    68   33  157 1    
    69   33  158 1    
    70   34   35 am   BACKBONE|DICT|INTERRES
    71   34  159 1    
    72   35   36 2    
    73   35   37 1    
    74   37   38 1    
    75   37   39 1    
    76   37  160 1    
    77   38  161 1    
    78   38  162 1    
    79   38  163 1    
    80   39   40 am   BACKBONE|DICT|INTERRES
    81   39  164 1    
    82   40   41 2    
    83   40   42 1    
    84   42   43 1    
    85   42   44 1    
    86   42  165 1    
    87   43  166 1    
    88   43  167 1    
    89   43  168 1    
    90   44   45 am   BACKBONE|DICT|INTERRES
    91   44  169 1    
    92   45   46 2    
    93   45   47 1    
    94   47   48 1    
    95   47   49 1    
    96   47  170 1    
    97   48  171 1    
    98   48  172 1    
    99   48  173 1    
   100   49   50 am   BACKBONE|DICT|INTERRES
   101   49  174 1    
   102   50   51 2    
   103   50   52 1    
   104   52   53 1    
   105   52   54 1    
   106   52  175 1    
   107   53  176 1    
   108   53  177 1    
   109   53  178 1    
   110   54   55 am   BACKBONE|DICT|INTERRES
   111   54  179 1    
   112   55   56 2    
   113   55   57 1    
   114   57   58 1    
   115   57   59 1    
   116   57  180 1    
   117   58  181 1    
   118   58  182 1    
   119   58  183 1    
   120   59   60 am   BACKBONE|DICT|INTERRES
   121   59  184 1    
   122   60   61 2    
   123   60   62 1    
   124   62   63 1    
   125   62   64 1    
   126   62  185 1    
   127   63  186 1    
   128   63  187 1    
   129   63  188 1    
   130   64   65 am   BACKBONE|DICT|INTERRES
   131   64  189 1    
   132   65   66 2    
   133   67   68 2    
   134   67   69 am   BACKBONE|DICT|INTERRES
   135   69   70 1    
   136   69  190 1    
   137   70   71 1    
   138   70   72 1    
   139   70  191 1    
   140   71  192 1    
   141   71  193 1    
   142   71  194 1    
   143   72   73 2    
   144   72   74 am   BACKBONE|DICT|INTERRES
   145   74   75 1    
   146   74  195 1    
   147   75   76 1    
   148   75   77 1    
   149   75  196 1    
   150   76  197 1    
   151   76  198 1    
   152   76  199 1    
   153   77   78 2    
   154   77   79 am   BACKBONE|DICT|INTERRES
   155   79   80 1    
   156   79  200 1    
   157   80   81 1    
   158   80   82 1    
   159   80  201 1    
   160   81  202 1    
   161   81  203 1    
   162   81  204 1    
   163   82   83 2    
   164   82   84 am   BACKBONE|DICT|INTERRES
   165   84   85 1    
   166   84  205 1    
   167   85   86 1    
   168   85   87 1    
   169   85  206 1    
   170   86  207 1    
   171   86  208 1    
   172   86  209 1    
   173   87   88 2    
   174   87   89 am   BACKBONE|DICT|INTERRES
   175   89   90 1    
   176   89  210 1    
   177   90   91 1    
   178   90   92 1    
   179   90  211 1    
   180   91  212 1    
   181   91  213 1    
   182   91  214 1    
   183   92   93 2    
   184   92   94 am   BACKBONE|DICT|INTERRES
   185   94   95 1    
   186   94  215 1    
   187   95   96 1    
   188   95   97 1    
   189   95  216 1    
   190   96  217 1    
   191   96  218 1    
   192   96  219 1    
   193   97   98 2    
   194   97   99 am   BACKBONE|DICT|INTERRES
   195   99  100 1    
   196   99  220 1    
   197  100  101 1    
   198  100  102 1    
   199  100  221 1    
   200  101  222 1    
   201  101  223 1    
   202  101  224 1    
   203  102  103 2    
   204  102  104 am   BACKBONE|DICT|INTERRES
   205  104  105 1    
   206  104  225 1    
   207  105  106 1    
   208  105  107 1    
   209  105  226 1    
   210  106  227 1    
   211  106  228 1    
   212  106  229 1    
   213  107  108 2    
   214  107  109 am   BACKBONE|DICT|INTERRES
   215  109  110 1    
   216  109  230 1    
   217  110  111 1    
   218  110  112 1    
   219  110  231 1    
   220  111  232 1    
   221  111  233 1    
   222  111  234 1    
   223  112  113 2    
   224  112  114 am   BACKBONE|DICT|INTERRES
   225  114  115 1    
   226  114  235 1    
   227  115  116 1    
   228  115  117 1    
   229  115  236 1    
   230  116  237 1    
   231  116  238 1    
   232  116  239 1    
   233  117  118 2    
   234  117  119 am   BACKBONE|DICT|INTERRES
   235  119  120 1    
   236  119  240 1    
   237  120  121 1    
   238  120  124 1    
   239  120  241 1    
   240  121  122 am   BACKBONE|DICT|INTERRES
   241  121  123 2    
   242  122  242 1    
   243  122  243 1    
   244  124  125 1    
   245  124  244 1    
   246  124  245 1    
   247  125  126 1    
   248  126  246 1    
   249  126  247 1    
@<TRIPOS>SUBSTRUCTURE
     1 UNK         1 GROUP             0       ****    0 ROOT    
