@<TRIPOS>MOLECULE
3R540
247   249    1
SMALL
USER_CHARGES


@<TRIPOS>ATOM
      1 CA          0.7765  -12.0891  -51.6709 C.3       0 UNK        -0.1800 
      2 C           1.0627  -13.0741  -50.5458 C.2       0 UNK         0.5000 
      3 O           1.7603  -14.0654  -50.7628 O.2       0 UNK        -0.5000 
      4 N           0.5205  -12.8087  -49.3513 N.am      1 UNK        -0.5000 
      5 CA          0.7120  -13.6172  -48.1428 C.3       1 UNK         0.1400 
      6 C6         -0.3411  -13.2896  -47.0526 C.3       23 UNK        -0.0398 
      7 S7         -2.0691  -13.5066  -47.6088 S.3       23 UNK        -0.2404 
      8 C8         -2.5449  -15.0972  -46.8552 C.3       23 UNK        -0.0205 
      9 C9         -2.5375  -16.2280  -47.8728 C.ar      23 UNK        -0.0193 
     10 C10        -3.7324  -16.6499  -48.4638 C.ar      23 UNK        -0.1150 
     11 C11        -3.7406  -17.7019  -49.3845 C.ar      23 UNK        -0.0193 
     12 C12        -2.5354  -18.3403  -49.6925 C.ar      23 UNK        -0.1150 
     13 C13        -1.3279  -17.9276  -49.1223 C.ar      23 UNK        -0.0193 
     14 C14        -1.3404  -16.8611  -48.2157 C.ar      23 UNK        -0.1150 
     15 C15        -0.0471  -18.6509  -49.5446 C.3       23 UNK        -0.0205 
     16 S16         1.3952  -18.5176  -48.4296 S.3       23 UNK        -0.2404 
     17 C17         0.7840  -19.0265  -46.7873 C.3       23 UNK        -0.0398 
     18 CA          0.3039  -20.4957  -46.6466 C.3       11 UNK         0.1400 
     19 N           0.5913  -21.0180  -45.3076 N.am      11 UNK        -0.5000 
     20 C           0.3205  -22.2502  -44.8556 C.2       10 UNK         0.5000 
     21 O          -0.1514  -23.1512  -45.5494 O.2       10 UNK        -0.5000 
     22 CA          0.5665  -22.4924  -43.3540 C.3       10 UNK         0.1400 
     23 CB          2.0438  -22.8094  -43.0778 C.3       10 UNK        -0.1800 
     24 N           0.1428  -21.3559  -42.5313 N.am      10 UNK        -0.5000 
     25 C          -1.1328  -20.9682  -42.3838 C.2       9 UNK         0.5000 
     26 O          -2.0866  -21.5536  -42.8945 O.2       9 UNK        -0.5000 
     27 CA         -1.3839  -19.6843  -41.5722 C.3       9 UNK         0.1400 
     28 CB         -1.2855  -19.9629  -40.0650 C.3       9 UNK        -0.1800 
     29 N          -0.4694  -18.6020  -41.9363 N.am      9 UNK        -0.5000 
     30 C          -0.4062  -18.0407  -43.1521 C.2       8 UNK         0.5000 
     31 O          -1.1641  -18.3265  -44.0775 O.2       8 UNK        -0.5000 
     32 CA          0.7312  -17.0373  -43.4044 C.3       8 UNK         0.1400 
     33 CB          0.3218  -15.6179  -42.9864 C.3       8 UNK        -0.1800 
     34 N           1.9783  -17.4081  -42.7372 N.am      8 UNK        -0.5000 
     35 C           2.6833  -18.5225  -42.9765 C.2       7 UNK         0.5000 
     36 O           2.3498  -19.3799  -43.7912 O.2       7 UNK        -0.5000 
     37 CA          3.9504  -18.7339  -42.1357 C.3       7 UNK         0.1400 
     38 CB          5.1106  -17.8743  -42.6581 C.3       7 UNK        -0.1800 
     39 N           3.7071  -18.4337  -40.7276 N.am      7 UNK        -0.5000 
     40 C           2.9985  -19.2180  -39.9045 C.2       6 UNK         0.5000 
     41 O           2.5138  -20.3007  -40.2367 O.2       6 UNK        -0.5000 
     42 CA          2.7704  -18.6837  -38.4786 C.3       6 UNK         0.1400 
     43 CB          3.9617  -19.0303  -37.5730 C.3       6 UNK        -0.1800 
     44 N           2.5394  -17.2374  -38.4440 N.am      6 UNK        -0.5000 
     45 C           1.4551  -16.6393  -38.9553 C.2       5 UNK         0.5000 
     46 O           0.5422  -17.2430  -39.5184 O.2       5 UNK        -0.5000 
     47 CA          1.3964  -15.1046  -38.8531 C.3       5 UNK         0.1400 
     48 CB          0.9257  -14.6744  -37.4555 C.3       5 UNK        -0.1800 
     49 N           2.6495  -14.4137  -39.1787 N.am      5 UNK        -0.5000 
     50 C           3.3205  -14.5388  -40.3311 C.2       4 UNK         0.5000 
     51 O           3.0672  -15.3867  -41.1868 O.2       4 UNK        -0.5000 
     52 CA          4.4519  -13.5339  -40.5996 C.3       4 UNK         0.1400 
     53 CB          5.8183  -14.2355  -40.6098 C.3       4 UNK        -0.1800 
     54 N           4.2312  -12.8853  -41.8918 N.am      4 UNK        -0.5000 
     55 C           3.2451  -12.0184  -42.1514 C.2       3 UNK         0.5000 
     56 O           2.5019  -11.5591  -41.2829 O.2       3 UNK        -0.5000 
     57 CA          3.0217  -11.6059  -43.6193 C.3       3 UNK         0.1400 
     58 CB          3.9554  -10.4495  -44.0251 C.3       3 UNK        -0.1800 
     59 N           3.0708  -12.7110  -44.5889 N.am      3 UNK        -0.5000 
     60 C           4.1215  -13.4367  -44.9993 C.2       2 UNK         0.5000 
     61 O           5.2558  -13.3161  -44.5348 O.2       2 UNK        -0.5000 
     62 CA          3.8724  -14.4921  -46.1011 C.3       2 UNK         0.1400 
     63 CB          4.0661  -15.9074  -45.5377 C.3       2 UNK        -0.1800 
     64 N           2.5515  -14.4254  -46.7387 N.am      2 UNK        -0.5000 
     65 C           2.1407  -13.4598  -47.5730 C.2       1 UNK         0.5000 
     66 O           2.8218  -12.4710  -47.8566 O.2       1 UNK        -0.5000 
     67 C          -1.1950  -20.6330  -46.9844 C.2       11 UNK         0.5000 
     68 O          -1.5354  -21.2229  -48.0091 O.2       11 UNK        -0.5000 
     69 N          -2.0596  -20.1226  -46.0966 N.am      12 UNK        -0.5000 
     70 CA         -3.5143  -20.1612  -46.2307 C.3       12 UNK         0.1400 
     71 CB         -4.1451  -19.2386  -45.1783 C.3       12 UNK        -0.1800 
     72 C          -4.1002  -21.5819  -46.1378 C.2       12 UNK         0.5000 
     73 O          -5.0781  -21.8684  -46.8277 O.2       12 UNK        -0.5000 
     74 N          -3.4905  -22.4495  -45.3158 N.am      13 UNK        -0.5000 
     75 CA         -3.8497  -23.8643  -45.1910 C.3       13 UNK         0.1400 
     76 CB         -3.1472  -24.4793  -43.9714 C.3       13 UNK        -0.1800 
     77 C          -3.5361  -24.6672  -46.4669 C.2       13 UNK         0.5000 
     78 O          -4.3541  -25.4904  -46.8798 O.2       13 UNK        -0.5000 
     79 N          -2.3778  -24.3937  -47.0851 N.am      14 UNK        -0.5000 
     80 CA         -2.0041  -24.9159  -48.4027 C.3       14 UNK         0.1400 
     81 CB         -0.5044  -24.6733  -48.6337 C.3       14 UNK        -0.1800 
     82 C          -2.8340  -24.2849  -49.5391 C.2       14 UNK         0.5000 
     83 O          -3.1018  -24.9476  -50.5415 O.2       14 UNK        -0.5000 
     84 N          -3.2207  -23.0174  -49.3408 N.am      15 UNK        -0.5000 
     85 CA         -3.9806  -22.1424  -50.2318 C.3       15 UNK         0.1400 
     86 CB         -5.4059  -22.6804  -50.4519 C.3       15 UNK        -0.1800 
     87 C          -3.2175  -21.8370  -51.5338 C.2       15 UNK         0.5000 
     88 O          -3.8118  -21.8028  -52.6119 O.2       15 UNK        -0.5000 
     89 N          -1.8985  -21.6267  -51.3985 N.am      16 UNK        -0.5000 
     90 CA         -0.9297  -21.3749  -52.4687 C.3       16 UNK         0.1400 
     91 CB         -1.1682  -19.9850  -53.1031 C.3       16 UNK        -0.1800 
     92 C          -0.9075  -22.5394  -53.4816 C.2       16 UNK         0.5000 
     93 O          -0.4641  -23.6321  -53.1269 O.2       16 UNK        -0.5000 
     94 N          -1.4054  -22.3010  -54.7020 N.am      17 UNK        -0.5000 
     95 CA         -1.5540  -23.2979  -55.7661 C.3       17 UNK         0.1400 
     96 CB         -1.3878  -22.6014  -57.1270 C.3       17 UNK        -0.1800 
     97 C          -2.8861  -24.0789  -55.6869 C.2       17 UNK         0.5000 
     98 O          -3.2313  -24.7763  -56.6425 O.2       17 UNK        -0.5000 
     99 N          -3.6160  -23.9490  -54.5693 N.am      18 UNK        -0.5000 
    100 CA        -4.8967  -24.5828  -54.2582 C.3       18 UNK         0.1400 
    101 CB        -4.7518  -26.1178  -54.1550 C.3       18 UNK        -0.1800 
    102 C         -5.9920  -24.0995  -55.2236 C.2       18 UNK         0.5000 
    103 O         -6.2571  -22.8975  -55.2639 O.2       18 UNK        -0.5000 
    104 N         -6.5954  -25.0134  -55.9950 N.am      19 UNK        -0.5000 
    105 CA        -7.6664  -24.7372  -56.9589 C.3       19 UNK         0.1400 
    106 CB        -8.1663  -26.0689  -57.5393 C.3       19 UNK        -0.1800 
    107 C         -7.2729  -23.7679  -58.0937 C.2       19 UNK         0.5000 
    108 O         -8.1529  -23.1347  -58.6776 O.2       19 UNK        -0.5000 
    109 N         -5.9677  -23.6539  -58.3738 N.am      20 UNK        -0.5000 
    110 CA        -5.4004  -22.7003  -59.3275 C.3       20 UNK         0.1400 
    111 CB        -4.0935  -23.2858  -59.8853 C.3       20 UNK        -0.1800 
    112 C         -5.1707  -21.2964  -58.7242 C.2       20 UNK         0.5000 
    113 O         -4.7775  -20.3913  -59.4619 O.2       20 UNK        -0.5000 
    114 N         -5.4023  -21.1284  -57.4156 N.am      21 UNK        -0.5000 
    115 CA        -5.2471  -19.8781  -56.6795 C.3       21 UNK         0.1400 
    116 CB        -3.8806  -19.8736  -55.9632 C.3       21 UNK        -0.1800 
    117 C         -6.4564  -19.6765  -55.7458 C.2       21 UNK         0.5000 
    118 O         -7.5975  -19.7795  -56.1999 O.2       21 UNK        -0.5000 
    119 N         -6.1913  -19.3615  -54.4743 N.am      22 UNK        -0.5000 
    120 CA        -7.1692  -19.0418  -53.4234 C.3       22 UNK         0.1400 
    121 C         -7.8179  -20.2666  -52.7127 C.2       22 UNK         0.5000 
    122 N         -7.5920  -21.4996  -53.1449 N.am      22 UNK        -0.7600 
    123 O         -8.5730  -20.0958  -51.7593 O.2       22 UNK        -0.5000 
    124 C124       -6.6020  -17.9859  -52.4313 C.3       23 UNK        -0.0398 
    125 S125       -4.9007  -18.3218  -51.8446 S.3       23 UNK        -0.2404 
    126 C126       -5.0508  -18.1414  -50.0346 C.3       23 UNK        -0.0205 
    127 H127        0.2771  -12.5967  -52.4962 H         1 UNK         0.0600 
    128 H128        0.1382  -11.2695  -51.3400 H         1 UNK         0.0600 
    129 H129        1.7087  -11.6648  -52.0439 H         1 UNK         0.0600 
    130 H130       -0.0366  -11.9749  -49.2340 H         1 UNK         0.3000 
    131 H131        0.5954  -14.6616  -48.4331 H         1 UNK         0.0600 
    132 H132       -0.2327  -12.2525  -46.7295 H         1 UNK         0.0800 
    133 H133       -0.1771  -13.8927  -46.1587 H         1 UNK         0.0800 
    134 H134       -3.5444  -14.9891  -46.4313 H         1 UNK         0.0800 
    135 H135       -1.8968  -15.3494  -46.0152 H         1 UNK         0.0800 
    136 H136       -4.6580  -16.1541  -48.2069 H         1 UNK         0.1150 
    137 H137       -2.5361  -19.1555  -50.3993 H         1 UNK         0.1150 
    138 H138       -0.4225  -16.5203  -47.7652 H         1 UNK         0.1150 
    139 H139       -0.2531  -19.7082  -49.7094 H         1 UNK         0.0800 
    140 H140        0.2527  -18.2524  -50.5142 H         1 UNK         0.0800 
    141 H141        0.0388  -18.3201  -46.4258 H         1 UNK         0.0800 
    142 H142        1.6452  -18.8676  -46.1408 H         1 UNK         0.0800 
    143 H143        0.8636  -21.1168  -47.3486 H         1 UNK         0.0600 
    144 H144        1.0423  -20.3720  -44.6643 H         1 UNK         0.3000 
    145 H145       -0.0247  -23.3607  -43.0565 H         1 UNK         0.0600 
    146 H146        2.2079  -23.0318  -42.0232 H         1 UNK         0.0600 
    147 H147        2.3678  -23.6802  -43.6489 H         1 UNK         0.0600 
    148 H148        2.6962  -21.9792  -43.3482 H         1 UNK         0.0600 
    149 H149        0.8734  -20.8122  -42.0915 H         1 UNK         0.3000 
    150 H150       -2.4001  -19.3490  -41.7898 H         1 UNK         0.0600 
    151 H151       -1.9527  -20.7745  -39.7723 H         1 UNK         0.0600 
    152 H152       -1.5684  -19.0849  -39.4841 H         1 UNK         0.0600 
    153 H153       -0.2737  -20.2451  -39.7718 H         1 UNK         0.0600 
    154 H154        0.1480  -18.2610  -41.2062 H         1 UNK         0.3000 
    155 H155        0.9261  -17.0253  -44.4778 H         1 UNK         0.0600 
    156 H156        0.1362  -15.5553  -41.9138 H         1 UNK         0.0600 
    157 H157       -0.5896  -15.3061  -43.4980 H         1 UNK         0.0600 
    158 H158        1.0993  -14.8944  -43.2330 H         1 UNK         0.0600 
    159 H159        2.3462  -16.7357  -42.0649 H         1 UNK         0.3000 
    160 H160        4.2416  -19.7831  -42.2221 H         1 UNK         0.0600 
    161 H161        6.0151  -18.0317  -42.0704 H         1 UNK         0.0600 
    162 H162        4.8731  -16.8109  -42.6300 H         1 UNK         0.0600 
    163 H163        5.3462  -18.1304  -43.6916 H         1 UNK         0.0600 
    164 H164        4.0083  -17.5288  -40.3962 H         1 UNK         0.3000 
    165 H165        1.8827  -19.1786  -38.0785 H         1 UNK         0.0600 
    166 H166        3.7749  -18.7270  -36.5427 H         1 UNK         0.0600 
    167 H167        4.1460  -20.1055  -37.5657 H         1 UNK         0.0600 
    168 H168        4.8782  -18.5421  -37.9065 H         1 UNK         0.0600 
    169 H169        3.2488  -16.6659  -38.0091 H         1 UNK         0.3000 
    170 H170        0.6507  -14.7652  -39.5747 H         1 UNK         0.0600 
    171 H171       -0.0142  -15.1616  -37.1919 H         1 UNK         0.0600 
    172 H172        1.6557  -14.9316  -36.6870 H         1 UNK         0.0600 
    173 H173        0.7550  -13.5987  -37.4102 H         1 UNK         0.0600 
    174 H174        2.9353  -13.6925  -38.5324 H         1 UNK         0.3000 
    175 H175        4.4567  -12.7711  -39.8184 H         1 UNK         0.0600 
    176 H176        5.8837  -14.9823  -41.4016 H         1 UNK         0.0600 
    177 H177        6.6259  -13.5191  -40.7610 H         1 UNK         0.0600 
    178 H178        6.0053  -14.7421  -39.6622 H         1 UNK         0.0600 
    179 H179        4.7785  -13.2187  -42.6796 H         1 UNK         0.3000 
    180 H180        2.0008  -11.2244  -43.6761 H         1 UNK         0.0600 
    181 H181        5.0070  -10.7311  -43.9656 H         1 UNK         0.0600 
    182 H182        3.8136   -9.5891  -43.3700 H         1 UNK         0.0600 
    183 H183        3.7533  -10.1193  -45.0441 H         1 UNK         0.0600 
    184 H184        2.1852  -12.9305  -45.0182 H         1 UNK         0.3000 
    185 H185        4.6260  -14.3293  -46.8744 H         1 UNK         0.0600 
    186 H186        3.9291  -16.6678  -46.3070 H         1 UNK         0.0600 
    187 H187        5.0720  -16.0326  -45.1352 H         1 UNK         0.0600 
    188 H188        3.3626  -16.1108  -44.7320 H         1 UNK         0.0600 
    189 H189        1.9426  -15.2102  -46.5625 H         1 UNK         0.3000 
    190 H190       -1.6990  -19.6230  -45.2865 H         1 UNK         0.3000 
    191 H191       -3.7658  -19.7681  -47.2177 H         1 UNK         0.0600 
    192 H192       -3.8918  -19.5542  -44.1654 H         1 UNK         0.0600 
    193 H193       -5.2324  -19.2334  -45.2623 H         1 UNK         0.0600 
    194 H194       -3.8037  -18.2106  -45.3042 H         1 UNK         0.0600 
    195 H195       -2.7410  -22.1154  -44.7188 H         1 UNK         0.3000 
    196 H196       -4.9269  -23.9214  -45.0209 H         1 UNK         0.0600 
    197 H197       -2.0624  -24.4265  -44.0607 H         1 UNK         0.0600 
    198 H198       -3.4159  -25.5299  -43.8550 H         1 UNK         0.0600 
    199 H199       -3.4335  -23.9679  -43.0524 H         1 UNK         0.0600 
    200 H200       -1.7266  -23.7494  -46.6461 H         1 UNK         0.3000 
    201 H201       -2.1835  -25.9929  -48.4135 H         1 UNK         0.0600 
    202 H202       -0.2589  -23.6110  -48.6076 H         1 UNK         0.0600 
    203 H203       -0.1906  -25.0598  -49.6042 H         1 UNK         0.0600 
    204 H204        0.0964  -25.1721  -47.8731 H         1 UNK         0.0600 
    205 H205       -2.8493  -22.5532  -48.5181 H         1 UNK         0.3000 
    206 H206       -4.0706  -21.1908  -49.7070 H         1 UNK         0.0600 
    207 H207       -5.9057  -22.8657  -49.5011 H         1 UNK         0.0600 
    208 H208       -6.0073  -21.9539  -50.9952 H         1 UNK         0.0600 
    209 H209       -5.4105  -23.6097  -51.0200 H         1 UNK         0.0600 
    210 H210       -1.5130  -21.7178  -50.4679 H         1 UNK         0.3000 
    211 H211        0.0557  -21.3580  -52.0009 H         1 UNK         0.0600 
    212 H212       -2.1678  -19.8840  -53.5247 H         1 UNK         0.0600 
    213 H213       -0.4475  -19.7840  -53.8967 H         1 UNK         0.0600 
    214 H214       -1.0521  -19.1945  -52.3632 H         1 UNK         0.0600 
    215 H215       -1.7751  -21.3818  -54.8934 H         1 UNK         0.3000 
    216 H216       -0.7515  -24.0326  -55.6740 H         1 UNK         0.0600 
    217 H217       -1.2818  -23.3360  -57.9258 H         1 UNK         0.0600 
    218 H218       -0.4956  -21.9754  -57.1490 H         1 UNK         0.0600 
    219 H219       -2.2464  -21.9769  -57.3702 H         1 UNK         0.0600 
    220 H220       -3.3163  -23.2641  -53.8832 H         1 UNK         0.3000 
    221 H221       -5.1845  -24.2160  -53.2732 H         1 UNK         0.0600 
    222 H222       -4.4566  -26.5757  -55.0993 H         1 UNK         0.0600 
    223 H223       -3.9990  -26.3828  -53.4122 H         1 UNK         0.0600 
    224 H224       -5.6874  -26.5799  -53.8375 H         1 UNK         0.0600 
    225 H225       -6.2974  -25.9750  -55.9182 H         1 UNK         0.3000 
    226 H226       -8.4885  -24.2724  -56.4108 H         1 UNK         0.0600 
    227 H227       -8.5374  -26.7280  -56.7543 H         1 UNK         0.0600 
    228 H228       -8.9868  -25.9074  -58.2399 H         1 UNK         0.0600 
    229 H229       -7.3755  -26.5950  -58.0756 H         1 UNK         0.0600 
    230 H230       -5.3078  -24.2037  -57.8386 H         1 UNK         0.3000 
    231 H231       -6.0915  -22.5771  -60.1639 H         1 UNK         0.0600 
    232 H232       -4.2742  -24.2309  -60.3976 H         1 UNK         0.0600 
    233 H233       -3.3675  -23.4700  -59.0950 H         1 UNK         0.0600 
    234 H234       -3.6322  -22.6101  -60.6066 H         1 UNK         0.0600 
    235 H235       -5.7765  -21.8998  -56.8704 H         1 UNK         0.3000 
    236 H236       -5.2679  -19.0337  -57.3713 H         1 UNK         0.0600 
    237 H237       -3.7199  -18.9488  -55.4076 H         1 UNK         0.0600 
    238 H238       -3.7954  -20.7091  -55.2675 H         1 UNK         0.0600 
    239 H239       -3.0661  -19.9455  -56.6826 H         1 UNK         0.0600 
    240 H240       -5.2287  -19.3481  -54.1682 H         1 UNK         0.3000 
    241 H241       -8.0146  -18.5594  -53.9176 H         1 UNK         0.0600 
    242 H242       -6.9973  -21.6865  -53.9461 H         1 UNK         0.3800 
    243 H243       -8.0424  -22.2668  -52.6753 H         1 UNK         0.3800 
    244 H244       -6.5700  -17.0188  -52.9346 H         1 UNK         0.0800 
    245 H245       -7.2747  -17.8397  -51.5851 H         1 UNK         0.0800 
    246 H246       -5.8322  -17.4136  -49.8119 H         1 UNK         0.0800 
    247 H247       -5.3742  -19.0883  -49.6013 H         1 UNK         0.0800 
@<TRIPOS>BOND
     1    1    2 1    
     2    1  127 1    
     3    1  128 1    
     4    1  129 1    
     5    2    3 2    
     6    2    4 am   BACKBONE|DICT|INTERRES
     7    4    5 1    
     8    4  130 1    
     9    5    6 1    
    10    5   65 1    
    11    5  131 1    
    12    6    7 1    
    13    6  132 1    
    14    6  133 1    
    15    7    8 1    
    16    8    9 1    
    17    8  134 1    
    18    8  135 1    
    19    9   10 ar   
    20    9   14 ar   
    21   10   11 ar   
    22   10  136 1    
    23   11   12 ar   
    24   11  126 1    
    25   12   13 ar   
    26   12  137 1    
    27   13   14 ar   
    28   13   15 1    
    29   14  138 1    
    30   15   16 1    
    31   15  139 1    
    32   15  140 1    
    33   16   17 1    
    34   17   18 1    
    35   17  141 1    
    36   17  142 1    
    37   18   19 1    
    38   18   67 1    
    39   18  143 1    
    40   19   20 am   BACKBONE|DICT|INTERRES
    41   19  144 1    
    42   20   21 2    
    43   20   22 1    
    44   22   23 1    
    45   22   24 1    
    46   22  145 1    
    47   23  146 1    
    48   23  147 1    
    49   23  148 1    
    50   24   25 am   BACKBONE|DICT|INTERRES
    51   24  149 1    
    52   25   26 2    
    53   25   27 1    
    54   27   28 1    
    55   27   29 1    
    56   27  150 1    
    57   28  151 1    
    58   28  152 1    
    59   28  153 1    
    60   29   30 am   BACKBONE|DICT|INTERRES
    61   29  154 1    
    62   30   31 2    
    63   30   32 1    
    64   32   33 1    
    65   32   34 1    
    66   32  155 1    
    67   33  156 1    
    68   33  157 1    
    69   33  158 1    
    70   34   35 am   BACKBONE|DICT|INTERRES
    71   34  159 1    
    72   35   36 2    
    73   35   37 1    
    74   37   38 1    
    75   37   39 1    
    76   37  160 1    
    77   38  161 1    
    78   38  162 1    
    79   38  163 1    
    80   39   40 am   BACKBONE|DICT|INTERRES
    81   39  164 1    
    82   40   41 2    
    83   40   42 1    
    84   42   43 1    
    85   42   44 1    
    86   42  165 1    
    87   43  166 1    
    88   43  167 1    
    89   43  168 1    
    90   44   45 am   BACKBONE|DICT|INTERRES
    91   44  169 1    
    92   45   46 2    
    93   45   47 1    
    94   47   48 1    
    95   47   49 1    
    96   47  170 1    
    97   48  171 1    
    98   48  172 1    
    99   48  173 1    
   100   49   50 am   BACKBONE|DICT|INTERRES
   101   49  174 1    
   102   50   51 2    
   103   50   52 1    
   104   52   53 1    
   105   52   54 1    
   106   52  175 1    
   107   53  176 1    
   108   53  177 1    
   109   53  178 1    
   110   54   55 am   BACKBONE|DICT|INTERRES
   111   54  179 1    
   112   55   56 2    
   113   55   57 1    
   114   57   58 1    
   115   57   59 1    
   116   57  180 1    
   117   58  181 1    
   118   58  182 1    
   119   58  183 1    
   120   59   60 am   BACKBONE|DICT|INTERRES
   121   59  184 1    
   122   60   61 2    
   123   60   62 1    
   124   62   63 1    
   125   62   64 1    
   126   62  185 1    
   127   63  186 1    
   128   63  187 1    
   129   63  188 1    
   130   64   65 am   BACKBONE|DICT|INTERRES
   131   64  189 1    
   132   65   66 2    
   133   67   68 2    
   134   67   69 am   BACKBONE|DICT|INTERRES
   135   69   70 1    
   136   69  190 1    
   137   70   71 1    
   138   70   72 1    
   139   70  191 1    
   140   71  192 1    
   141   71  193 1    
   142   71  194 1    
   143   72   73 2    
   144   72   74 am   BACKBONE|DICT|INTERRES
   145   74   75 1    
   146   74  195 1    
   147   75   76 1    
   148   75   77 1    
   149   75  196 1    
   150   76  197 1    
   151   76  198 1    
   152   76  199 1    
   153   77   78 2    
   154   77   79 am   BACKBONE|DICT|INTERRES
   155   79   80 1    
   156   79  200 1    
   157   80   81 1    
   158   80   82 1    
   159   80  201 1    
   160   81  202 1    
   161   81  203 1    
   162   81  204 1    
   163   82   83 2    
   164   82   84 am   BACKBONE|DICT|INTERRES
   165   84   85 1    
   166   84  205 1    
   167   85   86 1    
   168   85   87 1    
   169   85  206 1    
   170   86  207 1    
   171   86  208 1    
   172   86  209 1    
   173   87   88 2    
   174   87   89 am   BACKBONE|DICT|INTERRES
   175   89   90 1    
   176   89  210 1    
   177   90   91 1    
   178   90   92 1    
   179   90  211 1    
   180   91  212 1    
   181   91  213 1    
   182   91  214 1    
   183   92   93 2    
   184   92   94 am   BACKBONE|DICT|INTERRES
   185   94   95 1    
   186   94  215 1    
   187   95   96 1    
   188   95   97 1    
   189   95  216 1    
   190   96  217 1    
   191   96  218 1    
   192   96  219 1    
   193   97   98 2    
   194   97   99 am   BACKBONE|DICT|INTERRES
   195   99  100 1    
   196   99  220 1    
   197  100  101 1    
   198  100  102 1    
   199  100  221 1    
   200  101  222 1    
   201  101  223 1    
   202  101  224 1    
   203  102  103 2    
   204  102  104 am   BACKBONE|DICT|INTERRES
   205  104  105 1    
   206  104  225 1    
   207  105  106 1    
   208  105  107 1    
   209  105  226 1    
   210  106  227 1    
   211  106  228 1    
   212  106  229 1    
   213  107  108 2    
   214  107  109 am   BACKBONE|DICT|INTERRES
   215  109  110 1    
   216  109  230 1    
   217  110  111 1    
   218  110  112 1    
   219  110  231 1    
   220  111  232 1    
   221  111  233 1    
   222  111  234 1    
   223  112  113 2    
   224  112  114 am   BACKBONE|DICT|INTERRES
   225  114  115 1    
   226  114  235 1    
   227  115  116 1    
   228  115  117 1    
   229  115  236 1    
   230  116  237 1    
   231  116  238 1    
   232  116  239 1    
   233  117  118 2    
   234  117  119 am   BACKBONE|DICT|INTERRES
   235  119  120 1    
   236  119  240 1    
   237  120  121 1    
   238  120  124 1    
   239  120  241 1    
   240  121  122 am   BACKBONE|DICT|INTERRES
   241  121  123 2    
   242  122  242 1    
   243  122  243 1    
   244  124  125 1    
   245  124  244 1    
   246  124  245 1    
   247  125  126 1    
   248  126  246 1    
   249  126  247 1    
@<TRIPOS>SUBSTRUCTURE
     1 UNK         1 GROUP             0       ****    0 ROOT    
