@<TRIPOS>MOLECULE
3R540
247   249    1
SMALL
USER_CHARGES


@<TRIPOS>ATOM
      1 CA         -1.6780   -9.8562  -48.6692 C.3       0 UNK        -0.1800 
      2 C          -1.2027  -10.7889  -47.5659 C.2       0 UNK         0.5000 
      3 O          -0.0265  -10.7621  -47.2058 O.2       0 UNK        -0.5000 
      4 N          -2.1128  -11.5991  -47.0103 N.am      1 UNK        -0.5000 
      5 CA         -1.8532  -12.6234  -45.9850 C.3       1 UNK         0.1400 
      6 C6         -3.0938  -13.5123  -45.7394 C.3       23 UNK        -0.0398 
      7 S7         -3.5974  -14.4250  -47.2370 S.3       23 UNK        -0.2404 
      8 C8         -2.6660  -15.9655  -46.9945 C.3       23 UNK        -0.0205 
      9 C9         -3.0653  -17.0281  -48.0019 C.ar      23 UNK        -0.0193 
     10 C10        -2.4557  -17.0794  -49.2575 C.ar      23 UNK        -0.1150 
     11 C11        -2.8369  -18.0475  -50.1923 C.ar      23 UNK        -0.0193 
     12 C12        -3.8284  -18.9739  -49.8541 C.ar      23 UNK        -0.1150 
     13 C13        -4.4224  -18.9520  -48.5891 C.ar      23 UNK        -0.0193 
     14 C14        -4.0410  -17.9713  -47.6704 C.ar      23 UNK        -0.1150 
     15 C15        -5.4736  -19.9860  -48.2066 C.3       23 UNK        -0.0205 
     16 S16        -4.8131  -21.6847  -48.1413 S.3       23 UNK        -0.2404 
     17 C17        -3.3337  -21.4873  -47.0908 C.3       23 UNK        -0.0398 
     18 CA         -2.7243  -22.8295  -46.6111 C.3       11 UNK         0.1400 
     19 N          -1.3153  -22.6716  -46.2375 N.am      11 UNK        -0.5000 
     20 C          -0.4790  -23.6694  -45.9152 C.2       10 UNK         0.5000 
     21 O          -0.8013  -24.8558  -45.8657 O.2       10 UNK        -0.5000 
     22 CA          0.9504  -23.2682  -45.5119 C.3       10 UNK         0.1400 
     23 CB          1.7855  -22.8870  -46.7432 C.3       10 UNK        -0.1800 
     24 N           0.9774  -22.1810  -44.5321 N.am      10 UNK        -0.5000 
     25 C           0.4379  -22.2540  -43.3063 C.2       9 UNK         0.5000 
     26 O          -0.1192  -23.2569  -42.8629 O.2       9 UNK        -0.5000 
     27 CA          0.4819  -20.9817  -42.4441 C.3       9 UNK         0.1400 
     28 CB          1.8809  -20.7703  -41.8464 C.3       9 UNK        -0.1800 
     29 N           0.0751  -19.7885  -43.1828 N.am      9 UNK        -0.5000 
     30 C          -1.1333  -19.6019  -43.7329 C.2       8 UNK         0.5000 
     31 O          -2.0614  -20.4077  -43.6520 O.2       8 UNK        -0.5000 
     32 CA         -1.3128  -18.3162  -44.5595 C.3       8 UNK         0.1400 
     33 CB         -1.4635  -17.0906  -43.6410 C.3       8 UNK        -0.1800 
     34 N          -0.2100  -18.0996  -45.4987 N.am      8 UNK        -0.5000 
     35 C           0.1330  -18.9523  -46.4768 C.2       7 UNK         0.5000 
     36 O          -0.4696  -19.9948  -46.7221 O.2       7 UNK        -0.5000 
     37 CA          1.4063  -18.6213  -47.2693 C.3       7 UNK         0.1400 
     38 CB          1.1142  -17.6035  -48.3821 C.3       7 UNK        -0.1800 
     39 N           2.4682  -18.1282  -46.3917 N.am      7 UNK        -0.5000 
     40 C           3.1113  -18.8904  -45.4934 C.2       6 UNK         0.5000 
     41 O           2.9128  -20.0970  -45.3538 O.2       6 UNK        -0.5000 
     42 CA          4.1090  -18.1766  -44.5628 C.3       6 UNK         0.1400 
     43 CB          5.4771  -18.0284  -45.2445 C.3       6 UNK        -0.1800 
     44 N           3.6320  -16.8604  -44.1378 N.am      6 UNK        -0.5000 
     45 C           2.5599  -16.6566  -43.3585 C.2       5 UNK         0.5000 
     46 O           1.9028  -17.5664  -42.8548 O.2       5 UNK        -0.5000 
     47 CA          2.1201  -15.1953  -43.1490 C.3       5 UNK         0.1400 
     48 CB          2.7585  -14.6103  -41.8815 C.3       5 UNK        -0.1800 
     49 N           2.4394  -14.3353  -44.2894 N.am      5 UNK        -0.5000 
     50 C           1.9108  -14.4533  -45.5134 C.2       4 UNK         0.5000 
     51 O           1.0823  -15.3168  -45.8108 O.2       4 UNK        -0.5000 
     52 CA          2.4150  -13.4481  -46.5696 C.3       4 UNK         0.1400 
     53 CB          1.7481  -13.6381  -47.9438 C.3       4 UNK        -0.1800 
     54 N           2.2290  -12.0628  -46.1377 N.am      4 UNK        -0.5000 
     55 C           3.0175  -11.3912  -45.2870 C.2       3 UNK         0.5000 
     56 O           4.0093  -11.8833  -44.7470 O.2       3 UNK        -0.5000 
     57 CA          2.6030   -9.9497  -44.9540 C.3       3 UNK         0.1400 
     58 CB          2.9055   -9.0069  -46.1295 C.3       3 UNK        -0.1800 
     59 N           1.1768   -9.8959  -44.6413 N.am      3 UNK        -0.5000 
     60 C           0.6633   -9.9426  -43.4041 C.2       2 UNK         0.5000 
     61 O           1.3436   -9.9303  -42.3776 O.2       2 UNK        -0.5000 
     62 CA         -0.8727  -10.0345  -43.2908 C.3       2 UNK         0.1400 
     63 CB         -1.4925   -8.6317  -43.2025 C.3       2 UNK        -0.1800 
     64 N          -1.4800  -10.7568  -44.4101 N.am      2 UNK        -0.5000 
     65 C          -1.3152  -12.0660  -44.6479 C.2       1 UNK         0.5000 
     66 O          -0.7408  -12.8268  -43.8694 O.2       1 UNK        -0.5000 
     67 C          -3.5661  -23.4789  -45.4913 C.2       11 UNK         0.5000 
     68 O          -4.4437  -24.2922  -45.7834 O.2       11 UNK        -0.5000 
     69 N          -3.2695  -23.1338  -44.2306 N.am      12 UNK        -0.5000 
     70 CA         -3.8810  -23.7435  -43.0524 C.3       12 UNK         0.1400 
     71 CB         -3.6140  -22.8579  -41.8254 C.3       12 UNK        -0.1800 
     72 C          -3.3897  -25.1834  -42.8053 C.2       12 UNK         0.5000 
     73 O          -4.2015  -26.0513  -42.4809 O.2       12 UNK        -0.5000 
     74 N          -2.0750  -25.4058  -42.9331 N.am      13 UNK        -0.5000 
     75 CA         -1.4168  -26.6698  -42.6068 C.3       13 UNK         0.1400 
     76 CB          0.0831  -26.4208  -42.3833 C.3       13 UNK        -0.1800 
     77 C          -1.6181  -27.7778  -43.6545 C.2       13 UNK         0.5000 
     78 O          -1.8327  -28.9288  -43.2694 O.2       13 UNK        -0.5000 
     79 N          -1.5031  -27.4394  -44.9444 N.am      14 UNK        -0.5000 
     80 CA         -1.4546  -28.4024  -46.0423 C.3       14 UNK         0.1400 
     81 CB         -0.0301  -28.9945  -46.1508 C.3       14 UNK        -0.1800 
     82 C          -1.9804  -27.7652  -47.3413 C.2       14 UNK         0.5000 
     83 O          -3.1264  -27.3131  -47.3668 O.2       14 UNK        -0.5000 
     84 N          -1.1654  -27.7872  -48.4066 N.am      15 UNK        -0.5000 
     85 CA         -1.4787  -27.2676  -49.7389 C.3       15 UNK         0.1400 
     86 CB         -0.3284  -27.6209  -50.6941 C.3       15 UNK        -0.1800 
     87 C          -1.7247  -25.7491  -49.7348 C.2       15 UNK         0.5000 
     88 O          -1.0704  -25.0249  -48.9853 O.2       15 UNK        -0.5000 
     89 N          -2.6367  -25.2939  -50.6019 N.am      16 UNK        -0.5000 
     90 CA         -3.2172  -23.9464  -50.6279 C.3       16 UNK         0.1400 
     91 CB         -4.4923  -23.9829  -51.4877 C.3       16 UNK        -0.1800 
     92 C          -2.2807  -22.7849  -51.0416 C.2       16 UNK         0.5000 
     93 O          -2.7761  -21.7373  -51.4497 O.2       16 UNK        -0.5000 
     94 N          -0.9589  -22.9744  -50.9387 N.am      17 UNK        -0.5000 
     95 CA          0.1022  -21.9891  -51.1814 C.3       17 UNK         0.1400 
     96 CB          0.0706  -20.8958  -50.0942 C.3       17 UNK        -0.1800 
     97 C           0.1397  -21.4244  -52.6216 C.2       17 UNK         0.5000 
     98 O           0.6063  -20.3030  -52.8305 O.2       17 UNK        -0.5000 
     99 N          -0.3090  -22.2423  -53.5865 N.am      18 UNK        -0.5000 
    100 CA        -0.3556  -21.9906  -55.0312 C.3       18 UNK         0.1400 
    101 CB         1.0743  -21.8512  -55.6011 C.3       18 UNK        -0.1800 
    102 C         -1.2880  -20.8223  -55.4276 C.2       18 UNK         0.5000 
    103 O         -2.1894  -20.4608  -54.6677 O.2       18 UNK        -0.5000 
    104 N         -1.1001  -20.2985  -56.6499 N.am      19 UNK        -0.5000 
    105 CA        -1.8246  -19.1723  -57.2585 C.3       19 UNK         0.1400 
    106 CB        -1.4358  -17.8555  -56.5539 C.3       19 UNK        -0.1800 
    107 C         -3.3545  -19.3803  -57.3393 C.2       19 UNK         0.5000 
    108 O         -4.1153  -18.4201  -57.2057 O.2       19 UNK        -0.5000 
    109 N         -3.7753  -20.6427  -57.5191 N.am      20 UNK        -0.5000 
    110 CA        -5.1639  -21.1225  -57.4888 C.3       20 UNK         0.1400 
    111 CB        -5.9552  -20.5875  -58.7012 C.3       20 UNK        -0.1800 
    112 C         -5.8569  -20.8392  -56.1361 C.2       20 UNK         0.5000 
    113 O         -7.0178  -20.4279  -56.1093 O.2       20 UNK        -0.5000 
    114 N         -5.1052  -21.0480  -55.0437 N.am      21 UNK        -0.5000 
    115 CA        -5.4323  -20.7103  -53.6543 C.3       21 UNK         0.1400 
    116 CB        -6.6850  -21.4655  -53.1601 C.3       21 UNK        -0.1800 
    117 C         -5.5042  -19.1855  -53.4361 C.2       21 UNK         0.5000 
    118 O         -6.3909  -18.7026  -52.7296 O.2       21 UNK        -0.5000 
    119 N         -4.5660  -18.4631  -54.0654 N.am      22 UNK        -0.5000 
    120 CA        -4.4863  -16.9944  -54.1243 C.3       22 UNK         0.1400 
    121 C         -5.7560  -16.3508  -54.7548 C.2       22 UNK         0.5000 
    122 N         -6.1091  -16.7504  -55.9695 N.am      22 UNK        -0.7600 
    123 O         -6.4150  -15.4965  -54.1670 O.2       22 UNK        -0.5000 
    124 C124       -4.0522  -16.3647  -52.7722 C.3       23 UNK        -0.0398 
    125 S125       -2.2594  -16.5555  -52.4875 S.3       23 UNK        -0.2404 
    126 C126       -2.1596  -18.1169  -51.5550 C.3       23 UNK        -0.0205 
    127 H127       -2.7416   -9.9792  -48.8742 H         1 UNK         0.0600 
    128 H128       -1.5026   -8.8190  -48.3841 H         1 UNK         0.0600 
    129 H129       -1.1281  -10.0558  -49.5889 H         1 UNK         0.0600 
    130 H130       -3.0620  -11.5735  -47.3554 H         1 UNK         0.3000 
    131 H131       -1.0616  -13.2667  -46.3721 H         1 UNK         0.0600 
    132 H132       -2.9119  -14.2272  -44.9348 H         1 UNK         0.0800 
    133 H133       -3.9376  -12.9032  -45.4106 H         1 UNK         0.0800 
    134 H134       -2.8669  -16.3330  -45.9904 H         1 UNK         0.0800 
    135 H135       -1.5941  -15.7680  -47.0521 H         1 UNK         0.0800 
    136 H136       -1.6908  -16.3591  -49.5119 H         1 UNK         0.1150 
    137 H137       -4.1260  -19.7303  -50.5660 H         1 UNK         0.1150 
    138 H138       -4.5040  -17.9406  -46.6942 H         1 UNK         0.1150 
    139 H139       -5.9173  -19.7465  -47.2391 H         1 UNK         0.0800 
    140 H140       -6.2866  -19.9518  -48.9331 H         1 UNK         0.0800 
    141 H141       -3.5535  -20.8282  -46.2488 H         1 UNK         0.0800 
    142 H142       -2.6059  -20.9592  -47.7073 H         1 UNK         0.0800 
    143 H143       -2.7293  -23.5252  -47.4507 H         1 UNK         0.0600 
    144 H144       -0.9532  -21.7203  -46.2613 H         1 UNK         0.3000 
    145 H145        1.4166  -24.1402  -45.0486 H         1 UNK         0.0600 
    146 H146        2.8330  -22.7437  -46.4782 H         1 UNK         0.0600 
    147 H147        1.7435  -23.6686  -47.5031 H         1 UNK         0.0600 
    148 H148        1.4294  -21.9644  -47.1997 H         1 UNK         0.0600 
    149 H149        1.4486  -21.3270  -44.8145 H         1 UNK         0.3000 
    150 H150       -0.2222  -21.1155  -41.6203 H         1 UNK         0.0600 
    151 H151        2.1987  -21.6446  -41.2771 H         1 UNK         0.0600 
    152 H152        1.8938  -19.9173  -41.1677 H         1 UNK         0.0600 
    153 H153        2.6279  -20.5917  -42.6202 H         1 UNK         0.0600 
    154 H154        0.7665  -19.0474  -43.2620 H         1 UNK         0.3000 
    155 H155       -2.2251  -18.4265  -45.1482 H         1 UNK         0.0600 
    156 H156       -0.6771  -17.0450  -42.8884 H         1 UNK         0.0600 
    157 H157       -2.4151  -17.1236  -43.1098 H         1 UNK         0.0600 
    158 H158       -1.4297  -16.1552  -44.1988 H         1 UNK         0.0600 
    159 H159        0.3322  -17.2504  -45.3880 H         1 UNK         0.3000 
    160 H160        1.7583  -19.5411  -47.7409 H         1 UNK         0.0600 
    161 H161        2.0171  -17.3519  -48.9383 H         1 UNK         0.0600 
    162 H162        0.6888  -16.6805  -47.9903 H         1 UNK         0.0600 
    163 H163        0.3958  -18.0090  -49.0951 H         1 UNK         0.0600 
    164 H164        2.6428  -17.1345  -46.4052 H         1 UNK         0.3000 
    165 H165        4.2357  -18.7956  -43.6720 H         1 UNK         0.0600 
    166 H166        6.2099  -17.5908  -44.5664 H         1 UNK         0.0600 
    167 H167        5.8639  -18.9995  -45.5565 H         1 UNK         0.0600 
    168 H168        5.4208  -17.3969  -46.1320 H         1 UNK         0.0600 
    169 H169        4.1211  -16.0557  -44.5004 H         1 UNK         0.3000 
    170 H170        1.0357  -15.1898  -43.0208 H         1 UNK         0.0600 
    171 H171        2.5182  -15.2172  -41.0075 H         1 UNK         0.0600 
    172 H172        3.8452  -14.5636  -41.9621 H         1 UNK         0.0600 
    173 H173        2.3923  -13.6018  -41.6872 H         1 UNK         0.0600 
    174 H174        3.1044  -13.5851  -44.1339 H         1 UNK         0.3000 
    175 H175        3.4836  -13.6309  -46.6992 H         1 UNK         0.0600 
    176 H176        0.6664  -13.5178  -47.8941 H         1 UNK         0.0600 
    177 H177        2.1288  -12.9181  -48.6683 H         1 UNK         0.0600 
    178 H178        1.9513  -14.6322  -48.3419 H         1 UNK         0.0600 
    179 H179        1.4200  -11.5835  -46.5281 H         1 UNK         0.3000 
    180 H180        3.1916   -9.6166  -44.0966 H         1 UNK         0.0600 
    181 H181        2.3454   -9.2785  -47.0252 H         1 UNK         0.0600 
    182 H182        3.9656   -9.0305  -46.3850 H         1 UNK         0.0600 
    183 H183        2.6542   -7.9761  -45.8794 H         1 UNK         0.0600 
    184 H184        0.5466   -9.9622  -45.4326 H         1 UNK         0.3000 
    185 H185       -1.1071  -10.5720  -42.3695 H         1 UNK         0.0600 
    186 H186       -1.0769   -8.0740  -42.3621 H         1 UNK         0.0600 
    187 H187       -1.3056   -8.0507  -44.1065 H         1 UNK         0.0600 
    188 H188       -2.5711   -8.6853  -43.0538 H         1 UNK         0.0600 
    189 H189       -1.9727  -10.2047  -45.0968 H         1 UNK         0.3000 
    190 H190       -2.5655  -22.4224  -44.0658 H         1 UNK         0.3000 
    191 H191       -4.9613  -23.7819  -43.2078 H         1 UNK         0.0600 
    192 H192       -2.5468  -22.7506  -41.6285 H         1 UNK         0.0600 
    193 H193       -4.0732  -23.2802  -40.9308 H         1 UNK         0.0600 
    194 H194       -4.0283  -21.8590  -41.9639 H         1 UNK         0.0600 
    195 H195       -1.4646  -24.6278  -43.1665 H         1 UNK         0.3000 
    196 H196       -1.8324  -27.0325  -41.6641 H         1 UNK         0.0600 
    197 H197        0.5588  -26.0104  -43.2751 H         1 UNK         0.0600 
    198 H198        0.6017  -27.3462  -42.1296 H         1 UNK         0.0600 
    199 H199        0.2484  -25.7212  -41.5638 H         1 UNK         0.0600 
    200 H200       -1.3540  -26.4638  -45.2035 H         1 UNK         0.3000 
    201 H201       -2.1425  -29.2219  -45.8240 H         1 UNK         0.0600 
    202 H202        0.0337  -29.7399  -46.9445 H         1 UNK         0.0600 
    203 H203        0.2575  -29.4975  -45.2274 H         1 UNK         0.0600 
    204 H204        0.7141  -28.2217  -46.3478 H         1 UNK         0.0600 
    205 H205       -0.2341  -28.1546  -48.2819 H         1 UNK         0.3000 
    206 H206       -2.3861  -27.7676  -50.0838 H         1 UNK         0.0600 
    207 H207       -0.1754  -28.6990  -50.7474 H         1 UNK         0.0600 
    208 H208       -0.5386  -27.2738  -51.7067 H         1 UNK         0.0600 
    209 H209        0.6104  -27.1631  -50.3789 H         1 UNK         0.0600 
    210 H210       -3.0721  -25.9601  -51.2233 H         1 UNK         0.3000 
    211 H211       -3.5270  -23.7317  -49.6070 H         1 UNK         0.0600 
    212 H212       -4.2623  -24.1270  -52.5440 H         1 UNK         0.0600 
    213 H213       -5.0489  -23.0506  -51.3927 H         1 UNK         0.0600 
    214 H214       -5.1628  -24.7830  -51.1736 H         1 UNK         0.0600 
    215 H215       -0.6650  -23.8445  -50.5084 H         1 UNK         0.3000 
    216 H216        1.0411  -22.5309  -51.0609 H         1 UNK         0.0600 
    217 H217       -0.8503  -20.3155  -50.1286 H         1 UNK         0.0600 
    218 H218        0.9057  -20.2035  -50.2017 H         1 UNK         0.0600 
    219 H219        0.1391  -21.3353  -49.1000 H         1 UNK         0.0600 
    220 H220       -0.7056  -23.1208  -53.2865 H         1 UNK         0.3000 
    221 H221       -0.7978  -22.8858  -55.4701 H         1 UNK         0.0600 
    222 H222        1.5335  -20.9036  -55.3166 H         1 UNK         0.0600 
    223 H223        1.7197  -22.6531  -55.2421 H         1 UNK         0.0600 
    224 H224        1.0799  -21.9075  -56.6898 H         1 UNK         0.0600 
    225 H225       -0.3556  -20.6836  -57.2141 H         1 UNK         0.3000 
    226 H226       -1.4815  -19.1048  -58.2917 H         1 UNK         0.0600 
    227 H227       -0.3596  -17.6903  -56.6027 H         1 UNK         0.0600 
    228 H228       -1.9141  -16.9948  -57.0227 H         1 UNK         0.0600 
    229 H229       -1.7200  -17.8609  -55.5018 H         1 UNK         0.0600 
    230 H230       -3.0684  -21.3572  -57.6203 H         1 UNK         0.3000 
    231 H231       -5.1169  -22.2084  -57.5825 H         1 UNK         0.0600 
    232 H232       -5.4432  -20.8129  -59.6365 H         1 UNK         0.0600 
    233 H233       -6.0994  -19.5080  -58.6495 H         1 UNK         0.0600 
    234 H234       -6.9434  -21.0457  -58.7548 H         1 UNK         0.0600 
    235 H235       -4.1392  -21.3155  -55.1850 H         1 UNK         0.3000 
    236 H236       -4.5892  -21.0570  -53.0602 H         1 UNK         0.0600 
    237 H237       -6.8119  -21.3389  -52.0843 H         1 UNK         0.0600 
    238 H238       -7.5960  -21.1042  -53.6373 H         1 UNK         0.0600 
    239 H239       -6.6046  -22.5347  -53.3549 H         1 UNK         0.0600 
    240 H240       -3.8663  -18.9634  -54.5984 H         1 UNK         0.3000 
    241 H241       -3.7017  -16.7661  -54.8456 H         1 UNK         0.0600 
    242 H242       -5.5330  -17.4261  -56.4674 H         1 UNK         0.3800 
    243 H243       -6.9263  -16.3608  -56.4108 H         1 UNK         0.3800 
    244 H244       -4.2421  -15.2905  -52.7671 H         1 UNK         0.0800 
    245 H245       -4.6239  -16.7711  -51.9374 H         1 UNK         0.0800 
    246 H246       -2.5696  -18.9284  -52.1582 H         1 UNK         0.0800 
    247 H247       -1.1059  -18.3557  -51.4092 H         1 UNK         0.0800 
@<TRIPOS>BOND
     1    1    2 1    
     2    1  127 1    
     3    1  128 1    
     4    1  129 1    
     5    2    3 2    
     6    2    4 am   BACKBONE|DICT|INTERRES
     7    4    5 1    
     8    4  130 1    
     9    5    6 1    
    10    5   65 1    
    11    5  131 1    
    12    6    7 1    
    13    6  132 1    
    14    6  133 1    
    15    7    8 1    
    16    8    9 1    
    17    8  134 1    
    18    8  135 1    
    19    9   10 ar   
    20    9   14 ar   
    21   10   11 ar   
    22   10  136 1    
    23   11   12 ar   
    24   11  126 1    
    25   12   13 ar   
    26   12  137 1    
    27   13   14 ar   
    28   13   15 1    
    29   14  138 1    
    30   15   16 1    
    31   15  139 1    
    32   15  140 1    
    33   16   17 1    
    34   17   18 1    
    35   17  141 1    
    36   17  142 1    
    37   18   19 1    
    38   18   67 1    
    39   18  143 1    
    40   19   20 am   BACKBONE|DICT|INTERRES
    41   19  144 1    
    42   20   21 2    
    43   20   22 1    
    44   22   23 1    
    45   22   24 1    
    46   22  145 1    
    47   23  146 1    
    48   23  147 1    
    49   23  148 1    
    50   24   25 am   BACKBONE|DICT|INTERRES
    51   24  149 1    
    52   25   26 2    
    53   25   27 1    
    54   27   28 1    
    55   27   29 1    
    56   27  150 1    
    57   28  151 1    
    58   28  152 1    
    59   28  153 1    
    60   29   30 am   BACKBONE|DICT|INTERRES
    61   29  154 1    
    62   30   31 2    
    63   30   32 1    
    64   32   33 1    
    65   32   34 1    
    66   32  155 1    
    67   33  156 1    
    68   33  157 1    
    69   33  158 1    
    70   34   35 am   BACKBONE|DICT|INTERRES
    71   34  159 1    
    72   35   36 2    
    73   35   37 1    
    74   37   38 1    
    75   37   39 1    
    76   37  160 1    
    77   38  161 1    
    78   38  162 1    
    79   38  163 1    
    80   39   40 am   BACKBONE|DICT|INTERRES
    81   39  164 1    
    82   40   41 2    
    83   40   42 1    
    84   42   43 1    
    85   42   44 1    
    86   42  165 1    
    87   43  166 1    
    88   43  167 1    
    89   43  168 1    
    90   44   45 am   BACKBONE|DICT|INTERRES
    91   44  169 1    
    92   45   46 2    
    93   45   47 1    
    94   47   48 1    
    95   47   49 1    
    96   47  170 1    
    97   48  171 1    
    98   48  172 1    
    99   48  173 1    
   100   49   50 am   BACKBONE|DICT|INTERRES
   101   49  174 1    
   102   50   51 2    
   103   50   52 1    
   104   52   53 1    
   105   52   54 1    
   106   52  175 1    
   107   53  176 1    
   108   53  177 1    
   109   53  178 1    
   110   54   55 am   BACKBONE|DICT|INTERRES
   111   54  179 1    
   112   55   56 2    
   113   55   57 1    
   114   57   58 1    
   115   57   59 1    
   116   57  180 1    
   117   58  181 1    
   118   58  182 1    
   119   58  183 1    
   120   59   60 am   BACKBONE|DICT|INTERRES
   121   59  184 1    
   122   60   61 2    
   123   60   62 1    
   124   62   63 1    
   125   62   64 1    
   126   62  185 1    
   127   63  186 1    
   128   63  187 1    
   129   63  188 1    
   130   64   65 am   BACKBONE|DICT|INTERRES
   131   64  189 1    
   132   65   66 2    
   133   67   68 2    
   134   67   69 am   BACKBONE|DICT|INTERRES
   135   69   70 1    
   136   69  190 1    
   137   70   71 1    
   138   70   72 1    
   139   70  191 1    
   140   71  192 1    
   141   71  193 1    
   142   71  194 1    
   143   72   73 2    
   144   72   74 am   BACKBONE|DICT|INTERRES
   145   74   75 1    
   146   74  195 1    
   147   75   76 1    
   148   75   77 1    
   149   75  196 1    
   150   76  197 1    
   151   76  198 1    
   152   76  199 1    
   153   77   78 2    
   154   77   79 am   BACKBONE|DICT|INTERRES
   155   79   80 1    
   156   79  200 1    
   157   80   81 1    
   158   80   82 1    
   159   80  201 1    
   160   81  202 1    
   161   81  203 1    
   162   81  204 1    
   163   82   83 2    
   164   82   84 am   BACKBONE|DICT|INTERRES
   165   84   85 1    
   166   84  205 1    
   167   85   86 1    
   168   85   87 1    
   169   85  206 1    
   170   86  207 1    
   171   86  208 1    
   172   86  209 1    
   173   87   88 2    
   174   87   89 am   BACKBONE|DICT|INTERRES
   175   89   90 1    
   176   89  210 1    
   177   90   91 1    
   178   90   92 1    
   179   90  211 1    
   180   91  212 1    
   181   91  213 1    
   182   91  214 1    
   183   92   93 2    
   184   92   94 am   BACKBONE|DICT|INTERRES
   185   94   95 1    
   186   94  215 1    
   187   95   96 1    
   188   95   97 1    
   189   95  216 1    
   190   96  217 1    
   191   96  218 1    
   192   96  219 1    
   193   97   98 2    
   194   97   99 am   BACKBONE|DICT|INTERRES
   195   99  100 1    
   196   99  220 1    
   197  100  101 1    
   198  100  102 1    
   199  100  221 1    
   200  101  222 1    
   201  101  223 1    
   202  101  224 1    
   203  102  103 2    
   204  102  104 am   BACKBONE|DICT|INTERRES
   205  104  105 1    
   206  104  225 1    
   207  105  106 1    
   208  105  107 1    
   209  105  226 1    
   210  106  227 1    
   211  106  228 1    
   212  106  229 1    
   213  107  108 2    
   214  107  109 am   BACKBONE|DICT|INTERRES
   215  109  110 1    
   216  109  230 1    
   217  110  111 1    
   218  110  112 1    
   219  110  231 1    
   220  111  232 1    
   221  111  233 1    
   222  111  234 1    
   223  112  113 2    
   224  112  114 am   BACKBONE|DICT|INTERRES
   225  114  115 1    
   226  114  235 1    
   227  115  116 1    
   228  115  117 1    
   229  115  236 1    
   230  116  237 1    
   231  116  238 1    
   232  116  239 1    
   233  117  118 2    
   234  117  119 am   BACKBONE|DICT|INTERRES
   235  119  120 1    
   236  119  240 1    
   237  120  121 1    
   238  120  124 1    
   239  120  241 1    
   240  121  122 am   BACKBONE|DICT|INTERRES
   241  121  123 2    
   242  122  242 1    
   243  122  243 1    
   244  124  125 1    
   245  124  244 1    
   246  124  245 1    
   247  125  126 1    
   248  126  246 1    
   249  126  247 1    
@<TRIPOS>SUBSTRUCTURE
     1 UNK         1 GROUP             0       ****    0 ROOT    
