@<TRIPOS>MOLECULE
3R540
247   249    1
SMALL
USER_CHARGES


@<TRIPOS>ATOM
      1 CA          3.4925  -15.7443  -47.0173 C.3       0 UNK        -0.1800 
      2 C           3.1119  -14.4539  -46.3082 C.2       0 UNK         0.5000 
      3 O           3.6770  -14.1320  -45.2655 O.2       0 UNK        -0.5000 
      4 N           2.1675  -13.7034  -46.8876 N.am      1 UNK        -0.5000 
      5 CA          1.5470  -12.4875  -46.3348 C.3       1 UNK         0.1400 
      6 C6          0.4476  -11.9185  -47.2711 C.3       23 UNK        -0.0398 
      7 S7         -0.6987  -13.1936  -47.9039 S.3       23 UNK        -0.2404 
      8 C8         -0.0467  -13.4290  -49.5864 C.3       23 UNK        -0.0205 
      9 C9         -0.3018  -14.8387  -50.0943 C.ar      23 UNK        -0.0193 
     10 C10        -1.4964  -15.1448  -50.7479 C.ar      23 UNK        -0.1150 
     11 C11        -1.7157  -16.4232  -51.2683 C.ar      23 UNK        -0.0193 
     12 C12        -0.7262  -17.4027  -51.1288 C.ar      23 UNK        -0.1150 
     13 C13         0.4769  -17.1107  -50.4714 C.ar      23 UNK        -0.0193 
     14 C14         0.6760  -15.8274  -49.9529 C.ar      23 UNK        -0.1150 
     15 C15         1.6112  -18.1300  -50.3892 C.3       23 UNK        -0.0205 
     16 S16         1.0789  -19.8225  -49.9796 S.3       23 UNK        -0.2404 
     17 C17         0.7070  -19.6754  -48.1999 C.3       23 UNK        -0.0398 
     18 CA          0.2828  -21.0347  -47.5900 C.3       11 UNK         0.1400 
     19 N           0.3850  -21.0554  -46.1282 N.am      11 UNK        -0.5000 
     20 C           0.2197  -22.1488  -45.3678 C.2       10 UNK         0.5000 
     21 O           0.0315  -23.2761  -45.8234 O.2       10 UNK        -0.5000 
     22 CA          0.2009  -21.9450  -43.8422 C.3       10 UNK         0.1400 
     23 CB          1.6271  -21.8560  -43.2806 C.3       10 UNK        -0.1800 
     24 N          -0.5696  -20.7650  -43.4476 N.am      10 UNK        -0.5000 
     25 C          -1.8856  -20.6182  -43.6598 C.2       9 UNK         0.5000 
     26 O          -2.5994  -21.4959  -44.1442 O.2       9 UNK        -0.5000 
     27 CA         -2.4997  -19.2467  -43.3266 C.3       9 UNK         0.1400 
     28 CB         -2.8220  -19.1381  -41.8292 C.3       9 UNK        -0.1800 
     29 N          -1.6439  -18.1309  -43.7324 N.am      9 UNK        -0.5000 
     30 C          -1.2999  -17.8550  -44.9989 C.2       8 UNK         0.5000 
     31 O          -1.7028  -18.4926  -45.9710 O.2       8 UNK        -0.5000 
     32 CA         -0.2969  -16.7063  -45.2091 C.3       8 UNK         0.1400 
     33 CB         -1.0019  -15.3509  -45.0778 C.3       8 UNK        -0.1800 
     34 N           0.8294  -16.7771  -44.2752 N.am      8 UNK        -0.5000 
     35 C           1.7085  -17.7891  -44.2303 C.2       7 UNK         0.5000 
     36 O           1.7195  -18.7147  -45.0412 O.2       7 UNK        -0.5000 
     37 CA          2.6952  -17.8112  -43.0491 C.3       7 UNK         0.1400 
     38 CB          3.9608  -16.9959  -43.3465 C.3       7 UNK        -0.1800 
     39 N           2.0772  -17.3334  -41.8129 N.am      7 UNK        -0.5000 
     40 C           1.1665  -18.0242  -41.1126 C.2       6 UNK         0.5000 
     41 O           0.7909  -19.1559  -41.4148 O.2       6 UNK        -0.5000 
     42 CA          0.5414  -17.3151  -39.8967 C.3       6 UNK         0.1400 
     43 CB          1.4313  -17.4846  -38.6565 C.3       6 UNK        -0.1800 
     44 N           0.3133  -15.8897  -40.1372 N.am      6 UNK        -0.5000 
     45 C          -0.5634  -15.3992  -41.0257 C.2       5 UNK         0.5000 
     46 O          -1.3294  -16.1032  -41.6815 O.2       5 UNK        -0.5000 
     47 CA         -0.5385  -13.8748  -41.2592 C.3       5 UNK         0.1400 
     48 CB         -1.5266  -13.1681  -40.3201 C.3       5 UNK        -0.1800 
     49 N           0.7992  -13.3006  -41.0816 N.am      5 UNK        -0.5000 
     50 C           1.8492  -13.5868  -41.8623 C.2       4 UNK         0.5000 
     51 O           1.7761  -14.2993  -42.8650 O.2       4 UNK        -0.5000 
     52 CA          3.2113  -13.0843  -41.3690 C.3       4 UNK         0.1400 
     53 CB          3.7257  -14.0206  -40.2533 C.3       4 UNK        -0.1800 
     54 N           4.1731  -13.0327  -42.4690 N.am      4 UNK        -0.5000 
     55 C           5.3796  -12.4528  -42.3930 C.2       3 UNK         0.5000 
     56 O           5.7873  -11.8482  -41.3998 O.2       3 UNK        -0.5000 
     57 CA          6.2833  -12.5452  -43.6307 C.3       3 UNK         0.1400 
     58 CB          6.7558  -13.9889  -43.8738 C.3       3 UNK        -0.1800 
     59 N           5.5913  -12.0395  -44.8115 N.am      3 UNK        -0.5000 
     60 C           5.6147  -10.7611  -45.2142 C.2       2 UNK         0.5000 
     61 O           6.2687   -9.8809  -44.6529 O.2       2 UNK        -0.5000 
     62 CA          4.7808  -10.3920  -46.4577 C.3       2 UNK         0.1400 
     63 CB          5.6732  -10.3468  -47.7078 C.3       2 UNK        -0.1800 
     64 N           3.6719  -11.3127  -46.7039 N.am      2 UNK        -0.5000 
     65 C           2.5515  -11.3731  -45.9715 C.2       1 UNK         0.5000 
     66 O           2.3004  -10.6066  -45.0409 O.2       1 UNK        -0.5000 
     67 C          -1.1204  -21.4622  -48.0668 C.2       11 UNK         0.5000 
     68 O          -1.2229  -22.3256  -48.9365 O.2       11 UNK        -0.5000 
     69 N          -2.1698  -20.8950  -47.4556 N.am      12 UNK        -0.5000 
     70 CA         -3.5681  -21.2213  -47.7337 C.3       12 UNK         0.1400 
     71 CB         -4.4840  -20.2797  -46.9368 C.3       12 UNK        -0.1800 
     72 C          -3.9159  -22.6938  -47.4511 C.2       12 UNK         0.5000 
     73 O          -4.6122  -23.3172  -48.2523 O.2       12 UNK        -0.5000 
     74 N          -3.3991  -23.2327  -46.3390 N.am      13 UNK        -0.5000 
     75 CA         -3.5345  -24.6389  -45.9631 C.3       13 UNK         0.1400 
     76 CB         -3.0443  -24.8329  -44.5202 C.3       13 UNK        -0.1800 
     77 C          -2.7940  -25.5864  -46.9254 C.2       13 UNK         0.5000 
     78 O          -3.3354  -26.6360  -47.2732 O.2       13 UNK        -0.5000 
     79 N          -1.5803  -25.1991  -47.3419 N.am      14 UNK        -0.5000 
     80 CA         -0.7436  -25.9533  -48.2743 C.3       14 UNK         0.1400 
     81 CB          0.6881  -25.3954  -48.2506 C.3       14 UNK        -0.1800 
     82 C          -1.3029  -25.9597  -49.7075 C.2       14 UNK         0.5000 
     83 O          -1.3508  -27.0202  -50.3323 O.2       14 UNK        -0.5000 
     84 N          -1.7112  -24.7835  -50.2040 N.am      15 UNK        -0.5000 
     85 CA         -2.2691  -24.6077  -51.5452 C.3       15 UNK         0.1400 
     86 CB         -2.1812  -23.1316  -51.9546 C.3       15 UNK        -0.1800 
     87 C          -3.7083  -25.1345  -51.6787 C.2       15 UNK         0.5000 
     88 O          -4.0976  -25.5404  -52.7766 O.2       15 UNK        -0.5000 
     89 N          -4.4560  -25.1299  -50.5643 N.am      16 UNK        -0.5000 
     90 CA         -5.7625  -25.7608  -50.3480 C.3       16 UNK         0.1400 
     91 CB         -5.5988  -27.2946  -50.3396 C.3       16 UNK        -0.1800 
     92 C          -6.8738  -25.2970  -51.3135 C.2       16 UNK         0.5000 
     93 O          -7.8107  -26.0549  -51.5710 O.2       16 UNK        -0.5000 
     94 N          -6.7399  -24.0743  -51.8488 N.am      17 UNK        -0.5000 
     95 CA         -7.5678  -23.4695  -52.8981 C.3       17 UNK         0.1400 
     96 CB         -9.0026  -23.2139  -52.3927 C.3       17 UNK        -0.1800 
     97 C          -7.5250  -24.2417  -54.2386 C.2       17 UNK         0.5000 
     98 O          -8.4521  -24.1188  -55.0420 O.2       17 UNK        -0.5000 
     99 N          -6.4581  -25.0249  -54.4549 N.am      18 UNK        -0.5000 
    100 CA        -6.2394  -25.8500  -55.6394 C.3       18 UNK         0.1400 
    101 CB        -6.1164  -27.3220  -55.2129 C.3       18 UNK        -0.1800 
    102 C         -4.9857  -25.3919  -56.3981 C.2       18 UNK         0.5000 
    103 O         -5.0583  -25.1770  -57.6087 O.2       18 UNK        -0.5000 
    104 N         -3.8603  -25.2395  -55.6840 N.am      19 UNK        -0.5000 
    105 CA        -2.5782  -24.8130  -56.2601 C.3       19 UNK         0.1400 
    106 CB        -1.4333  -25.3358  -55.3811 C.3       19 UNK        -0.1800 
    107 C         -2.4703  -23.2835  -56.4226 C.2       19 UNK         0.5000 
    108 O         -1.6065  -22.8074  -57.1601 O.2       19 UNK        -0.5000 
    109 N         -3.3434  -22.5480  -55.7316 N.am      20 UNK        -0.5000 
    110 CA        -3.4959  -21.0999  -55.7589 C.3       20 UNK         0.1400 
    111 CB        -2.5065  -20.4501  -54.7715 C.3       20 UNK        -0.1800 
    112 C         -4.9529  -20.7893  -55.3853 C.2       20 UNK         0.5000 
    113 O         -5.7151  -21.7106  -55.0842 O.2       20 UNK        -0.5000 
    114 N         -5.3202  -19.5024  -55.3864 N.am      21 UNK        -0.5000 
    115 CA        -6.6376  -19.0352  -54.9408 C.3       21 UNK         0.1400 
    116 CB        -6.8114  -17.5632  -55.3455 C.3       21 UNK        -0.1800 
    117 C         -6.8556  -19.2056  -53.4226 C.2       21 UNK         0.5000 
    118 O         -7.9928  -19.3866  -52.9865 O.2       21 UNK        -0.5000 
    119 N         -5.7619  -19.1376  -52.6552 N.am      22 UNK        -0.5000 
    120 CA        -5.7354  -19.3115  -51.1985 C.3       22 UNK         0.1400 
    121 C         -5.8248  -20.8067  -50.7977 C.2       22 UNK         0.5000 
    122 N         -6.6064  -21.1401  -49.7806 N.am      22 UNK        -0.7600 
    123 O         -5.1516  -21.6613  -51.3668 O.2       22 UNK        -0.5000 
    124 C124       -4.4788  -18.6541  -50.5730 C.3       23 UNK        -0.0398 
    125 S125       -4.4258  -16.8585  -50.8929 S.3       23 UNK        -0.2404 
    126 C126       -3.0053  -16.7125  -52.0216 C.3       23 UNK        -0.0205 
    127 H127        4.4071  -16.1587  -46.5933 H         1 UNK         0.0600 
    128 H128        3.6630  -15.5684  -48.0792 H         1 UNK         0.0600 
    129 H129        2.7001  -16.4848  -46.9089 H         1 UNK         0.0600 
    130 H130        1.7329  -14.0406  -47.7329 H         1 UNK         0.3000 
    131 H131        1.0749  -12.7805  -45.3961 H         1 UNK         0.0600 
    132 H132       -0.1465  -11.1765  -46.7348 H         1 UNK         0.0800 
    133 H133        0.8896  -11.3876  -48.1165 H         1 UNK         0.0800 
    134 H134        1.0243  -13.2237  -49.6135 H         1 UNK         0.0800 
    135 H135       -0.5094  -12.6994  -50.2529 H         1 UNK         0.0800 
    136 H136       -2.2537  -14.3820  -50.8650 H         1 UNK         0.1150 
    137 H137       -0.8820  -18.3844  -51.5533 H         1 UNK         0.1150 
    138 H138        1.6106  -15.5871  -49.4682 H         1 UNK         0.1150 
    139 H139        2.1120  -18.1545  -51.3576 H         1 UNK         0.0800 
    140 H140        2.3643  -17.8162  -49.6645 H         1 UNK         0.0800 
    141 H141       -0.0558  -18.9099  -48.0482 H         1 UNK         0.0800 
    142 H142        1.6083  -19.3119  -47.7047 H         1 UNK         0.0800 
    143 H143        0.9860  -21.7905  -47.9469 H         1 UNK         0.0600 
    144 H144        0.5899  -20.1703  -45.6737 H         1 UNK         0.3000 
    145 H145       -0.2815  -22.8178  -43.3974 H         1 UNK         0.0600 
    146 H146        1.6187  -21.7591  -42.1949 H         1 UNK         0.0600 
    147 H147        2.1965  -22.7540  -43.5230 H         1 UNK         0.0600 
    148 H148        2.1706  -21.0048  -43.6892 H         1 UNK         0.0600 
    149 H149       -0.0623  -20.0229  -42.9761 H         1 UNK         0.3000 
    150 H150       -3.4368  -19.1609  -43.8801 H         1 UNK         0.0600 
    151 H151       -3.4879  -19.9425  -41.5145 H         1 UNK         0.0600 
    152 H152       -3.3194  -18.1953  -41.6008 H         1 UNK         0.0600 
    153 H153       -1.9226  -19.1981  -41.2166 H         1 UNK         0.0600 
    154 H154       -1.3186  -17.5150  -42.9926 H         1 UNK         0.3000 
    155 H155        0.1041  -16.7850  -46.2220 H         1 UNK         0.0600 
    156 H156       -1.7555  -15.2319  -45.8569 H         1 UNK         0.0600 
    157 H157       -0.2954  -14.5309  -45.1758 H         1 UNK         0.0600 
    158 H158       -1.5079  -15.2399  -44.1203 H         1 UNK         0.0600 
    159 H159        0.9343  -16.0133  -43.6163 H         1 UNK         0.3000 
    160 H160        3.0011  -18.8485  -42.8991 H         1 UNK         0.0600 
    161 H161        3.7474  -15.9316  -43.4169 H         1 UNK         0.0600 
    162 H162        4.4152  -17.3045  -44.2886 H         1 UNK         0.0600 
    163 H163        4.7082  -17.1316  -42.5648 H         1 UNK         0.0600 
    164 H164        2.2937  -16.3889  -41.5343 H         1 UNK         0.3000 
    165 H165       -0.4229  -17.7856  -39.6940 H         1 UNK         0.0600 
    166 H166        0.9637  -17.0488  -37.7733 H         1 UNK         0.0600 
    167 H167        1.6053  -18.5401  -38.4431 H         1 UNK         0.0600 
    168 H168        2.4051  -17.0115  -38.7894 H         1 UNK         0.0600 
    169 H169        0.8909  -15.2420  -39.6233 H         1 UNK         0.3000 
    170 H170       -0.8524  -13.6906  -42.2886 H         1 UNK         0.0600 
    171 H171       -2.5357  -13.5623  -40.4485 H         1 UNK         0.0600 
    172 H172       -1.2533  -13.3000  -39.2725 H         1 UNK         0.0600 
    173 H173       -1.5687  -12.0982  -40.5249 H         1 UNK         0.0600 
    174 H174        0.9324  -12.7115  -40.2720 H         1 UNK         0.3000 
    175 H175        3.0793  -12.0756  -40.9723 H         1 UNK         0.0600 
    176 H176        3.9318  -15.0216  -40.6343 H         1 UNK         0.0600 
    177 H177        4.6430  -13.6446  -39.8012 H         1 UNK         0.0600 
    178 H178        2.9988  -14.1182  -39.4463 H         1 UNK         0.0600 
    179 H179        3.8749  -13.4855  -43.3307 H         1 UNK         0.3000 
    180 H180        7.1737  -11.9412  -43.4428 H         1 UNK         0.0600 
    181 H181        5.9259  -14.6711  -44.0556 H         1 UNK         0.0600 
    182 H182        7.3035  -14.3673  -43.0100 H         1 UNK         0.0600 
    183 H183        7.4251  -14.0430  -44.7323 H         1 UNK         0.0600 
    184 H184        4.9637  -12.6931  -45.2694 H         1 UNK         0.3000 
    185 H185        4.3706   -9.3931  -46.2951 H         1 UNK         0.0600 
    186 H186        6.4980   -9.6456  -47.5739 H         1 UNK         0.0600 
    187 H187        6.1054  -11.3235  -47.9292 H         1 UNK         0.0600 
    188 H188        5.1107  -10.0211  -48.5830 H         1 UNK         0.0600 
    189 H189        3.7983  -11.9898  -47.4420 H         1 UNK         0.3000 
    190 H190       -1.9994  -20.1614  -46.7714 H         1 UNK         0.3000 
    191 H191       -3.7304  -21.0465  -48.7976 H         1 UNK         0.0600 
    192 H192       -4.3788  -20.4299  -45.8627 H         1 UNK         0.0600 
    193 H193       -5.5313  -20.4487  -47.1877 H         1 UNK         0.0600 
    194 H194       -4.2606  -19.2340  -47.1471 H         1 UNK         0.0600 
    195 H195       -2.8869  -22.6337  -45.6975 H         1 UNK         0.3000 
    196 H196       -4.5957  -24.8940  -45.9972 H         1 UNK         0.0600 
    197 H197       -3.1546  -25.8715  -44.2060 H         1 UNK         0.0600 
    198 H198       -3.6166  -24.2192  -43.8243 H         1 UNK         0.0600 
    199 H199       -1.9926  -24.5661  -44.4124 H         1 UNK         0.0600 
    200 H200       -1.1831  -24.3424  -46.9680 H         1 UNK         0.3000 
    201 H201       -0.7045  -26.9886  -47.9290 H         1 UNK         0.0600 
    202 H202        1.1249  -25.4760  -47.2552 H         1 UNK         0.0600 
    203 H203        0.7169  -24.3453  -48.5433 H         1 UNK         0.0600 
    204 H204        1.3343  -25.9462  -48.9351 H         1 UNK         0.0600 
    205 H205       -1.6020  -23.9400  -49.6421 H         1 UNK         0.3000 
    206 H206       -1.6538  -25.1865  -52.2347 H         1 UNK         0.0600 
    207 H207       -1.1446  -22.8010  -52.0187 H         1 UNK         0.0600 
    208 H208       -2.6389  -22.9688  -52.9302 H         1 UNK         0.0600 
    209 H209       -2.6907  -22.4868  -51.2389 H         1 UNK         0.0600 
    210 H210       -4.0759  -24.6684  -49.7452 H         1 UNK         0.3000 
    211 H211       -6.0830  -25.4567  -49.3508 H         1 UNK         0.0600 
    212 H212       -5.3335  -27.6754  -51.3266 H         1 UNK         0.0600 
    213 H213       -6.5207  -27.7894  -50.0324 H         1 UNK         0.0600 
    214 H214       -4.8201  -27.6026  -49.6414 H         1 UNK         0.0600 
    215 H215       -5.9408  -23.5112  -51.5708 H         1 UNK         0.3000 
    216 H216       -7.1262  -22.4941  -53.0970 H         1 UNK         0.0600 
    217 H217       -9.5661  -22.6142  -53.1082 H         1 UNK         0.0600 
    218 H218       -8.9944  -22.6654  -51.4507 H         1 UNK         0.0600 
    219 H219       -9.5527  -24.1424  -52.2392 H         1 UNK         0.0600 
    220 H220       -5.7415  -25.0740  -53.7376 H         1 UNK         0.3000 
    221 H221       -7.0845  -25.7699  -56.3260 H         1 UNK         0.0600 
    222 H222       -5.2967  -27.4751  -54.5096 H         1 UNK         0.0600 
    223 H223       -7.0325  -27.6672  -54.7333 H         1 UNK         0.0600 
    224 H224       -5.9368  -27.9657  -56.0749 H         1 UNK         0.0600 
    225 H225       -3.8751  -25.4337  -54.6866 H         1 UNK         0.3000 
    226 H226       -2.4702  -25.2601  -57.2506 H         1 UNK         0.0600 
    227 H227       -1.5293  -26.4050  -55.1908 H         1 UNK         0.0600 
    228 H228       -0.4694  -25.1758  -55.8657 H         1 UNK         0.0600 
    229 H229       -1.4016  -24.8200  -54.4235 H         1 UNK         0.0600 
    230 H230       -4.0790  -23.0195  -55.2196 H         1 UNK         0.3000 
    231 H231       -3.3126  -20.7324  -56.7705 H         1 UNK         0.0600 
    232 H232       -1.4823  -20.7671  -54.9687 H         1 UNK         0.0600 
    233 H233       -2.7416  -20.7062  -53.7377 H         1 UNK         0.0600 
    234 H234       -2.5255  -19.3630  -54.8516 H         1 UNK         0.0600 
    235 H235       -4.6570  -18.7948  -55.6674 H         1 UNK         0.3000 
    236 H236       -7.4025  -19.6232  -55.4529 H         1 UNK         0.0600 
    237 H237       -7.7937  -17.1913  -55.0510 H         1 UNK         0.0600 
    238 H238       -6.0640  -16.9244  -54.8731 H         1 UNK         0.0600 
    239 H239       -6.7283  -17.4378  -56.4252 H         1 UNK         0.0600 
    240 H240       -4.8691  -19.0221  -53.1063 H         1 UNK         0.3000 
    241 H241       -6.6110  -18.8029  -50.7892 H         1 UNK         0.0600 
    242 H242       -6.6247  -22.1015  -49.4800 H         1 UNK         0.3800 
    243 H243       -7.1822  -20.4617  -49.3078 H         1 UNK         0.3800 
    244 H244       -4.4849  -18.7831  -49.4909 H         1 UNK         0.0800 
    245 H245       -3.5648  -19.1326  -50.9296 H         1 UNK         0.0800 
    246 H246       -3.1990  -15.8936  -52.7160 H         1 UNK         0.0800 
    247 H247       -2.9099  -17.6086  -52.6362 H         1 UNK         0.0800 
@<TRIPOS>BOND
     1    1    2 1    
     2    1  127 1    
     3    1  128 1    
     4    1  129 1    
     5    2    3 2    
     6    2    4 am   BACKBONE|DICT|INTERRES
     7    4    5 1    
     8    4  130 1    
     9    5    6 1    
    10    5   65 1    
    11    5  131 1    
    12    6    7 1    
    13    6  132 1    
    14    6  133 1    
    15    7    8 1    
    16    8    9 1    
    17    8  134 1    
    18    8  135 1    
    19    9   10 ar   
    20    9   14 ar   
    21   10   11 ar   
    22   10  136 1    
    23   11   12 ar   
    24   11  126 1    
    25   12   13 ar   
    26   12  137 1    
    27   13   14 ar   
    28   13   15 1    
    29   14  138 1    
    30   15   16 1    
    31   15  139 1    
    32   15  140 1    
    33   16   17 1    
    34   17   18 1    
    35   17  141 1    
    36   17  142 1    
    37   18   19 1    
    38   18   67 1    
    39   18  143 1    
    40   19   20 am   BACKBONE|DICT|INTERRES
    41   19  144 1    
    42   20   21 2    
    43   20   22 1    
    44   22   23 1    
    45   22   24 1    
    46   22  145 1    
    47   23  146 1    
    48   23  147 1    
    49   23  148 1    
    50   24   25 am   BACKBONE|DICT|INTERRES
    51   24  149 1    
    52   25   26 2    
    53   25   27 1    
    54   27   28 1    
    55   27   29 1    
    56   27  150 1    
    57   28  151 1    
    58   28  152 1    
    59   28  153 1    
    60   29   30 am   BACKBONE|DICT|INTERRES
    61   29  154 1    
    62   30   31 2    
    63   30   32 1    
    64   32   33 1    
    65   32   34 1    
    66   32  155 1    
    67   33  156 1    
    68   33  157 1    
    69   33  158 1    
    70   34   35 am   BACKBONE|DICT|INTERRES
    71   34  159 1    
    72   35   36 2    
    73   35   37 1    
    74   37   38 1    
    75   37   39 1    
    76   37  160 1    
    77   38  161 1    
    78   38  162 1    
    79   38  163 1    
    80   39   40 am   BACKBONE|DICT|INTERRES
    81   39  164 1    
    82   40   41 2    
    83   40   42 1    
    84   42   43 1    
    85   42   44 1    
    86   42  165 1    
    87   43  166 1    
    88   43  167 1    
    89   43  168 1    
    90   44   45 am   BACKBONE|DICT|INTERRES
    91   44  169 1    
    92   45   46 2    
    93   45   47 1    
    94   47   48 1    
    95   47   49 1    
    96   47  170 1    
    97   48  171 1    
    98   48  172 1    
    99   48  173 1    
   100   49   50 am   BACKBONE|DICT|INTERRES
   101   49  174 1    
   102   50   51 2    
   103   50   52 1    
   104   52   53 1    
   105   52   54 1    
   106   52  175 1    
   107   53  176 1    
   108   53  177 1    
   109   53  178 1    
   110   54   55 am   BACKBONE|DICT|INTERRES
   111   54  179 1    
   112   55   56 2    
   113   55   57 1    
   114   57   58 1    
   115   57   59 1    
   116   57  180 1    
   117   58  181 1    
   118   58  182 1    
   119   58  183 1    
   120   59   60 am   BACKBONE|DICT|INTERRES
   121   59  184 1    
   122   60   61 2    
   123   60   62 1    
   124   62   63 1    
   125   62   64 1    
   126   62  185 1    
   127   63  186 1    
   128   63  187 1    
   129   63  188 1    
   130   64   65 am   BACKBONE|DICT|INTERRES
   131   64  189 1    
   132   65   66 2    
   133   67   68 2    
   134   67   69 am   BACKBONE|DICT|INTERRES
   135   69   70 1    
   136   69  190 1    
   137   70   71 1    
   138   70   72 1    
   139   70  191 1    
   140   71  192 1    
   141   71  193 1    
   142   71  194 1    
   143   72   73 2    
   144   72   74 am   BACKBONE|DICT|INTERRES
   145   74   75 1    
   146   74  195 1    
   147   75   76 1    
   148   75   77 1    
   149   75  196 1    
   150   76  197 1    
   151   76  198 1    
   152   76  199 1    
   153   77   78 2    
   154   77   79 am   BACKBONE|DICT|INTERRES
   155   79   80 1    
   156   79  200 1    
   157   80   81 1    
   158   80   82 1    
   159   80  201 1    
   160   81  202 1    
   161   81  203 1    
   162   81  204 1    
   163   82   83 2    
   164   82   84 am   BACKBONE|DICT|INTERRES
   165   84   85 1    
   166   84  205 1    
   167   85   86 1    
   168   85   87 1    
   169   85  206 1    
   170   86  207 1    
   171   86  208 1    
   172   86  209 1    
   173   87   88 2    
   174   87   89 am   BACKBONE|DICT|INTERRES
   175   89   90 1    
   176   89  210 1    
   177   90   91 1    
   178   90   92 1    
   179   90  211 1    
   180   91  212 1    
   181   91  213 1    
   182   91  214 1    
   183   92   93 2    
   184   92   94 am   BACKBONE|DICT|INTERRES
   185   94   95 1    
   186   94  215 1    
   187   95   96 1    
   188   95   97 1    
   189   95  216 1    
   190   96  217 1    
   191   96  218 1    
   192   96  219 1    
   193   97   98 2    
   194   97   99 am   BACKBONE|DICT|INTERRES
   195   99  100 1    
   196   99  220 1    
   197  100  101 1    
   198  100  102 1    
   199  100  221 1    
   200  101  222 1    
   201  101  223 1    
   202  101  224 1    
   203  102  103 2    
   204  102  104 am   BACKBONE|DICT|INTERRES
   205  104  105 1    
   206  104  225 1    
   207  105  106 1    
   208  105  107 1    
   209  105  226 1    
   210  106  227 1    
   211  106  228 1    
   212  106  229 1    
   213  107  108 2    
   214  107  109 am   BACKBONE|DICT|INTERRES
   215  109  110 1    
   216  109  230 1    
   217  110  111 1    
   218  110  112 1    
   219  110  231 1    
   220  111  232 1    
   221  111  233 1    
   222  111  234 1    
   223  112  113 2    
   224  112  114 am   BACKBONE|DICT|INTERRES
   225  114  115 1    
   226  114  235 1    
   227  115  116 1    
   228  115  117 1    
   229  115  236 1    
   230  116  237 1    
   231  116  238 1    
   232  116  239 1    
   233  117  118 2    
   234  117  119 am   BACKBONE|DICT|INTERRES
   235  119  120 1    
   236  119  240 1    
   237  120  121 1    
   238  120  124 1    
   239  120  241 1    
   240  121  122 am   BACKBONE|DICT|INTERRES
   241  121  123 2    
   242  122  242 1    
   243  122  243 1    
   244  124  125 1    
   245  124  244 1    
   246  124  245 1    
   247  125  126 1    
   248  126  246 1    
   249  126  247 1    
@<TRIPOS>SUBSTRUCTURE
     1 UNK         1 GROUP             0       ****    0 ROOT    
