@<TRIPOS>MOLECULE
3R540
247   249    1
SMALL
USER_CHARGES


@<TRIPOS>ATOM
      1 CA          1.8311  -12.0108  -47.0044 C.3       0 UNK        -0.1800 
      2 C           0.6244  -12.2316  -46.1060 C.2       0 UNK         0.5000 
      3 O           0.7795  -12.3516  -44.8910 O.2       0 UNK        -0.5000 
      4 N          -0.5788  -12.2831  -46.6922 N.am      1 UNK        -0.5000 
      5 CA         -1.8492  -12.4996  -45.9845 C.3       1 UNK         0.1400 
      6 C6         -3.0112  -12.8346  -46.9530 C.3       23 UNK        -0.0398 
      7 S7         -2.8301  -14.4813  -47.7210 S.3       23 UNK        -0.2404 
      8 C8         -2.0992  -14.0631  -49.3335 C.3       23 UNK        -0.0205 
      9 C9         -1.7893  -15.3075  -50.1537 C.ar      23 UNK        -0.0193 
     10 C10        -2.4786  -15.5644  -51.3420 C.ar      23 UNK        -0.1150 
     11 C11        -2.1506  -16.6732  -52.1284 C.ar      23 UNK        -0.0193 
     12 C12        -1.1369  -17.5398  -51.7071 C.ar      23 UNK        -0.1150 
     13 C13        -0.4613  -17.3139  -50.5030 C.ar      23 UNK        -0.0193 
     14 C14        -0.7826  -16.1853  -49.7424 C.ar      23 UNK        -0.1150 
     15 C15         0.6410  -18.2557  -50.0302 C.3       23 UNK        -0.0205 
     16 S16         0.1526  -20.0151  -50.0134 S.3       23 UNK        -0.2404 
     17 C17        -1.2924  -20.0074  -48.9000 C.3       23 UNK        -0.0398 
     18 CA         -1.4316  -21.3216  -48.0890 C.3       11 UNK         0.1400 
     19 N          -0.4096  -21.4680  -47.0432 N.am      11 UNK        -0.5000 
     20 C          -0.2542  -22.5587  -46.2755 C.2       10 UNK         0.5000 
     21 O          -0.9219  -23.5855  -46.4037 O.2       10 UNK        -0.5000 
     22 CA          0.7750  -22.4766  -45.1320 C.3       10 UNK         0.1400 
     23 CB          2.2088  -22.6537  -45.6537 C.3       10 UNK        -0.1800 
     24 N           0.6660  -21.2345  -44.3652 N.am      10 UNK        -0.5000 
     25 C          -0.4000  -20.8968  -43.6241 C.2       9 UNK         0.5000 
     26 O          -1.3790  -21.6245  -43.4680 O.2       9 UNK        -0.5000 
     27 CA         -0.4059  -19.4893  -42.9983 C.3       9 UNK         0.1400 
     28 CB          0.4036  -19.4570  -41.6939 C.3       9 UNK        -0.1800 
     29 N           0.0944  -18.4692  -43.9179 N.am      9 UNK        -0.5000 
     30 C          -0.4716  -18.1684  -45.0940 C.2       8 UNK         0.5000 
     31 O          -1.5223  -18.6635  -45.4968 O.2       8 UNK        -0.5000 
     32 CA          0.2966  -17.2037  -46.0064 C.3       8 UNK         0.1400 
     33 CB          0.0003  -15.7444  -45.6506 C.3       8 UNK        -0.1800 
     34 N           1.7389  -17.4414  -45.9887 N.am      8 UNK        -0.5000 
     35 C           2.3239  -18.5501  -46.4623 C.2       7 UNK         0.5000 
     36 O           1.7067  -19.4720  -46.9918 O.2       7 UNK        -0.5000 
     37 CA          3.8456  -18.6635  -46.2694 C.3       7 UNK         0.1400 
     38 CB          4.5887  -17.8442  -47.3351 C.3       7 UNK        -0.1800 
     39 N           4.2632  -18.2281  -44.9364 N.am      7 UNK        -0.5000 
     40 C           3.9386  -18.8617  -43.8001 C.2       6 UNK         0.5000 
     41 O           3.3130  -19.9213  -43.7645 O.2       6 UNK        -0.5000 
     42 CA          4.3346  -18.1650  -42.4834 C.3       6 UNK         0.1400 
     43 CB          5.7554  -18.5699  -42.0641 C.3       6 UNK        -0.1800 
     44 N           4.2445  -16.7017  -42.5515 N.am      6 UNK        -0.5000 
     45 C           3.1114  -16.0222  -42.7746 C.2       5 UNK         0.5000 
     46 O           2.0209  -16.5660  -42.9592 O.2       5 UNK        -0.5000 
     47 CA          3.2405  -14.4903  -42.8789 C.3       5 UNK         0.1400 
     48 CB          3.7321  -14.0984  -44.2817 C.3       5 UNK        -0.1800 
     49 N           1.9813  -13.7911  -42.6254 N.am      5 UNK        -0.5000 
     50 C           1.3163  -13.7741  -41.4619 C.2       4 UNK         0.5000 
     51 O           1.7080  -14.3368  -40.4371 O.2       4 UNK        -0.5000 
     52 CA          0.0129  -12.9472  -41.4555 C.3       4 UNK         0.1400 
     53 CB         -0.6308  -12.8145  -40.0595 C.3       4 UNK        -0.1800 
     54 N           0.2075  -11.6354  -42.0808 N.am      4 UNK        -0.5000 
     55 C           1.0319  -10.6530  -41.6850 C.2       3 UNK         0.5000 
     56 O           1.6577  -10.6598  -40.6244 O.2       3 UNK        -0.5000 
     57 CA          1.2186   -9.4695  -42.6542 C.3       3 UNK         0.1400 
     58 CB          2.5762   -9.5807  -43.3676 C.3       3 UNK        -0.1800 
     59 N           0.1662   -9.3947  -43.6687 N.am      3 UNK        -0.5000 
     60 C          -1.0174   -8.7892  -43.5028 C.2       2 UNK         0.5000 
     61 O          -1.3440   -8.1928  -42.4762 O.2       2 UNK        -0.5000 
     62 CA         -2.0052   -8.8690  -44.6839 C.3       2 UNK         0.1400 
     63 CB         -1.8440   -7.6485  -45.6029 C.3       2 UNK        -0.1800 
     64 N          -1.8412  -10.0901  -45.4771 N.am      2 UNK        -0.5000 
     65 C          -2.2143  -11.3120  -45.0696 C.2       1 UNK         0.5000 
     66 O          -2.7847  -11.5273  -44.0001 O.2       1 UNK        -0.5000 
     67 C          -2.8604  -21.4562  -47.5200 C.2       11 UNK         0.5000 
     68 O          -3.6762  -22.1646  -48.1070 O.2       11 UNK        -0.5000 
     69 N          -3.1333  -20.8101  -46.3779 N.am      12 UNK        -0.5000 
     70 CA         -4.4156  -20.8742  -45.6753 C.3       12 UNK         0.1400 
     71 CB         -4.4448  -19.8173  -44.5610 C.3       12 UNK        -0.1800 
     72 C          -4.7299  -22.2706  -45.1073 C.2       12 UNK         0.5000 
     73 O          -5.8849  -22.6935  -45.1590 O.2       12 UNK        -0.5000 
     74 N          -3.7078  -22.9605  -44.5823 N.am      13 UNK        -0.5000 
     75 CA         -3.8141  -24.3183  -44.0489 C.3       13 UNK         0.1400 
     76 CB         -2.5499  -24.6617  -43.2459 C.3       13 UNK        -0.1800 
     77 C          -4.0642  -25.3673  -45.1459 C.2       13 UNK         0.5000 
     78 O          -4.9091  -26.2445  -44.9614 O.2       13 UNK        -0.5000 
     79 N          -3.3314  -25.2602  -46.2629 N.am      14 UNK        -0.5000 
     80 CA         -3.4739  -26.1387  -47.4240 C.3       14 UNK         0.1400 
     81 CB         -2.2326  -26.0073  -48.3156 C.3       14 UNK        -0.1800 
     82 C          -4.7701  -25.8712  -48.2121 C.2       14 UNK         0.5000 
     83 O          -5.4238  -26.8246  -48.6379 O.2       14 UNK        -0.5000 
     84 N          -5.1361  -24.5896  -48.3581 N.am      15 UNK        -0.5000 
     85 CA         -6.3566  -24.0741  -48.9792 C.3       15 UNK         0.1400 
     86 CB         -7.5724  -24.3461  -48.0649 C.3       15 UNK        -0.1800 
     87 C          -6.5380  -24.5795  -50.4251 C.2       15 UNK         0.5000 
     88 O          -5.8427  -24.1101  -51.3257 O.2       15 UNK        -0.5000 
     89 N          -7.4655  -25.5238  -50.6240 N.am      16 UNK        -0.5000 
     90 CA         -7.7651  -26.1428  -51.9132 C.3       16 UNK         0.1400 
     91 CB         -9.1455  -26.8128  -51.8270 C.3       16 UNK        -0.1800 
     92 C          -6.7020  -27.1594  -52.3744 C.2       16 UNK         0.5000 
     93 O          -6.6606  -27.4712  -53.5655 O.2       16 UNK        -0.5000 
     94 N          -5.8818  -27.6789  -51.4472 N.am      17 UNK        -0.5000 
     95 CA         -4.8625  -28.6891  -51.7395 C.3       17 UNK         0.1400 
     96 CB         -4.3893  -29.3491  -50.4348 C.3       17 UNK        -0.1800 
     97 C          -3.6655  -28.1220  -52.5218 C.2       17 UNK         0.5000 
     98 O          -3.1629  -28.7944  -53.4233 O.2       17 UNK        -0.5000 
     99 N          -3.2388  -26.9026  -52.1722 N.am      18 UNK        -0.5000 
    100 CA        -2.1119  -26.1892  -52.7650 C.3       18 UNK         0.1400 
    101 CB        -0.7817  -26.8989  -52.4337 C.3       18 UNK        -0.1800 
    102 C         -2.0809  -24.7548  -52.2224 C.2       18 UNK         0.5000 
    103 O         -2.5843  -24.5020  -51.1276 O.2       18 UNK        -0.5000 
    104 N         -1.4365  -23.8626  -52.9762 N.am      19 UNK        -0.5000 
    105 CA        -1.0801  -22.4995  -52.6005 C.3       19 UNK         0.1400 
    106 CB        -2.3200  -21.5877  -52.5566 C.3       19 UNK        -0.1800 
    107 C         -0.0351  -22.0014  -53.6120 C.2       19 UNK         0.5000 
    108 O          0.1586  -22.6354  -54.6538 O.2       19 UNK        -0.5000 
    109 N          0.6289  -20.8851  -53.2891 N.am      20 UNK        -0.5000 
    110 CA         1.7607  -20.3322  -54.0434 C.3       20 UNK         0.1400 
    111 CB         2.3891  -19.1924  -53.2286 C.3       20 UNK        -0.1800 
    112 C          1.4356  -19.8446  -55.4709 C.2       20 UNK         0.5000 
    113 O          2.3507  -19.7504  -56.2905 O.2       20 UNK        -0.5000 
    114 N          0.1618  -19.5398  -55.7465 N.am      21 UNK        -0.5000 
    115 CA        -0.3158  -19.0859  -57.0547 C.3       21 UNK         0.1400 
    116 CB        -0.0022  -17.5910  -57.2532 C.3       21 UNK        -0.1800 
    117 C         -1.8172  -19.3520  -57.2287 C.2       21 UNK         0.5000 
    118 O         -2.2448  -19.7422  -58.3150 O.2       21 UNK        -0.5000 
    119 N         -2.5881  -19.1420  -56.1553 N.am      22 UNK        -0.5000 
    120 CA        -4.0525  -19.2896  -56.1062 C.3       22 UNK         0.1400 
    121 C         -4.5786  -20.7522  -55.9764 C.2       22 UNK         0.5000 
    122 N         -3.7362  -21.7756  -56.0438 N.am      22 UNK        -0.7600 
    123 O         -5.7800  -20.9675  -55.8409 O.2       22 UNK        -0.5000 
    124 C124       -4.6802  -18.3142  -55.0719 C.3       23 UNK        -0.0398 
    125 S125       -3.9316  -18.3841  -53.4037 S.3       23 UNK        -0.2404 
    126 C126       -2.8631  -16.9093  -53.4516 C.3       23 UNK        -0.0205 
    127 H127        2.4117  -11.1596  -46.6491 H         1 UNK         0.0600 
    128 H128        2.4725  -12.8916  -46.9913 H         1 UNK         0.0600 
    129 H129        1.5381  -11.8173  -48.0364 H         1 UNK         0.0600 
    130 H130       -0.6444  -12.1745  -47.6931 H         1 UNK         0.3000 
    131 H131       -1.7124  -13.3534  -45.3186 H         1 UNK         0.0600 
    132 H132       -3.1132  -12.0692  -47.7242 H         1 UNK         0.0800 
    133 H133       -3.9617  -12.8474  -46.4161 H         1 UNK         0.0800 
    134 H134       -2.7797  -13.4040  -49.8750 H         1 UNK         0.0800 
    135 H135       -1.1754  -13.5039  -49.1856 H         1 UNK         0.0800 
    136 H136       -3.2549  -14.8863  -51.6678 H         1 UNK         0.1150 
    137 H137       -0.8781  -18.3929  -52.3165 H         1 UNK         0.1150 
    138 H138       -0.2458  -15.9772  -48.8286 H         1 UNK         0.1150 
    139 H139        1.5082  -18.1319  -50.6770 H         1 UNK         0.0800 
    140 H140        0.9772  -17.9780  -49.0333 H         1 UNK         0.0800 
    141 H141       -1.2369  -19.1500  -48.2285 H         1 UNK         0.0800 
    142 H142       -2.1692  -19.8435  -49.5300 H         1 UNK         0.0800 
    143 H143       -1.2985  -22.1564  -48.7812 H         1 UNK         0.0600 
    144 H144        0.2240  -20.6833  -46.9134 H         1 UNK         0.3000 
    145 H145        0.5694  -23.3020  -44.4472 H         1 UNK         0.0600 
    146 H146        2.9286  -22.6499  -44.8350 H         1 UNK         0.0600 
    147 H147        2.3160  -23.6041  -46.1778 H         1 UNK         0.0600 
    148 H148        2.4915  -21.8646  -46.3492 H         1 UNK         0.0600 
    149 H149        1.4531  -20.5968  -44.4116 H         1 UNK         0.3000 
    150 H150       -1.4408  -19.2364  -42.7592 H         1 UNK         0.0600 
    151 H151       -0.0017  -20.1630  -40.9681 H         1 UNK         0.0600 
    152 H152        0.3772  -18.4673  -41.2373 H         1 UNK         0.0600 
    153 H153        1.4475  -19.7212  -41.8587 H         1 UNK         0.0600 
    154 H154        0.9264  -17.9578  -43.6346 H         1 UNK         0.3000 
    155 H155       -0.0638  -17.3779  -47.0199 H         1 UNK         0.0600 
    156 H156        0.3977  -15.0773  -46.4137 H         1 UNK         0.0600 
    157 H157        0.4245  -15.4542  -44.6902 H         1 UNK         0.0600 
    158 H158       -1.0746  -15.5766  -45.5944 H         1 UNK         0.0600 
    159 H159        2.3051  -16.7598  -45.5079 H         1 UNK         0.3000 
    160 H160        4.1212  -19.7135  -46.3893 H         1 UNK         0.0600 
    161 H161        4.3755  -16.7779  -47.2490 H         1 UNK         0.0600 
    162 H162        4.2981  -18.1571  -48.3391 H         1 UNK         0.0600 
    163 H163        5.6674  -17.9785  -47.2536 H         1 UNK         0.0600 
    164 H164        4.7874  -17.3681  -44.8764 H         1 UNK         0.3000 
    165 H165        3.6419  -18.5047  -41.7108 H         1 UNK         0.0600 
    166 H166        6.5012  -18.2300  -42.7837 H         1 UNK         0.0600 
    167 H167        6.0132  -18.1534  -41.0901 H         1 UNK         0.0600 
    168 H168        5.8448  -19.6543  -41.9860 H         1 UNK         0.0600 
    169 H169        5.1060  -16.1916  -42.4191 H         1 UNK         0.3000 
    170 H170        3.9681  -14.1517  -42.1388 H         1 UNK         0.0600 
    171 H171        4.7014  -14.5465  -44.5028 H         1 UNK         0.0600 
    172 H172        3.0344  -14.4227  -45.0548 H         1 UNK         0.0600 
    173 H173        3.8478  -13.0179  -44.3711 H         1 UNK         0.0600 
    174 H174        1.5749  -13.2969  -43.4153 H         1 UNK         0.3000 
    175 H175       -0.6917  -13.4853  -42.0915 H         1 UNK         0.0600 
    176 H176       -1.5497  -12.2299  -40.1045 H         1 UNK         0.0600 
    177 H177       -0.8889  -13.7947  -39.6571 H         1 UNK         0.0600 
    178 H178        0.0375  -12.3353  -39.3440 H         1 UNK         0.0600 
    179 H179       -0.2037  -11.5373  -42.9991 H         1 UNK         0.3000 
    180 H180        1.2178   -8.5514  -42.0629 H         1 UNK         0.0600 
    181 H181        2.7438   -8.7334  -44.0326 H         1 UNK         0.0600 
    182 H182        3.3958   -9.5947  -42.6479 H         1 UNK         0.0600 
    183 H183        2.6472  -10.4933  -43.9607 H         1 UNK         0.0600 
    184 H184        0.3435   -9.8807  -44.5353 H         1 UNK         0.3000 
    185 H185       -3.0170   -8.8548  -44.2727 H         1 UNK         0.0600 
    186 H186       -2.5812   -7.6594  -46.4059 H         1 UNK         0.0600 
    187 H187       -1.9845   -6.7204  -45.0471 H         1 UNK         0.0600 
    188 H188       -0.8527   -7.6126  -46.0563 H         1 UNK         0.0600 
    189 H189       -1.3752   -9.9972  -46.3680 H         1 UNK         0.3000 
    190 H190       -2.4277  -20.1964  -45.9757 H         1 UNK         0.3000 
    191 H191       -5.2000  -20.6276  -46.3938 H         1 UNK         0.0600 
    192 H192       -5.3993  -19.8308  -44.0334 H         1 UNK         0.0600 
    193 H193       -4.3110  -18.8141  -44.9660 H         1 UNK         0.0600 
    194 H194       -3.6591  -19.9882  -43.8247 H         1 UNK         0.0600 
    195 H195       -2.7992  -22.5129  -44.5080 H         1 UNK         0.3000 
    196 H196       -4.6639  -24.3457  -43.3635 H         1 UNK         0.0600 
    197 H197       -2.6053  -25.6732  -42.8418 H         1 UNK         0.0600 
    198 H198       -2.4230  -23.9822  -42.4030 H         1 UNK         0.0600 
    199 H199       -1.6521  -24.6015  -43.8618 H         1 UNK         0.0600 
    200 H200       -2.6223  -24.5341  -46.3219 H         1 UNK         0.3000 
    201 H201       -3.5172  -27.1706  -47.0691 H         1 UNK         0.0600 
    202 H202       -1.3370  -26.3438  -47.7935 H         1 UNK         0.0600 
    203 H203       -2.0688  -24.9724  -48.6174 H         1 UNK         0.0600 
    204 H204       -2.3291  -26.6083  -49.2205 H         1 UNK         0.0600 
    205 H205       -4.4895  -23.8664  -48.0533 H         1 UNK         0.3000 
    206 H206       -6.2330  -22.9923  -49.0473 H         1 UNK         0.0600 
    207 H207       -7.4457  -23.8566  -47.0995 H         1 UNK         0.0600 
    208 H208       -8.4911  -23.9541  -48.5031 H         1 UNK         0.0600 
    209 H209       -7.7190  -25.4094  -47.8727 H         1 UNK         0.0600 
    210 H210       -7.9704  -25.8753  -49.8234 H         1 UNK         0.3000 
    211 H211       -7.8156  -25.3570  -52.6700 H         1 UNK         0.0600 
    212 H212       -9.1620  -27.6049  -51.0772 H         1 UNK         0.0600 
    213 H213       -9.4243  -27.2595  -52.7823 H         1 UNK         0.0600 
    214 H214       -9.9201  -26.0899  -51.5703 H         1 UNK         0.0600 
    215 H215       -5.9483  -27.3607  -50.4846 H         1 UNK         0.3000 
    216 H216       -5.3241  -29.4651  -52.3541 H         1 UNK         0.0600 
    217 H217       -3.7088  -30.1754  -50.6437 H         1 UNK         0.0600 
    218 H218       -5.2281  -29.7531  -49.8677 H         1 UNK         0.0600 
    219 H219       -3.8576  -28.6457  -49.7940 H         1 UNK         0.0600 
    220 H220       -3.7222  -26.3849  -51.4482 H         1 UNK         0.3000 
    221 H221       -2.2522  -26.1513  -53.8472 H         1 UNK         0.0600 
    222 H222       -0.6443  -27.0050  -51.3568 H         1 UNK         0.0600 
    223 H223       -0.7297  -27.8930  -52.8766 H         1 UNK         0.0600 
    224 H224        0.0706  -26.3376  -52.8184 H         1 UNK         0.0600 
    225 H225       -1.0267  -24.1445  -53.8595 H         1 UNK         0.3000 
    226 H226       -0.6133  -22.5255  -51.6140 H         1 UNK         0.0600 
    227 H227       -2.0500  -20.5690  -52.2799 H         1 UNK         0.0600 
    228 H228       -2.8230  -21.5450  -53.5205 H         1 UNK         0.0600 
    229 H229       -3.0450  -21.9323  -51.8191 H         1 UNK         0.0600 
    230 H230        0.4292  -20.4450  -52.4006 H         1 UNK         0.3000 
    231 H231        2.5050  -21.1252  -54.1415 H         1 UNK         0.0600 
    232 H232        3.2653  -18.7849  -53.7348 H         1 UNK         0.0600 
    233 H233        2.7178  -19.5422  -52.2499 H         1 UNK         0.0600 
    234 H234        1.6863  -18.3717  -53.0812 H         1 UNK         0.0600 
    235 H235       -0.5314  -19.7139  -55.0359 H         1 UNK         0.3000 
    236 H236        0.1981  -19.6556  -57.8323 H         1 UNK         0.0600 
    237 H237       -0.4504  -16.9788  -56.4699 H         1 UNK         0.0600 
    238 H238        1.0719  -17.4057  -57.2479 H         1 UNK         0.0600 
    239 H239       -0.3855  -17.2345  -58.2102 H         1 UNK         0.0600 
    240 H240       -2.1712  -18.8033  -55.3036 H         1 UNK         0.3000 
    241 H241       -4.4316  -18.9696  -57.0788 H         1 UNK         0.0600 
    242 H242       -4.0964  -22.7138  -55.9736 H         1 UNK         0.3800 
    243 H243       -2.7546  -21.6247  -56.2058 H         1 UNK         0.3800 
    244 H244       -5.7535  -18.4844  -54.9740 H         1 UNK         0.0800 
    245 H245       -4.5948  -17.2953  -55.4514 H         1 UNK         0.0800 
    246 H246       -2.1195  -17.0135  -54.2421 H         1 UNK         0.0800 
    247 H247       -3.4685  -16.0402  -53.7140 H         1 UNK         0.0800 
@<TRIPOS>BOND
     1    1    2 1    
     2    1  127 1    
     3    1  128 1    
     4    1  129 1    
     5    2    3 2    
     6    2    4 am   BACKBONE|DICT|INTERRES
     7    4    5 1    
     8    4  130 1    
     9    5    6 1    
    10    5   65 1    
    11    5  131 1    
    12    6    7 1    
    13    6  132 1    
    14    6  133 1    
    15    7    8 1    
    16    8    9 1    
    17    8  134 1    
    18    8  135 1    
    19    9   10 ar   
    20    9   14 ar   
    21   10   11 ar   
    22   10  136 1    
    23   11   12 ar   
    24   11  126 1    
    25   12   13 ar   
    26   12  137 1    
    27   13   14 ar   
    28   13   15 1    
    29   14  138 1    
    30   15   16 1    
    31   15  139 1    
    32   15  140 1    
    33   16   17 1    
    34   17   18 1    
    35   17  141 1    
    36   17  142 1    
    37   18   19 1    
    38   18   67 1    
    39   18  143 1    
    40   19   20 am   BACKBONE|DICT|INTERRES
    41   19  144 1    
    42   20   21 2    
    43   20   22 1    
    44   22   23 1    
    45   22   24 1    
    46   22  145 1    
    47   23  146 1    
    48   23  147 1    
    49   23  148 1    
    50   24   25 am   BACKBONE|DICT|INTERRES
    51   24  149 1    
    52   25   26 2    
    53   25   27 1    
    54   27   28 1    
    55   27   29 1    
    56   27  150 1    
    57   28  151 1    
    58   28  152 1    
    59   28  153 1    
    60   29   30 am   BACKBONE|DICT|INTERRES
    61   29  154 1    
    62   30   31 2    
    63   30   32 1    
    64   32   33 1    
    65   32   34 1    
    66   32  155 1    
    67   33  156 1    
    68   33  157 1    
    69   33  158 1    
    70   34   35 am   BACKBONE|DICT|INTERRES
    71   34  159 1    
    72   35   36 2    
    73   35   37 1    
    74   37   38 1    
    75   37   39 1    
    76   37  160 1    
    77   38  161 1    
    78   38  162 1    
    79   38  163 1    
    80   39   40 am   BACKBONE|DICT|INTERRES
    81   39  164 1    
    82   40   41 2    
    83   40   42 1    
    84   42   43 1    
    85   42   44 1    
    86   42  165 1    
    87   43  166 1    
    88   43  167 1    
    89   43  168 1    
    90   44   45 am   BACKBONE|DICT|INTERRES
    91   44  169 1    
    92   45   46 2    
    93   45   47 1    
    94   47   48 1    
    95   47   49 1    
    96   47  170 1    
    97   48  171 1    
    98   48  172 1    
    99   48  173 1    
   100   49   50 am   BACKBONE|DICT|INTERRES
   101   49  174 1    
   102   50   51 2    
   103   50   52 1    
   104   52   53 1    
   105   52   54 1    
   106   52  175 1    
   107   53  176 1    
   108   53  177 1    
   109   53  178 1    
   110   54   55 am   BACKBONE|DICT|INTERRES
   111   54  179 1    
   112   55   56 2    
   113   55   57 1    
   114   57   58 1    
   115   57   59 1    
   116   57  180 1    
   117   58  181 1    
   118   58  182 1    
   119   58  183 1    
   120   59   60 am   BACKBONE|DICT|INTERRES
   121   59  184 1    
   122   60   61 2    
   123   60   62 1    
   124   62   63 1    
   125   62   64 1    
   126   62  185 1    
   127   63  186 1    
   128   63  187 1    
   129   63  188 1    
   130   64   65 am   BACKBONE|DICT|INTERRES
   131   64  189 1    
   132   65   66 2    
   133   67   68 2    
   134   67   69 am   BACKBONE|DICT|INTERRES
   135   69   70 1    
   136   69  190 1    
   137   70   71 1    
   138   70   72 1    
   139   70  191 1    
   140   71  192 1    
   141   71  193 1    
   142   71  194 1    
   143   72   73 2    
   144   72   74 am   BACKBONE|DICT|INTERRES
   145   74   75 1    
   146   74  195 1    
   147   75   76 1    
   148   75   77 1    
   149   75  196 1    
   150   76  197 1    
   151   76  198 1    
   152   76  199 1    
   153   77   78 2    
   154   77   79 am   BACKBONE|DICT|INTERRES
   155   79   80 1    
   156   79  200 1    
   157   80   81 1    
   158   80   82 1    
   159   80  201 1    
   160   81  202 1    
   161   81  203 1    
   162   81  204 1    
   163   82   83 2    
   164   82   84 am   BACKBONE|DICT|INTERRES
   165   84   85 1    
   166   84  205 1    
   167   85   86 1    
   168   85   87 1    
   169   85  206 1    
   170   86  207 1    
   171   86  208 1    
   172   86  209 1    
   173   87   88 2    
   174   87   89 am   BACKBONE|DICT|INTERRES
   175   89   90 1    
   176   89  210 1    
   177   90   91 1    
   178   90   92 1    
   179   90  211 1    
   180   91  212 1    
   181   91  213 1    
   182   91  214 1    
   183   92   93 2    
   184   92   94 am   BACKBONE|DICT|INTERRES
   185   94   95 1    
   186   94  215 1    
   187   95   96 1    
   188   95   97 1    
   189   95  216 1    
   190   96  217 1    
   191   96  218 1    
   192   96  219 1    
   193   97   98 2    
   194   97   99 am   BACKBONE|DICT|INTERRES
   195   99  100 1    
   196   99  220 1    
   197  100  101 1    
   198  100  102 1    
   199  100  221 1    
   200  101  222 1    
   201  101  223 1    
   202  101  224 1    
   203  102  103 2    
   204  102  104 am   BACKBONE|DICT|INTERRES
   205  104  105 1    
   206  104  225 1    
   207  105  106 1    
   208  105  107 1    
   209  105  226 1    
   210  106  227 1    
   211  106  228 1    
   212  106  229 1    
   213  107  108 2    
   214  107  109 am   BACKBONE|DICT|INTERRES
   215  109  110 1    
   216  109  230 1    
   217  110  111 1    
   218  110  112 1    
   219  110  231 1    
   220  111  232 1    
   221  111  233 1    
   222  111  234 1    
   223  112  113 2    
   224  112  114 am   BACKBONE|DICT|INTERRES
   225  114  115 1    
   226  114  235 1    
   227  115  116 1    
   228  115  117 1    
   229  115  236 1    
   230  116  237 1    
   231  116  238 1    
   232  116  239 1    
   233  117  118 2    
   234  117  119 am   BACKBONE|DICT|INTERRES
   235  119  120 1    
   236  119  240 1    
   237  120  121 1    
   238  120  124 1    
   239  120  241 1    
   240  121  122 am   BACKBONE|DICT|INTERRES
   241  121  123 2    
   242  122  242 1    
   243  122  243 1    
   244  124  125 1    
   245  124  244 1    
   246  124  245 1    
   247  125  126 1    
   248  126  246 1    
   249  126  247 1    
@<TRIPOS>SUBSTRUCTURE
     1 UNK         1 GROUP             0       ****    0 ROOT    
