@<TRIPOS>MOLECULE
3R540
247   249    1
SMALL
USER_CHARGES


@<TRIPOS>ATOM
      1 CA         -0.6284  -10.6091  -46.7448 C.3       0 UNK        -0.1800 
      2 C           0.7981  -10.6903  -47.2688 C.2       0 UNK         0.5000 
      3 O           1.6308   -9.8568  -46.9129 O.2       0 UNK        -0.5000 
      4 N           1.0860  -11.7003  -48.1007 N.am      1 UNK        -0.5000 
      5 CA          2.4080  -11.9802  -48.6836 C.3       1 UNK         0.1400 
      6 C6          2.3177  -13.0200  -49.8297 C.3       23 UNK        -0.0398 
      7 S7          1.5350  -14.6009  -49.3468 S.3       23 UNK        -0.2404 
      8 C8          1.5660  -15.4718  -50.9413 C.3       23 UNK        -0.0205 
      9 C9          0.8838  -16.8262  -50.8413 C.ar      23 UNK        -0.0193 
     10 C10        -0.4913  -16.9376  -51.0682 C.ar      23 UNK        -0.1150 
     11 C11        -1.1245  -18.1806  -50.9859 C.ar      23 UNK        -0.0193 
     12 C12        -0.3735  -19.3146  -50.6648 C.ar      23 UNK        -0.1150 
     13 C13         1.0028  -19.2185  -50.4413 C.ar      23 UNK        -0.0193 
     14 C14         1.6269  -17.9703  -50.5346 C.ar      23 UNK        -0.1150 
     15 C15         1.8095  -20.4726  -50.1284 C.3       23 UNK        -0.0205 
     16 S16         2.7289  -20.3859  -48.5551 S.3       23 UNK        -0.2404 
     17 C17         1.4463  -19.9342  -47.3395 C.3       23 UNK        -0.0398 
     18 CA          0.6693  -21.1521  -46.7754 C.3       11 UNK         0.1400 
     19 N           0.3425  -20.9871  -45.3570 N.am      11 UNK        -0.5000 
     20 C          -0.2351  -21.9128  -44.5779 C.2       10 UNK         0.5000 
     21 O          -0.4933  -23.0577  -44.9487 O.2       10 UNK        -0.5000 
     22 CA         -0.6521  -21.4581  -43.1667 C.3       10 UNK         0.1400 
     23 CB          0.5264  -21.5342  -42.1846 C.3       10 UNK        -0.1800 
     24 N          -1.2069  -20.1029  -43.1750 N.am      10 UNK        -0.5000 
     25 C          -2.3681  -19.7717  -43.7584 C.2       9 UNK         0.5000 
     26 O          -3.1295  -20.5887  -44.2749 O.2       9 UNK        -0.5000 
     27 CA         -2.7061  -18.2733  -43.8301 C.3       9 UNK         0.1400 
     28 CB         -3.3924  -17.7997  -42.5400 C.3       9 UNK        -0.1800 
     29 N          -1.5174  -17.4611  -44.0973 N.am      9 UNK        -0.5000 
     30 C          -0.8963  -17.4238  -45.2861 C.2       8 UNK         0.5000 
     31 O          -1.2815  -18.0525  -46.2705 O.2       8 UNK        -0.5000 
     32 CA          0.3870  -16.5788  -45.3957 C.3       8 UNK         0.1400 
     33 CB          0.0361  -15.1394  -45.7969 C.3       8 UNK        -0.1800 
     34 N           1.1903  -16.5646  -44.1715 N.am      8 UNK        -0.5000 
     35 C           1.7162  -17.6459  -43.5806 C.2       7 UNK         0.5000 
     36 O           1.6308  -18.7811  -44.0464 O.2       7 UNK        -0.5000 
     37 CA          2.3851  -17.4432  -42.2069 C.3       7 UNK         0.1400 
     38 CB          3.8910  -17.1896  -42.3559 C.3       7 UNK        -0.1800 
     39 N           1.7887  -16.3715  -41.4042 N.am      7 UNK        -0.5000 
     40 C           0.5048  -16.3244  -41.0168 C.2       6 UNK         0.5000 
     41 O          -0.3254  -17.1763  -41.3383 O.2       6 UNK        -0.5000 
     42 CA          0.0777  -15.1249  -40.1420 C.3       6 UNK         0.1400 
     43 CB         -1.2335  -15.3818  -39.3708 C.3       6 UNK        -0.1800 
     44 N           1.1334  -14.6627  -39.2354 N.am      6 UNK        -0.5000 
     45 C           1.7710  -15.3767  -38.2923 C.2       5 UNK         0.5000 
     46 O           1.4656  -16.5309  -37.9881 O.2       5 UNK        -0.5000 
     47 CA          2.9556  -14.6901  -37.5710 C.3       5 UNK         0.1400 
     48 CB          4.0830  -15.6851  -37.2233 C.3       5 UNK        -0.1800 
     49 N           3.5016  -13.5252  -38.2824 N.am      5 UNK        -0.5000 
     50 C           4.0389  -13.5036  -39.5108 C.2       4 UNK         0.5000 
     51 O           4.1730  -14.4964  -40.2294 O.2       4 UNK        -0.5000 
     52 CA          4.4262  -12.1154  -40.0522 C.3       4 UNK         0.1400 
     53 CB          5.9250  -12.0538  -40.3855 C.3       4 UNK        -0.1800 
     54 N           3.6547  -11.7729  -41.2470 N.am      4 UNK        -0.5000 
     55 C           2.3169  -11.7148  -41.3308 C.2       3 UNK         0.5000 
     56 O           1.5616  -11.8867  -40.3723 O.2       3 UNK        -0.5000 
     57 CA          1.7180  -11.4360  -42.7240 C.3       3 UNK         0.1400 
     58 CB          1.3908   -9.9437  -42.8822 C.3       3 UNK        -0.1800 
     59 N           2.5841  -11.8548  -43.8301 N.am      3 UNK        -0.5000 
     60 C           2.8941  -13.1272  -44.1103 C.2       2 UNK         0.5000 
     61 O           2.4489  -14.0883  -43.4827 O.2       2 UNK        -0.5000 
     62 CA          3.7785  -13.3398  -45.3464 C.3       2 UNK         0.1400 
     63 CB          4.2468  -14.7950  -45.5341 C.3       2 UNK        -0.1800 
     64 N           2.9981  -12.9188  -46.4990 N.am      2 UNK        -0.5000 
     65 C           3.4665  -12.3912  -47.6332 C.2       1 UNK         0.5000 
     66 O           4.6630  -12.2133  -47.8657 O.2       1 UNK        -0.5000 
     67 C          -0.5924  -21.4524  -47.6101 C.2       11 UNK         0.5000 
     68 O          -0.6034  -22.4221  -48.3663 O.2       11 UNK        -0.5000 
     69 N          -1.6492  -20.6490  -47.4200 N.am      12 UNK        -0.5000 
     70 CA         -2.9509  -20.8182  -48.0649 C.3       12 UNK         0.1400 
     71 CB         -3.8516  -19.6184  -47.7374 C.3       12 UNK        -0.1800 
     72 C          -3.6431  -22.1411  -47.6962 C.2       12 UNK         0.5000 
     73 O          -4.2094  -22.7851  -48.5775 O.2       12 UNK        -0.5000 
     74 N          -3.5557  -22.5426  -46.4202 N.am      13 UNK        -0.5000 
     75 CA         -4.0670  -23.8194  -45.9190 C.3       13 UNK         0.1400 
     76 CB         -3.9919  -23.8421  -44.3851 C.3       13 UNK        -0.1800 
     77 C          -3.3381  -25.0352  -46.5217 C.2       13 UNK         0.5000 
     78 O          -3.9867  -26.0345  -46.8304 O.2       13 UNK        -0.5000 
     79 N          -2.0154  -24.9237  -46.7065 N.am      14 UNK        -0.5000 
     80 CA         -1.1902  -25.9305  -47.3751 C.3       14 UNK         0.1400 
     81 CB          0.2935  -25.6464  -47.0947 C.3       14 UNK        -0.1800 
     82 C          -1.4618  -25.9975  -48.8902 C.2       14 UNK         0.5000 
     83 O          -1.5459  -27.0927  -49.4472 O.2       14 UNK        -0.5000 
     84 N          -1.6128  -24.8271  -49.5249 N.am      15 UNK        -0.5000 
     85 CA         -1.8812  -24.6722  -50.9558 C.3       15 UNK         0.1400 
     86 CB         -1.6271  -23.2109  -51.3599 C.3       15 UNK        -0.1800 
     87 C          -3.2989  -25.0962  -51.3828 C.2       15 UNK         0.5000 
     88 O          -3.5080  -25.3348  -52.5705 O.2       15 UNK        -0.5000 
     89 N          -4.2390  -25.1791  -50.4291 N.am      16 UNK        -0.5000 
     90 CA         -5.6806  -25.3921  -50.6147 C.3       16 UNK         0.1400 
     91 CB         -6.3475  -25.5250  -49.2372 C.3       16 UNK        -0.1800 
     92 C          -6.0914  -26.5794  -51.5100 C.2       16 UNK         0.5000 
     93 O          -7.1652  -26.5328  -52.1113 O.2       16 UNK        -0.5000 
     94 N          -5.2349  -27.6057  -51.6032 N.am      17 UNK        -0.5000 
     95 CA         -5.4040  -28.7701  -52.4762 C.3       17 UNK         0.1400 
     96 CB         -4.3203  -29.8039  -52.1339 C.3       17 UNK        -0.1800 
     97 C          -5.3728  -28.4377  -53.9845 C.2       17 UNK         0.5000 
     98 O          -5.9337  -29.1952  -54.7776 O.2       17 UNK        -0.5000 
     99 N          -4.7327  -27.3225  -54.3557 N.am      18 UNK        -0.5000 
    100 CA        -4.6288  -26.8131  -55.7203 C.3       18 UNK         0.1400 
    101 CB        -3.4790  -27.5218  -56.4633 C.3       18 UNK        -0.1800 
    102 C         -4.4610  -25.2879  -55.6426 C.2       18 UNK         0.5000 
    103 O         -3.4394  -24.7527  -56.0765 O.2       18 UNK        -0.5000 
    104 N         -5.4503  -24.6334  -55.0153 N.am      19 UNK        -0.5000 
    105 CA        -5.4171  -23.2304  -54.5932 C.3       19 UNK         0.1400 
    106 CB        -6.7339  -22.8912  -53.8764 C.3       19 UNK        -0.1800 
    107 C         -5.1541  -22.2245  -55.7266 C.2       19 UNK         0.5000 
    108 O         -4.3604  -21.3018  -55.5389 O.2       19 UNK        -0.5000 
    109 N         -5.8244  -22.4232  -56.8725 N.am      20 UNK        -0.5000 
    110 CA        -5.7622  -21.5937  -58.0809 C.3       20 UNK         0.1400 
    111 CB        -4.4262  -21.8340  -58.8193 C.3       20 UNK        -0.1800 
    112 C         -6.0500  -20.1093  -57.7645 C.2       20 UNK         0.5000 
    113 O         -7.1812  -19.7808  -57.4011 O.2       20 UNK        -0.5000 
    114 N         -5.0209  -19.2547  -57.8489 N.am      21 UNK        -0.5000 
    115 CA        -5.0589  -17.8299  -57.5089 C.3       21 UNK         0.1400 
    116 CB        -3.7047  -17.1986  -57.8668 C.3       21 UNK        -0.1800 
    117 C         -5.4178  -17.5356  -56.0367 C.2       21 UNK         0.5000 
    118 O         -5.9348  -16.4539  -55.7535 O.2       21 UNK        -0.5000 
    119 N         -5.1654  -18.4941  -55.1348 N.am      22 UNK        -0.5000 
    120 CA        -5.5888  -18.4434  -53.7258 C.3       22 UNK         0.1400 
    121 C         -7.1022  -18.7505  -53.5110 C.2       22 UNK         0.5000 
    122 N         -7.8575  -19.1805  -54.5167 N.am      22 UNK        -0.7600 
    123 O         -7.6062  -18.5886  -52.4033 O.2       22 UNK        -0.5000 
    124 C124       -4.7160  -19.3484  -52.8167 C.3       23 UNK        -0.0398 
    125 S125       -2.9316  -18.9742  -52.9123 S.3       23 UNK        -0.2404 
    126 C126       -2.6160  -18.3078  -51.2499 C.3       23 UNK        -0.0205 
    127 H127       -1.2634  -11.3833  -47.1762 H         1 UNK         0.0600 
    128 H128       -1.0629   -9.6392  -46.9867 H         1 UNK         0.0600 
    129 H129       -0.6367  -10.7277  -45.6613 H         1 UNK         0.0600 
    130 H130        0.3596  -12.3538  -48.3588 H         1 UNK         0.3000 
    131 H131        2.7651  -11.0462  -49.1227 H         1 UNK         0.0600 
    132 H132        3.3075  -13.2248  -50.2422 H         1 UNK         0.0800 
    133 H133        1.7394  -12.5946  -50.6511 H         1 UNK         0.0800 
    134 H134        2.5997  -15.5945  -51.2684 H         1 UNK         0.0800 
    135 H135        1.0715  -14.8628  -51.6998 H         1 UNK         0.0800 
    136 H136       -1.0669  -16.0560  -51.3131 H         1 UNK         0.1150 
    137 H137       -0.8621  -20.2769  -50.6067 H         1 UNK         0.1150 
    138 H138        2.6914  -17.8903  -50.3640 H         1 UNK         0.1150 
    139 H139        1.1673  -21.3537  -50.1112 H         1 UNK         0.0800 
    140 H140        2.5219  -20.6378  -50.9375 H         1 UNK         0.0800 
    141 H141        0.7846  -19.1653  -47.7415 H         1 UNK         0.0800 
    142 H142        1.9896  -19.4398  -46.5346 H         1 UNK         0.0800 
    143 H143        1.3128  -22.0328  -46.8316 H         1 UNK         0.0600 
    144 H144        0.5858  -20.0946  -44.9363 H         1 UNK         0.3000 
    145 H145       -1.4293  -22.1388  -42.8131 H         1 UNK         0.0600 
    146 H146        0.2198  -21.2485  -41.1783 H         1 UNK         0.0600 
    147 H147        1.3487  -20.8836  -42.4813 H         1 UNK         0.0600 
    148 H148        0.9186  -22.5504  -42.1289 H         1 UNK         0.0600 
    149 H149       -0.6325  -19.3664  -42.7887 H         1 UNK         0.3000 
    150 H150       -3.4090  -18.1279  -44.6532 H         1 UNK         0.0600 
    151 H151       -4.3361  -18.3256  -42.3903 H         1 UNK         0.0600 
    152 H152       -3.6165  -16.7336  -42.5786 H         1 UNK         0.0600 
    153 H153       -2.7775  -17.9828  -41.6590 H         1 UNK         0.0600 
    154 H154       -1.1013  -16.9897  -43.3031 H         1 UNK         0.3000 
    155 H155        0.9991  -17.0126  -46.1888 H         1 UNK         0.0600 
    156 H156       -0.5953  -15.1221  -46.6865 H         1 UNK         0.0600 
    157 H157        0.9337  -14.5746  -46.0335 H         1 UNK         0.0600 
    158 H158       -0.4952  -14.6151  -45.0017 H         1 UNK         0.0600 
    159 H159        1.3850  -15.6584  -43.7541 H         1 UNK         0.3000 
    160 H160        2.2549  -18.3740  -41.6514 H         1 UNK         0.0600 
    161 H161        4.0886  -16.2115  -42.7926 H         1 UNK         0.0600 
    162 H162        4.3589  -17.9410  -42.9932 H         1 UNK         0.0600 
    163 H163        4.3909  -17.2248  -41.3877 H         1 UNK         0.0600 
    164 H164        2.4144  -15.6275  -41.1176 H         1 UNK         0.3000 
    165 H165       -0.1049  -14.3024  -40.8349 H         1 UNK         0.0600 
    166 H166       -1.5186  -14.5131  -38.7775 H         1 UNK         0.0600 
    167 H167       -2.0565  -15.5895  -40.0558 H         1 UNK         0.0600 
    168 H168       -1.1467  -16.2351  -38.6976 H         1 UNK         0.0600 
    169 H169        1.4557  -13.7161  -39.4090 H         1 UNK         0.3000 
    170 H170        2.5517  -14.3092  -36.6320 H         1 UNK         0.0600 
    171 H171        4.4850  -16.1687  -38.1142 H         1 UNK         0.0600 
    172 H172        4.9062  -15.1861  -36.7119 H         1 UNK         0.0600 
    173 H173        3.7222  -16.4721  -36.5602 H         1 UNK         0.0600 
    174 H174        3.4007  -12.6447  -37.7960 H         1 UNK         0.3000 
    175 H175        4.2142  -11.3612  -39.2917 H         1 UNK         0.0600 
    176 H176        6.1921  -12.7597  -41.1733 H         1 UNK         0.0600 
    177 H177        6.2161  -11.0562  -40.7153 H         1 UNK         0.0600 
    178 H178        6.5290  -12.2954  -39.5100 H         1 UNK         0.0600 
    179 H179        4.1830  -11.6409  -42.0959 H         1 UNK         0.3000 
    180 H180        0.7849  -11.9991  -42.7960 H         1 UNK         0.0600 
    181 H181        0.9018   -9.7449  -43.8361 H         1 UNK         0.0600 
    182 H182        2.2892   -9.3273  -42.8312 H         1 UNK         0.0600 
    183 H183        0.7153   -9.6060  -42.0950 H         1 UNK         0.0600 
    184 H184        2.9479  -11.1215  -44.4228 H         1 UNK         0.3000 
    185 H185        4.6566  -12.6996  -45.2390 H         1 UNK         0.0600 
    186 H186        3.4073  -15.4842  -45.6278 H         1 UNK         0.0600 
    187 H187        4.8602  -14.8980  -46.4291 H         1 UNK         0.0600 
    188 H188        4.8544  -15.1186  -44.6895 H         1 UNK         0.0600 
    189 H189        1.9961  -12.9920  -46.3972 H         1 UNK         0.3000 
    190 H190       -1.5471  -19.8340  -46.8204 H         1 UNK         0.3000 
    191 H191       -2.7812  -20.8328  -49.1419 H         1 UNK         0.0600 
    192 H192       -4.0597  -19.5514  -46.6695 H         1 UNK         0.0600 
    193 H193       -4.8085  -19.6963  -48.2550 H         1 UNK         0.0600 
    194 H194       -3.3891  -18.6806  -48.0456 H         1 UNK         0.0600 
    195 H195       -3.1293  -21.9221  -45.7388 H         1 UNK         0.3000 
    196 H196       -5.1182  -23.8905  -46.2058 H         1 UNK         0.0600 
    197 H197       -4.5664  -23.0240  -43.9502 H         1 UNK         0.0600 
    198 H198       -2.9651  -23.7557  -44.0301 H         1 UNK         0.0600 
    199 H199       -4.3992  -24.7727  -43.9883 H         1 UNK         0.0600 
    200 H200       -1.5419  -24.0900  -46.3736 H         1 UNK         0.3000 
    201 H201       -1.4318  -26.9068  -46.9497 H         1 UNK         0.0600 
    202 H202        0.5011  -25.6620  -46.0246 H         1 UNK         0.0600 
    203 H203        0.5997  -24.6729  -47.4783 H         1 UNK         0.0600 
    204 H204        0.9301  -26.3988  -47.5617 H         1 UNK         0.0600 
    205 H205       -1.4603  -23.9684  -49.0009 H         1 UNK         0.3000 
    206 H206       -1.1765  -25.3026  -51.5018 H         1 UNK         0.0600 
    207 H207       -0.6009  -22.9143  -51.1440 H         1 UNK         0.0600 
    208 H208       -1.7888  -23.0635  -52.4287 H         1 UNK         0.0600 
    209 H209       -2.2930  -22.5284  -50.8313 H         1 UNK         0.0600 
    210 H210       -3.9591  -24.9108  -49.4948 H         1 UNK         0.3000 
    211 H211       -6.0661  -24.4876  -51.0856 H         1 UNK         0.0600 
    212 H212       -5.9757  -26.3961  -48.6966 H         1 UNK         0.0600 
    213 H213       -7.4285  -25.6350  -49.3326 H         1 UNK         0.0600 
    214 H214       -6.1674  -24.6450  -48.6202 H         1 UNK         0.0600 
    215 H215       -4.3708  -27.5488  -51.0834 H         1 UNK         0.3000 
    216 H216       -6.3790  -29.2112  -52.2598 H         1 UNK         0.0600 
    217 H217       -4.4280  -30.7012  -52.7448 H         1 UNK         0.0600 
    218 H218       -4.3847  -30.1133  -51.0905 H         1 UNK         0.0600 
    219 H219       -3.3188  -29.4072  -52.3061 H         1 UNK         0.0600 
    220 H220       -4.3161  -26.7278  -53.6414 H         1 UNK         0.3000 
    221 H221       -5.5610  -27.0062  -56.2553 H         1 UNK         0.0600 
    222 H222       -2.5249  -27.3776  -55.9549 H         1 UNK         0.0600 
    223 H223       -3.6583  -28.5942  -56.5395 H         1 UNK         0.0600 
    224 H224       -3.3748  -27.1381  -57.4788 H         1 UNK         0.0600 
    225 H225       -6.2346  -25.1760  -54.6827 H         1 UNK         0.3000 
    226 H226       -4.6026  -23.1299  -53.8730 H         1 UNK         0.0600 
    227 H227       -6.9091  -23.5537  -53.0303 H         1 UNK         0.0600 
    228 H228       -6.7226  -21.8714  -53.4917 H         1 UNK         0.0600 
    229 H229       -7.5905  -22.9768  -54.5460 H         1 UNK         0.0600 
    230 H230       -6.4665  -23.2019  -56.9089 H         1 UNK         0.3000 
    231 H231       -6.5678  -21.9287  -58.7358 H         1 UNK         0.0600 
    232 H232       -4.3716  -21.2489  -59.7382 H         1 UNK         0.0600 
    233 H233       -4.3252  -22.8821  -59.1016 H         1 UNK         0.0600 
    234 H234       -3.5613  -21.5790  -58.2059 H         1 UNK         0.0600 
    235 H235       -4.1200  -19.6264  -58.1123 H         1 UNK         0.3000 
    236 H236       -5.8281  -17.3648  -58.1287 H         1 UNK         0.0600 
    237 H237       -2.8906  -17.6450  -57.2941 H         1 UNK         0.0600 
    238 H238       -3.4786  -17.3208  -58.9262 H         1 UNK         0.0600 
    239 H239       -3.7046  -16.1280  -57.6574 H         1 UNK         0.0600 
    240 H240       -4.7439  -19.3671  -55.4382 H         1 UNK         0.3000 
    241 H241       -5.4469  -17.4183  -53.3782 H         1 UNK         0.0600 
    242 H242       -8.8343  -19.3633  -54.3511 H         1 UNK         0.3800 
    243 H243       -7.4803  -19.3078  -55.4491 H         1 UNK         0.3800 
    244 H244       -5.0411  -19.2670  -51.7782 H         1 UNK         0.0800 
    245 H245       -4.8481  -20.3965  -53.0838 H         1 UNK         0.0800 
    246 H246       -3.0586  -18.9647  -50.5029 H         1 UNK         0.0800 
    247 H247       -3.1120  -17.3415  -51.1463 H         1 UNK         0.0800 
@<TRIPOS>BOND
     1    1    2 1    
     2    1  127 1    
     3    1  128 1    
     4    1  129 1    
     5    2    3 2    
     6    2    4 am   BACKBONE|DICT|INTERRES
     7    4    5 1    
     8    4  130 1    
     9    5    6 1    
    10    5   65 1    
    11    5  131 1    
    12    6    7 1    
    13    6  132 1    
    14    6  133 1    
    15    7    8 1    
    16    8    9 1    
    17    8  134 1    
    18    8  135 1    
    19    9   10 ar   
    20    9   14 ar   
    21   10   11 ar   
    22   10  136 1    
    23   11   12 ar   
    24   11  126 1    
    25   12   13 ar   
    26   12  137 1    
    27   13   14 ar   
    28   13   15 1    
    29   14  138 1    
    30   15   16 1    
    31   15  139 1    
    32   15  140 1    
    33   16   17 1    
    34   17   18 1    
    35   17  141 1    
    36   17  142 1    
    37   18   19 1    
    38   18   67 1    
    39   18  143 1    
    40   19   20 am   BACKBONE|DICT|INTERRES
    41   19  144 1    
    42   20   21 2    
    43   20   22 1    
    44   22   23 1    
    45   22   24 1    
    46   22  145 1    
    47   23  146 1    
    48   23  147 1    
    49   23  148 1    
    50   24   25 am   BACKBONE|DICT|INTERRES
    51   24  149 1    
    52   25   26 2    
    53   25   27 1    
    54   27   28 1    
    55   27   29 1    
    56   27  150 1    
    57   28  151 1    
    58   28  152 1    
    59   28  153 1    
    60   29   30 am   BACKBONE|DICT|INTERRES
    61   29  154 1    
    62   30   31 2    
    63   30   32 1    
    64   32   33 1    
    65   32   34 1    
    66   32  155 1    
    67   33  156 1    
    68   33  157 1    
    69   33  158 1    
    70   34   35 am   BACKBONE|DICT|INTERRES
    71   34  159 1    
    72   35   36 2    
    73   35   37 1    
    74   37   38 1    
    75   37   39 1    
    76   37  160 1    
    77   38  161 1    
    78   38  162 1    
    79   38  163 1    
    80   39   40 am   BACKBONE|DICT|INTERRES
    81   39  164 1    
    82   40   41 2    
    83   40   42 1    
    84   42   43 1    
    85   42   44 1    
    86   42  165 1    
    87   43  166 1    
    88   43  167 1    
    89   43  168 1    
    90   44   45 am   BACKBONE|DICT|INTERRES
    91   44  169 1    
    92   45   46 2    
    93   45   47 1    
    94   47   48 1    
    95   47   49 1    
    96   47  170 1    
    97   48  171 1    
    98   48  172 1    
    99   48  173 1    
   100   49   50 am   BACKBONE|DICT|INTERRES
   101   49  174 1    
   102   50   51 2    
   103   50   52 1    
   104   52   53 1    
   105   52   54 1    
   106   52  175 1    
   107   53  176 1    
   108   53  177 1    
   109   53  178 1    
   110   54   55 am   BACKBONE|DICT|INTERRES
   111   54  179 1    
   112   55   56 2    
   113   55   57 1    
   114   57   58 1    
   115   57   59 1    
   116   57  180 1    
   117   58  181 1    
   118   58  182 1    
   119   58  183 1    
   120   59   60 am   BACKBONE|DICT|INTERRES
   121   59  184 1    
   122   60   61 2    
   123   60   62 1    
   124   62   63 1    
   125   62   64 1    
   126   62  185 1    
   127   63  186 1    
   128   63  187 1    
   129   63  188 1    
   130   64   65 am   BACKBONE|DICT|INTERRES
   131   64  189 1    
   132   65   66 2    
   133   67   68 2    
   134   67   69 am   BACKBONE|DICT|INTERRES
   135   69   70 1    
   136   69  190 1    
   137   70   71 1    
   138   70   72 1    
   139   70  191 1    
   140   71  192 1    
   141   71  193 1    
   142   71  194 1    
   143   72   73 2    
   144   72   74 am   BACKBONE|DICT|INTERRES
   145   74   75 1    
   146   74  195 1    
   147   75   76 1    
   148   75   77 1    
   149   75  196 1    
   150   76  197 1    
   151   76  198 1    
   152   76  199 1    
   153   77   78 2    
   154   77   79 am   BACKBONE|DICT|INTERRES
   155   79   80 1    
   156   79  200 1    
   157   80   81 1    
   158   80   82 1    
   159   80  201 1    
   160   81  202 1    
   161   81  203 1    
   162   81  204 1    
   163   82   83 2    
   164   82   84 am   BACKBONE|DICT|INTERRES
   165   84   85 1    
   166   84  205 1    
   167   85   86 1    
   168   85   87 1    
   169   85  206 1    
   170   86  207 1    
   171   86  208 1    
   172   86  209 1    
   173   87   88 2    
   174   87   89 am   BACKBONE|DICT|INTERRES
   175   89   90 1    
   176   89  210 1    
   177   90   91 1    
   178   90   92 1    
   179   90  211 1    
   180   91  212 1    
   181   91  213 1    
   182   91  214 1    
   183   92   93 2    
   184   92   94 am   BACKBONE|DICT|INTERRES
   185   94   95 1    
   186   94  215 1    
   187   95   96 1    
   188   95   97 1    
   189   95  216 1    
   190   96  217 1    
   191   96  218 1    
   192   96  219 1    
   193   97   98 2    
   194   97   99 am   BACKBONE|DICT|INTERRES
   195   99  100 1    
   196   99  220 1    
   197  100  101 1    
   198  100  102 1    
   199  100  221 1    
   200  101  222 1    
   201  101  223 1    
   202  101  224 1    
   203  102  103 2    
   204  102  104 am   BACKBONE|DICT|INTERRES
   205  104  105 1    
   206  104  225 1    
   207  105  106 1    
   208  105  107 1    
   209  105  226 1    
   210  106  227 1    
   211  106  228 1    
   212  106  229 1    
   213  107  108 2    
   214  107  109 am   BACKBONE|DICT|INTERRES
   215  109  110 1    
   216  109  230 1    
   217  110  111 1    
   218  110  112 1    
   219  110  231 1    
   220  111  232 1    
   221  111  233 1    
   222  111  234 1    
   223  112  113 2    
   224  112  114 am   BACKBONE|DICT|INTERRES
   225  114  115 1    
   226  114  235 1    
   227  115  116 1    
   228  115  117 1    
   229  115  236 1    
   230  116  237 1    
   231  116  238 1    
   232  116  239 1    
   233  117  118 2    
   234  117  119 am   BACKBONE|DICT|INTERRES
   235  119  120 1    
   236  119  240 1    
   237  120  121 1    
   238  120  124 1    
   239  120  241 1    
   240  121  122 am   BACKBONE|DICT|INTERRES
   241  121  123 2    
   242  122  242 1    
   243  122  243 1    
   244  124  125 1    
   245  124  244 1    
   246  124  245 1    
   247  125  126 1    
   248  126  246 1    
   249  126  247 1    
@<TRIPOS>SUBSTRUCTURE
     1 UNK         1 GROUP             0       ****    0 ROOT    
