@<TRIPOS>MOLECULE
3R540
247   249    1
SMALL
USER_CHARGES


@<TRIPOS>ATOM
      1 CA          7.8401  -15.4044  -50.7268 C.3       0 UNK        -0.1800 
      2 C           7.5248  -16.8929  -50.7488 C.2       0 UNK         0.5000 
      3 O           8.3742  -17.7084  -50.3890 O.2       0 UNK        -0.5000 
      4 N           6.2994  -17.2521  -51.1472 N.am      1 UNK        -0.5000 
      5 CA          5.7633  -18.6173  -51.2404 C.3       1 UNK         0.1400 
      6 C6          4.5936  -18.6853  -52.2662 C.3       23 UNK        -0.0398 
      7 S7          3.2709  -17.4405  -52.0057 S.3       23 UNK        -0.2404 
      8 C8          1.8493  -18.5076  -51.6088 C.3       23 UNK        -0.0205 
      9 C9          0.7481  -17.7572  -50.8810 C.ar      23 UNK        -0.0193 
     10 C10        -0.5026  -17.5613  -51.4743 C.ar      23 UNK        -0.1150 
     11 C11        -1.5298  -16.9104  -50.7807 C.ar      23 UNK        -0.0193 
     12 C12        -1.2857  -16.4654  -49.4743 C.ar      23 UNK        -0.1150 
     13 C13        -0.0368  -16.6473  -48.8754 C.ar      23 UNK        -0.0193 
     14 C14         0.9752  -17.2957  -49.5834 C.ar      23 UNK        -0.1150 
     15 C15         0.2199  -16.1168  -47.4754 C.3       23 UNK        -0.0205 
     16 S16        -0.3045  -17.2816  -46.1844 S.3       23 UNK        -0.2404 
     17 C17         0.9581  -18.5966  -46.2166 C.3       23 UNK        -0.0398 
     18 CA          0.3821  -20.0322  -46.2971 C.3       11 UNK         0.1400 
     19 N          -0.6757  -20.2855  -45.3096 N.am      11 UNK        -0.5000 
     20 C          -1.1545  -21.5028  -45.0181 C.2       10 UNK         0.5000 
     21 O          -0.7259  -22.5427  -45.5150 O.2       10 UNK        -0.5000 
     22 CA         -2.3357  -21.5754  -44.0426 C.3       10 UNK         0.1400 
     23 CB         -1.8526  -21.4599  -42.5892 C.3       10 UNK        -0.1800 
     24 N          -3.3439  -20.5539  -44.3183 N.am      10 UNK        -0.5000 
     25 C          -4.2022  -20.5967  -45.3461 C.2       9 UNK         0.5000 
     26 O          -4.1718  -21.4627  -46.2199 O.2       9 UNK        -0.5000 
     27 CA         -5.2842  -19.5014  -45.4013 C.3       9 UNK         0.1400 
     28 CB         -6.5075  -19.9222  -44.5736 C.3       9 UNK        -0.1800 
     29 N          -4.8096  -18.2087  -44.9129 N.am      9 UNK        -0.5000 
     30 C          -3.9957  -17.4022  -45.6038 C.2       8 UNK         0.5000 
     31 O          -3.6224  -17.6384  -46.7519 O.2       8 UNK        -0.5000 
     32 CA         -3.5056  -16.1269  -44.8871 C.3       8 UNK         0.1400 
     33 CB         -4.4670  -14.9618  -45.1604 C.3       8 UNK        -0.1800 
     34 N          -3.3035  -16.2477  -43.4367 N.am      8 UNK        -0.5000 
     35 C          -2.5757  -17.1792  -42.8021 C.2       7 UNK         0.5000 
     36 O          -2.0647  -18.1521  -43.3571 O.2       7 UNK        -0.5000 
     37 CA         -2.3619  -16.9456  -41.2982 C.3       7 UNK         0.1400 
     38 CB         -1.7008  -18.1418  -40.5909 C.3       7 UNK        -0.1800 
     39 N          -1.4986  -15.7805  -41.1631 N.am      7 UNK        -0.5000 
     40 C          -1.7990  -14.6462  -40.5182 C.2       6 UNK         0.5000 
     41 O          -2.8204  -14.4893  -39.8484 O.2       6 UNK        -0.5000 
     42 CA         -0.8058  -13.4729  -40.6721 C.3       6 UNK         0.1400 
     43 CB          0.1714  -13.4364  -39.4875 C.3       6 UNK        -0.1800 
     44 N          -0.0389  -13.5309  -41.9194 N.am      6 UNK        -0.5000 
     45 C          -0.5677  -13.4488  -43.1482 C.2       5 UNK         0.5000 
     46 O          -1.7420  -13.1453  -43.3604 O.2       5 UNK        -0.5000 
     47 CA          0.3424  -13.7999  -44.3424 C.3       5 UNK         0.1400 
     48 CB          0.6703  -12.5463  -45.1670 C.3       5 UNK        -0.1800 
     49 N           1.5977  -14.4893  -44.0199 N.am      5 UNK        -0.5000 
     50 C           1.7364  -15.6740  -43.4089 C.2       4 UNK         0.5000 
     51 O           0.8011  -16.2847  -42.8911 O.2       4 UNK        -0.5000 
     52 CA          3.1616  -16.2712  -43.3994 C.3       4 UNK         0.1400 
     53 CB          3.2465  -17.5806  -42.5948 C.3       4 UNK        -0.1800 
     54 N           3.6409  -16.5270  -44.7593 N.am      4 UNK        -0.5000 
     55 C           4.0487  -15.6089  -45.6413 C.2       3 UNK         0.5000 
     56 O           4.1797  -14.4165  -45.3572 O.2       3 UNK        -0.5000 
     57 CA          4.3031  -16.1008  -47.0818 C.3       3 UNK         0.1400 
     58 CB          4.6791  -14.9621  -48.0467 C.3       3 UNK        -0.1800 
     59 N           5.3028  -17.1585  -47.2025 N.am      3 UNK        -0.5000 
     60 C           5.1508  -18.4457  -46.8620 C.2       2 UNK         0.5000 
     61 O           4.2114  -18.8754  -46.1894 O.2       2 UNK        -0.5000 
     62 CA          6.1997  -19.4043  -47.4657 C.3       2 UNK         0.1400 
     63 CB          5.8935  -20.8926  -47.1941 C.3       2 UNK        -0.1800 
     64 N           6.3661  -19.1460  -48.9050 N.am      2 UNK        -0.5000 
     65 C           5.4116  -19.2040  -49.8489 C.2       1 UNK         0.5000 
     66 O           4.2896  -19.6596  -49.6387 O.2       1 UNK        -0.5000 
     67 C          -0.0568  -20.4200  -47.7246 C.2       11 UNK         0.5000 
     68 O           0.7267  -21.0235  -48.4580 O.2       11 UNK        -0.5000 
     69 N          -1.3233  -20.1382  -48.0613 N.am      12 UNK        -0.5000 
     70 CA         -1.9503  -20.5351  -49.3188 C.3       12 UNK         0.1400 
     71 CB         -3.3199  -19.8565  -49.4312 C.3       12 UNK        -0.1800 
     72 C          -2.0811  -22.0635  -49.4492 C.2       12 UNK         0.5000 
     73 O          -1.7446  -22.6188  -50.4964 O.2       12 UNK        -0.5000 
     74 N          -2.5364  -22.7253  -48.3757 N.am      13 UNK        -0.5000 
     75 CA         -2.6456  -24.1810  -48.2897 C.3       13 UNK         0.1400 
     76 CB         -3.3966  -24.5720  -47.0092 C.3       13 UNK        -0.1800 
     77 C          -1.2815  -24.8897  -48.3758 C.2       13 UNK         0.5000 
     78 O          -1.1544  -25.8557  -49.1282 O.2       13 UNK        -0.5000 
     79 N          -0.2787  -24.3752  -47.6491 N.am      14 UNK        -0.5000 
     80 CA          1.0967  -24.8836  -47.6334 C.3       14 UNK         0.1400 
     81 CB          1.9109  -24.1295  -46.5709 C.3       14 UNK        -0.1800 
     82 C           1.7969  -24.8013  -49.0024 C.2       14 UNK         0.5000 
     83 O           2.5523  -25.7077  -49.3547 O.2       14 UNK        -0.5000 
     84 N           1.5081  -23.7362  -49.7601 N.am      15 UNK        -0.5000 
     85 CA          2.0019  -23.5193  -51.1206 C.3       15 UNK         0.1400 
     86 CB          1.9818  -22.0139  -51.4041 C.3       15 UNK        -0.1800 
     87 C           1.2099  -24.2855  -52.1994 C.2       15 UNK         0.5000 
     88 O           1.5783  -24.2119  -53.3722 O.2       15 UNK        -0.5000 
     89 N           0.1385  -24.9866  -51.7989 N.am      16 UNK        -0.5000 
     90 CA         -0.7957  -25.7446  -52.6368 C.3       16 UNK         0.1400 
     91 CB         -0.0846  -26.9011  -53.3708 C.3       16 UNK        -0.1800 
     92 C          -1.6435  -24.8598  -53.5766 C.2       16 UNK         0.5000 
     93 O          -2.1486  -25.3492  -54.5884 O.2       16 UNK        -0.5000 
     94 N          -1.8309  -23.5854  -53.2042 N.am      17 UNK        -0.5000 
     95 CA         -2.7882  -22.6698  -53.8309 C.3       17 UNK         0.1400 
     96 CB         -2.3501  -21.2195  -53.5631 C.3       17 UNK        -0.1800 
     97 C          -4.2228  -22.9062  -53.3147 C.2       17 UNK         0.5000 
     98 O          -5.1740  -22.4994  -53.9817 O.2       17 UNK        -0.5000 
     99 N          -4.3269  -23.5706  -52.1517 N.am      18 UNK        -0.5000 
    100 CA        -5.5090  -23.8515  -51.3329 C.3       18 UNK         0.1400 
    101 CB        -6.6688  -24.4531  -52.1506 C.3       18 UNK        -0.1800 
    102 C         -5.9572  -22.6161  -50.5364 C.2       18 UNK         0.5000 
    103 O         -5.7723  -21.4820  -50.9790 O.2       18 UNK        -0.5000 
    104 N         -6.5587  -22.8646  -49.3655 N.am      19 UNK        -0.5000 
    105 CA        -6.9927  -21.8494  -48.3992 C.3       19 UNK         0.1400 
    106 CB        -7.6516  -22.5505  -47.2024 C.3       19 UNK        -0.1800 
    107 C         -7.9343  -20.7766  -48.9761 C.2       19 UNK         0.5000 
    108 O         -7.8530  -19.6157  -48.5761 O.2       19 UNK        -0.5000 
    109 N         -8.7730  -21.1757  -49.9403 N.am      20 UNK        -0.5000 
    110 CA        -9.7175  -20.3175  -50.6550 C.3       20 UNK         0.1400 
    111 CB       -10.6147  -21.2048  -51.5323 C.3       20 UNK        -0.1800 
    112 C         -9.0663  -19.2052  -51.5045 C.2       20 UNK         0.5000 
    113 O         -9.7621  -18.2536  -51.8622 O.2       20 UNK        -0.5000 
    114 N         -7.7687  -19.3303  -51.8253 N.am      21 UNK        -0.5000 
    115 CA        -7.0288  -18.3498  -52.6208 C.3       21 UNK         0.1400 
    116 CB        -5.6991  -18.9586  -53.0906 C.3       21 UNK        -0.1800 
    117 C         -6.7846  -17.0201  -51.8831 C.2       21 UNK         0.5000 
    118 O         -6.8195  -15.9716  -52.5290 O.2       21 UNK        -0.5000 
    119 N         -6.5461  -17.0817  -50.5649 N.am      22 UNK        -0.5000 
    120 CA        -6.2282  -15.9145  -49.7208 C.3       22 UNK         0.1400 
    121 C         -6.9921  -15.8720  -48.3663 C.2       22 UNK         0.5000 
    122 N         -7.6910  -16.9106  -47.9273 N.am      22 UNK        -0.7600 
    123 O         -6.9772  -14.8428  -47.6974 O.2       22 UNK        -0.5000 
    124 C124       -4.6995  -15.7474  -49.5017 C.3       23 UNK        -0.0398 
    125 S125       -3.7965  -15.2193  -51.0013 S.3       23 UNK        -0.2404 
    126 C126       -2.8884  -16.7345  -51.4635 C.3       23 UNK        -0.0205 
    127 H127        8.6826  -15.1898  -51.3841 H         1 UNK         0.0600 
    128 H128        6.9904  -14.8054  -51.0554 H         1 UNK         0.0600 
    129 H129        8.1052  -15.0920  -49.7168 H         1 UNK         0.0600 
    130 H130        5.6381  -16.5327  -51.4055 H         1 UNK         0.3000 
    131 H131        6.5572  -19.2568  -51.6321 H         1 UNK         0.0600 
    132 H132        4.1672  -19.6893  -52.3018 H         1 UNK         0.0800 
    133 H133        4.9952  -18.5149  -53.2658 H         1 UNK         0.0800 
    134 H134        2.1708  -19.3134  -50.9550 H         1 UNK         0.0800 
    135 H135        1.4762  -18.9737  -52.5218 H         1 UNK         0.0800 
    136 H136       -0.6802  -17.9267  -52.4760 H         1 UNK         0.1150 
    137 H137       -2.0603  -15.9710  -48.9090 H         1 UNK         0.1150 
    138 H138        1.9447  -17.4488  -49.1318 H         1 UNK         0.1150 
    139 H139        1.2657  -15.8520  -47.3383 H         1 UNK         0.0800 
    140 H140       -0.3362  -15.1880  -47.3420 H         1 UNK         0.0800 
    141 H141        1.5315  -18.5031  -45.2946 H         1 UNK         0.0800 
    142 H142        1.6713  -18.4219  -47.0220 H         1 UNK         0.0800 
    143 H143        1.2055  -20.7051  -46.0473 H         1 UNK         0.0600 
    144 H144       -1.0830  -19.4728  -44.8583 H         1 UNK         0.3000 
    145 H145       -2.8062  -22.5540  -44.1596 H         1 UNK         0.0600 
    146 H146       -2.6868  -21.5032  -41.8889 H         1 UNK         0.0600 
    147 H147       -1.1759  -22.2784  -42.3409 H         1 UNK         0.0600 
    148 H148       -1.3126  -20.5295  -42.4144 H         1 UNK         0.0600 
    149 H149       -3.3275  -19.7347  -43.7237 H         1 UNK         0.3000 
    150 H150       -5.5964  -19.3939  -46.4427 H         1 UNK         0.0600 
    151 H151       -6.8332  -20.9285  -44.8341 H         1 UNK         0.0600 
    152 H152       -7.3485  -19.2505  -44.7467 H         1 UNK         0.0600 
    153 H153       -6.2902  -19.9226  -43.5048 H         1 UNK         0.0600 
    154 H154       -5.0763  -17.9401  -43.9777 H         1 UNK         0.3000 
    155 H155       -2.5426  -15.8565  -45.3177 H         1 UNK         0.0600 
    156 H156       -5.4551  -15.1461  -44.7370 H         1 UNK         0.0600 
    157 H157       -4.5934  -14.8054  -46.2320 H         1 UNK         0.0600 
    158 H158       -4.0886  -14.0288  -44.7423 H         1 UNK         0.0600 
    159 H159       -3.6539  -15.4768  -42.8865 H         1 UNK         0.3000 
    160 H160       -3.3394  -16.7710  -40.8444 H         1 UNK         0.0600 
    161 H161       -1.5609  -17.9407  -39.5289 H         1 UNK         0.0600 
    162 H162       -0.7236  -18.3731  -41.0178 H         1 UNK         0.0600 
    163 H163       -2.3209  -19.0347  -40.6740 H         1 UNK         0.0600 
    164 H164       -0.6496  -15.8180  -41.7236 H         1 UNK         0.3000 
    165 H165       -1.3840  -12.5467  -40.6726 H         1 UNK         0.0600 
    166 H166        0.8339  -12.5728  -39.5482 H         1 UNK         0.0600 
    167 H167       -0.3657  -13.3667  -38.5406 H         1 UNK         0.0600 
    168 H168        0.7901  -14.3340  -39.4489 H         1 UNK         0.0600 
    169 H169        0.9340  -13.7869  -41.8421 H         1 UNK         0.3000 
    170 H170       -0.2374  -14.4754  -44.9725 H         1 UNK         0.0600 
    171 H171       -0.2386  -12.0231  -45.4673 H         1 UNK         0.0600 
    172 H172        1.2828  -11.8439  -44.6004 H         1 UNK         0.0600 
    173 H173        1.2102  -12.8041  -46.0786 H         1 UNK         0.0600 
    174 H174        2.4392  -14.0878  -44.4214 H         1 UNK         0.3000 
    175 H175        3.8208  -15.5420  -42.9241 H         1 UNK         0.0600 
    176 H176        2.6137  -18.3593  -43.0224 H         1 UNK         0.0600 
    177 H177        4.2683  -17.9592  -42.5653 H         1 UNK         0.0600 
    178 H178        2.9272  -17.4274  -41.5631 H         1 UNK         0.0600 
    179 H179        3.6122  -17.4914  -45.0803 H         1 UNK         0.3000 
    180 H180        3.3631  -16.5213  -47.4358 H         1 UNK         0.0600 
    181 H181        5.6353  -14.5092  -47.7820 H         1 UNK         0.0600 
    182 H182        3.9257  -14.1731  -48.0362 H         1 UNK         0.0600 
    183 H183        4.7498  -15.3226  -49.0733 H         1 UNK         0.0600 
    184 H184        6.1289  -16.9132  -47.7268 H         1 UNK         0.3000 
    185 H185        7.1525  -19.1681  -46.9898 H         1 UNK         0.0600 
    186 H186        5.8855  -21.0969  -46.1230 H         1 UNK         0.0600 
    187 H187        4.9208  -21.1902  -47.5872 H         1 UNK         0.0600 
    188 H188        6.6480  -21.5382  -47.6430 H         1 UNK         0.0600 
    189 H189        7.2595  -18.7536  -49.1895 H         1 UNK         0.3000 
    190 H190       -1.8960  -19.6224  -47.4072 H         1 UNK         0.3000 
    191 H191       -1.3190  -20.1756  -50.1339 H         1 UNK         0.0600 
    192 H192       -3.7290  -19.9863  -50.4317 H         1 UNK         0.0600 
    193 H193       -4.0394  -20.2623  -48.7205 H         1 UNK         0.0600 
    194 H194       -3.2433  -18.7873  -49.2438 H         1 UNK         0.0600 
    195 H195       -2.8376  -22.1996  -47.5614 H         1 UNK         0.3000 
    196 H196       -3.2406  -24.5175  -49.1401 H         1 UNK         0.0600 
    197 H197       -3.4995  -25.6549  -46.9306 H         1 UNK         0.0600 
    198 H198       -4.4009  -24.1480  -46.9980 H         1 UNK         0.0600 
    199 H199       -2.8778  -24.2246  -46.1155 H         1 UNK         0.0600 
    200 H200       -0.4773  -23.5984  -47.0218 H         1 UNK         0.3000 
    201 H201        1.0558  -25.9365  -47.3474 H         1 UNK         0.0600 
    202 H202        1.4804  -24.2603  -45.5780 H         1 UNK         0.0600 
    203 H203        1.9505  -23.0600  -46.7809 H         1 UNK         0.0600 
    204 H204        2.9376  -24.4952  -46.5305 H         1 UNK         0.0600 
    205 H205        0.9171  -23.0081  -49.3740 H         1 UNK         0.3000 
    206 H206        3.0380  -23.8589  -51.1792 H         1 UNK         0.0600 
    207 H207        2.6050  -21.4910  -50.6799 H         1 UNK         0.0600 
    208 H208        2.3733  -21.7865  -52.3963 H         1 UNK         0.0600 
    209 H209        0.9722  -21.6050  -51.3411 H         1 UNK         0.0600 
    210 H210       -0.0817  -24.9839  -50.8100 H         1 UNK         0.3000 
    211 H211       -1.5066  -26.1956  -51.9432 H         1 UNK         0.0600 
    212 H212        0.5810  -26.5389  -54.1544 H         1 UNK         0.0600 
    213 H213       -0.8078  -27.5673  -53.8423 H         1 UNK         0.0600 
    214 H214        0.5052  -27.5030  -52.6794 H         1 UNK         0.0600 
    215 H215       -1.4206  -23.2687  -52.3305 H         1 UNK         0.3000 
    216 H216       -2.7870  -22.8327  -54.9106 H         1 UNK         0.0600 
    217 H217       -3.0028  -20.5156  -54.0809 H         1 UNK         0.0600 
    218 H218       -1.3338  -21.0413  -53.9146 H         1 UNK         0.0600 
    219 H219       -2.3867  -20.9729  -52.5021 H         1 UNK         0.0600 
    220 H220       -3.4474  -23.7829  -51.7022 H         1 UNK         0.3000 
    221 H221       -5.1881  -24.6067  -50.6144 H         1 UNK         0.0600 
    222 H222       -7.1354  -23.7157  -52.8043 H         1 UNK         0.0600 
    223 H223       -6.3288  -25.2846  -52.7679 H         1 UNK         0.0600 
    224 H224       -7.4494  -24.8355  -51.4923 H         1 UNK         0.0600 
    225 H225       -6.6923  -23.8245  -49.0827 H         1 UNK         0.3000 
    226 H226       -6.1011  -21.3307  -48.0462 H         1 UNK         0.0600 
    227 H227       -8.4486  -23.2238  -47.5196 H         1 UNK         0.0600 
    228 H228       -8.0959  -21.8287  -46.5170 H         1 UNK         0.0600 
    229 H229       -6.9220  -23.1315  -46.6377 H         1 UNK         0.0600 
    230 H230       -8.7471  -22.1454  -50.2181 H         1 UNK         0.3000 
    231 H231      -10.3459  -19.8254  -49.9099 H         1 UNK         0.0600 
    232 H232      -11.1531  -21.9387  -50.9324 H         1 UNK         0.0600 
    233 H233      -10.0347  -21.7430  -52.2832 H         1 UNK         0.0600 
    234 H234      -11.3612  -20.6089  -52.0592 H         1 UNK         0.0600 
    235 H235       -7.2458  -20.1363  -51.4974 H         1 UNK         0.3000 
    236 H236       -7.6213  -18.1260  -53.5106 H         1 UNK         0.0600 
    237 H237       -5.8664  -19.8542  -53.6885 H         1 UNK         0.0600 
    238 H238       -5.1410  -18.2539  -53.7082 H         1 UNK         0.0600 
    239 H239       -5.0623  -19.2335  -52.2509 H         1 UNK         0.0600 
    240 H240       -6.5714  -17.9800  -50.1046 H         1 UNK         0.3000 
    241 H241       -6.5798  -15.0158  -50.2312 H         1 UNK         0.0600 
    242 H242       -8.1812  -16.8117  -47.0537 H         1 UNK         0.3800 
    243 H243       -7.7222  -17.8122  -48.3952 H         1 UNK         0.3800 
    244 H244       -4.2786  -16.6751  -49.1160 H         1 UNK         0.0800 
    245 H245       -4.4959  -14.9903  -48.7427 H         1 UNK         0.0800 
    246 H246       -2.7449  -16.7028  -52.5446 H         1 UNK         0.0800 
    247 H247       -3.5109  -17.6068  -51.2707 H         1 UNK         0.0800 
@<TRIPOS>BOND
     1    1    2 1    
     2    1  127 1    
     3    1  128 1    
     4    1  129 1    
     5    2    3 2    
     6    2    4 am   BACKBONE|DICT|INTERRES
     7    4    5 1    
     8    4  130 1    
     9    5    6 1    
    10    5   65 1    
    11    5  131 1    
    12    6    7 1    
    13    6  132 1    
    14    6  133 1    
    15    7    8 1    
    16    8    9 1    
    17    8  134 1    
    18    8  135 1    
    19    9   10 ar   
    20    9   14 ar   
    21   10   11 ar   
    22   10  136 1    
    23   11   12 ar   
    24   11  126 1    
    25   12   13 ar   
    26   12  137 1    
    27   13   14 ar   
    28   13   15 1    
    29   14  138 1    
    30   15   16 1    
    31   15  139 1    
    32   15  140 1    
    33   16   17 1    
    34   17   18 1    
    35   17  141 1    
    36   17  142 1    
    37   18   19 1    
    38   18   67 1    
    39   18  143 1    
    40   19   20 am   BACKBONE|DICT|INTERRES
    41   19  144 1    
    42   20   21 2    
    43   20   22 1    
    44   22   23 1    
    45   22   24 1    
    46   22  145 1    
    47   23  146 1    
    48   23  147 1    
    49   23  148 1    
    50   24   25 am   BACKBONE|DICT|INTERRES
    51   24  149 1    
    52   25   26 2    
    53   25   27 1    
    54   27   28 1    
    55   27   29 1    
    56   27  150 1    
    57   28  151 1    
    58   28  152 1    
    59   28  153 1    
    60   29   30 am   BACKBONE|DICT|INTERRES
    61   29  154 1    
    62   30   31 2    
    63   30   32 1    
    64   32   33 1    
    65   32   34 1    
    66   32  155 1    
    67   33  156 1    
    68   33  157 1    
    69   33  158 1    
    70   34   35 am   BACKBONE|DICT|INTERRES
    71   34  159 1    
    72   35   36 2    
    73   35   37 1    
    74   37   38 1    
    75   37   39 1    
    76   37  160 1    
    77   38  161 1    
    78   38  162 1    
    79   38  163 1    
    80   39   40 am   BACKBONE|DICT|INTERRES
    81   39  164 1    
    82   40   41 2    
    83   40   42 1    
    84   42   43 1    
    85   42   44 1    
    86   42  165 1    
    87   43  166 1    
    88   43  167 1    
    89   43  168 1    
    90   44   45 am   BACKBONE|DICT|INTERRES
    91   44  169 1    
    92   45   46 2    
    93   45   47 1    
    94   47   48 1    
    95   47   49 1    
    96   47  170 1    
    97   48  171 1    
    98   48  172 1    
    99   48  173 1    
   100   49   50 am   BACKBONE|DICT|INTERRES
   101   49  174 1    
   102   50   51 2    
   103   50   52 1    
   104   52   53 1    
   105   52   54 1    
   106   52  175 1    
   107   53  176 1    
   108   53  177 1    
   109   53  178 1    
   110   54   55 am   BACKBONE|DICT|INTERRES
   111   54  179 1    
   112   55   56 2    
   113   55   57 1    
   114   57   58 1    
   115   57   59 1    
   116   57  180 1    
   117   58  181 1    
   118   58  182 1    
   119   58  183 1    
   120   59   60 am   BACKBONE|DICT|INTERRES
   121   59  184 1    
   122   60   61 2    
   123   60   62 1    
   124   62   63 1    
   125   62   64 1    
   126   62  185 1    
   127   63  186 1    
   128   63  187 1    
   129   63  188 1    
   130   64   65 am   BACKBONE|DICT|INTERRES
   131   64  189 1    
   132   65   66 2    
   133   67   68 2    
   134   67   69 am   BACKBONE|DICT|INTERRES
   135   69   70 1    
   136   69  190 1    
   137   70   71 1    
   138   70   72 1    
   139   70  191 1    
   140   71  192 1    
   141   71  193 1    
   142   71  194 1    
   143   72   73 2    
   144   72   74 am   BACKBONE|DICT|INTERRES
   145   74   75 1    
   146   74  195 1    
   147   75   76 1    
   148   75   77 1    
   149   75  196 1    
   150   76  197 1    
   151   76  198 1    
   152   76  199 1    
   153   77   78 2    
   154   77   79 am   BACKBONE|DICT|INTERRES
   155   79   80 1    
   156   79  200 1    
   157   80   81 1    
   158   80   82 1    
   159   80  201 1    
   160   81  202 1    
   161   81  203 1    
   162   81  204 1    
   163   82   83 2    
   164   82   84 am   BACKBONE|DICT|INTERRES
   165   84   85 1    
   166   84  205 1    
   167   85   86 1    
   168   85   87 1    
   169   85  206 1    
   170   86  207 1    
   171   86  208 1    
   172   86  209 1    
   173   87   88 2    
   174   87   89 am   BACKBONE|DICT|INTERRES
   175   89   90 1    
   176   89  210 1    
   177   90   91 1    
   178   90   92 1    
   179   90  211 1    
   180   91  212 1    
   181   91  213 1    
   182   91  214 1    
   183   92   93 2    
   184   92   94 am   BACKBONE|DICT|INTERRES
   185   94   95 1    
   186   94  215 1    
   187   95   96 1    
   188   95   97 1    
   189   95  216 1    
   190   96  217 1    
   191   96  218 1    
   192   96  219 1    
   193   97   98 2    
   194   97   99 am   BACKBONE|DICT|INTERRES
   195   99  100 1    
   196   99  220 1    
   197  100  101 1    
   198  100  102 1    
   199  100  221 1    
   200  101  222 1    
   201  101  223 1    
   202  101  224 1    
   203  102  103 2    
   204  102  104 am   BACKBONE|DICT|INTERRES
   205  104  105 1    
   206  104  225 1    
   207  105  106 1    
   208  105  107 1    
   209  105  226 1    
   210  106  227 1    
   211  106  228 1    
   212  106  229 1    
   213  107  108 2    
   214  107  109 am   BACKBONE|DICT|INTERRES
   215  109  110 1    
   216  109  230 1    
   217  110  111 1    
   218  110  112 1    
   219  110  231 1    
   220  111  232 1    
   221  111  233 1    
   222  111  234 1    
   223  112  113 2    
   224  112  114 am   BACKBONE|DICT|INTERRES
   225  114  115 1    
   226  114  235 1    
   227  115  116 1    
   228  115  117 1    
   229  115  236 1    
   230  116  237 1    
   231  116  238 1    
   232  116  239 1    
   233  117  118 2    
   234  117  119 am   BACKBONE|DICT|INTERRES
   235  119  120 1    
   236  119  240 1    
   237  120  121 1    
   238  120  124 1    
   239  120  241 1    
   240  121  122 am   BACKBONE|DICT|INTERRES
   241  121  123 2    
   242  122  242 1    
   243  122  243 1    
   244  124  125 1    
   245  124  244 1    
   246  124  245 1    
   247  125  126 1    
   248  126  246 1    
   249  126  247 1    
@<TRIPOS>SUBSTRUCTURE
     1 UNK         1 GROUP             0       ****    0 ROOT    
