@<TRIPOS>MOLECULE
3R540
247   249    1
SMALL
USER_CHARGES


@<TRIPOS>ATOM
      1 CA          4.9639  -11.8694  -52.5690 C.3       0 UNK        -0.1800 
      2 C           4.7194  -13.2609  -53.1514 C.2       0 UNK         0.5000 
      3 O           4.5306  -13.3824  -54.3605 O.2       0 UNK        -0.5000 
      4 N           4.7316  -14.3363  -52.3522 N.am      1 UNK        -0.5000 
      5 CA          4.8481  -14.3635  -50.8898 C.3       1 UNK         0.1400 
      6 C6          5.2238  -15.7748  -50.3590 C.3       23 UNK        -0.0398 
      7 S7          4.2845  -17.1725  -51.0756 S.3       23 UNK        -0.2404 
      8 C8          3.1730  -17.6835  -49.7191 C.3       23 UNK        -0.0205 
      9 C9          1.7995  -17.0251  -49.7880 C.ar      23 UNK        -0.0193 
     10 C10         1.0567  -17.0591  -50.9727 C.ar      23 UNK        -0.1150 
     11 C11        -0.2123  -16.4794  -51.0387 C.ar      23 UNK        -0.0193 
     12 C12        -0.7553  -15.8850  -49.8968 C.ar      23 UNK        -0.1150 
     13 C13        -0.0276  -15.8433  -48.7034 C.ar      23 UNK        -0.0193 
     14 C14         1.2520  -16.4094  -48.6585 C.ar      23 UNK        -0.1150 
     15 C15        -0.6138  -15.1486  -47.4804 C.3       23 UNK        -0.0205 
     16 S16        -0.6233  -16.2014  -45.9965 S.3       23 UNK        -0.2404 
     17 C17        -1.8591  -17.4691  -46.4361 C.3       23 UNK        -0.0398 
     18 CA         -1.2149  -18.8270  -46.8015 C.3       11 UNK         0.1400 
     19 N          -0.3170  -19.3482  -45.7660 N.am      11 UNK        -0.5000 
     20 C           0.6075  -20.2887  -46.0007 C.2       10 UNK         0.5000 
     21 O           0.7746  -20.8197  -47.0995 O.2       10 UNK        -0.5000 
     22 CA          1.4690  -20.7376  -44.8095 C.3       10 UNK         0.1400 
     23 CB          2.5663  -19.7057  -44.5107 C.3       10 UNK        -0.1800 
     24 N           0.7059  -21.0021  -43.5894 N.am      10 UNK        -0.5000 
     25 C          -0.2074  -21.9733  -43.4521 C.2       9 UNK         0.5000 
     26 O          -0.6079  -22.6679  -44.3844 O.2       9 UNK        -0.5000 
     27 CA         -0.7649  -22.2123  -42.0407 C.3       9 UNK         0.1400 
     28 CB          0.2837  -22.9039  -41.1550 C.3       9 UNK        -0.1800 
     29 N          -1.1582  -20.9504  -41.4232 N.am      9 UNK        -0.5000 
     30 C          -2.4215  -20.5296  -41.2807 C.2       8 UNK         0.5000 
     31 O          -3.4082  -21.2096  -41.5639 O.2       8 UNK        -0.5000 
     32 CA         -2.6261  -19.0954  -40.7477 C.3       8 UNK         0.1400 
     33 CB         -2.8616  -19.1161  -39.2299 C.3       8 UNK        -0.1800 
     34 N          -1.5201  -18.1801  -41.0432 N.am      8 UNK        -0.5000 
     35 C          -1.0799  -17.8749  -42.2715 C.2       7 UNK         0.5000 
     36 O          -1.5641  -18.3321  -43.3062 O.2       7 UNK        -0.5000 
     37 CA          0.1494  -16.9535  -42.3623 C.3       7 UNK         0.1400 
     38 CB         -0.3038  -15.4859  -42.3876 C.3       7 UNK        -0.1800 
     39 N           1.1642  -17.1412  -41.3136 N.am      7 UNK        -0.5000 
     40 C           1.7019  -18.3097  -40.9200 C.2       6 UNK         0.5000 
     41 O           1.3443  -19.4011  -41.3654 O.2       6 UNK        -0.5000 
     42 CA          2.8371  -18.2862  -39.8744 C.3       6 UNK         0.1400 
     43 CB          4.1060  -18.9328  -40.4542 C.3       6 UNK        -0.1800 
     44 N           3.1826  -16.9499  -39.3910 N.am      6 UNK        -0.5000 
     45 C           2.4896  -16.2299  -38.4983 C.2       5 UNK         0.5000 
     46 O           1.4715  -16.6356  -37.9376 O.2       5 UNK        -0.5000 
     47 CA          3.0074  -14.8018  -38.2124 C.3       5 UNK         0.1400 
     48 CB          3.8234  -14.7769  -36.9111 C.3       5 UNK        -0.1800 
     49 N           3.8225  -14.2383  -39.2984 N.am      5 UNK        -0.5000 
     50 C           3.3788  -14.0055  -40.5416 C.2       4 UNK         0.5000 
     51 O           2.2142  -14.2167  -40.8818 O.2       4 UNK        -0.5000 
     52 CA          4.3926  -13.5387  -41.6014 C.3       4 UNK         0.1400 
     53 CB          5.8696  -13.6975  -41.1757 C.3       4 UNK        -0.1800 
     54 N           4.1214  -14.3095  -42.8107 N.am      4 UNK        -0.5000 
     55 C           4.4969  -14.0138  -44.0580 C.2       3 UNK         0.5000 
     56 O           5.1821  -13.0310  -44.3507 O.2       3 UNK        -0.5000 
     57 CA          4.0670  -15.0043  -45.1666 C.3       3 UNK         0.1400 
     58 CB          2.9212  -15.9569  -44.7564 C.3       3 UNK        -0.1800 
     59 N           3.7535  -14.3382  -46.4351 N.am      3 UNK        -0.5000 
     60 C           2.8194  -13.3973  -46.6532 C.2       2 UNK         0.5000 
     61 O           2.0394  -12.9930  -45.7904 O.2       2 UNK        -0.5000 
     62 CA          2.7354  -12.8045  -48.0756 C.3       2 UNK         0.1400 
     63 CB          2.8243  -11.2683  -48.0523 C.3       2 UNK        -0.1800 
     64 N           3.7870  -13.3271  -48.9529 N.am      2 UNK        -0.5000 
     65 C           3.5920  -13.8044  -50.1878 C.2       1 UNK         0.5000 
     66 O           2.5022  -13.8056  -50.7635 O.2       1 UNK        -0.5000 
     67 C          -2.2964  -19.8630  -47.1529 C.2       11 UNK         0.5000 
     68 O          -2.6667  -19.9748  -48.3192 O.2       11 UNK        -0.5000 
     69 N          -2.7503  -20.6332  -46.1521 N.am      12 UNK        -0.5000 
     70 CA         -3.6952  -21.7374  -46.3219 C.3       12 UNK         0.1400 
     71 CB         -4.1568  -22.2419  -44.9470 C.3       12 UNK        -0.1800 
     72 C          -3.1076  -22.8838  -47.1636 C.2       12 UNK         0.5000 
     73 O          -3.8056  -23.4184  -48.0256 O.2       12 UNK        -0.5000 
     74 N          -1.8286  -23.2093  -46.9294 N.am      13 UNK        -0.5000 
     75 CA         -1.0578  -24.1768  -47.7076 C.3       13 UNK         0.1400 
     76 CB          0.2723  -24.4737  -46.9990 C.3       13 UNK        -0.1800 
     77 C          -0.8183  -23.7066  -49.1524 C.2       13 UNK         0.5000 
     78 O          -1.0173  -24.4927  -50.0781 O.2       13 UNK        -0.5000 
     79 N          -0.4428  -22.4302  -49.3268 N.am      14 UNK        -0.5000 
     80 CA         -0.2440  -21.7952  -50.6342 C.3       14 UNK         0.1400 
     81 CB          0.3647  -20.4007  -50.4403 C.3       14 UNK        -0.1800 
     82 C          -1.5381  -21.7124  -51.4657 C.2       14 UNK         0.5000 
     83 O          -1.5069  -21.9444  -52.6749 O.2       14 UNK        -0.5000 
     84 N          -2.6602  -21.4315  -50.7913 N.am      15 UNK        -0.5000 
     85 CA         -4.0036  -21.4350  -51.3635 C.3       15 UNK         0.1400 
     86 CB         -4.9388  -20.6417  -50.4390 C.3       15 UNK        -0.1800 
     87 C          -4.5686  -22.8475  -51.6043 C.2       15 UNK         0.5000 
     88 O          -5.6056  -22.9633  -52.2608 O.2       15 UNK        -0.5000 
     89 N          -3.9177  -23.8801  -51.0500 N.am      16 UNK        -0.5000 
     90 CA         -4.3165  -25.2906  -51.0407 C.3       16 UNK         0.1400 
     91 CB         -4.2049  -25.8946  -52.4552 C.3       16 UNK        -0.1800 
     92 C          -5.7090  -25.4862  -50.4089 C.2       16 UNK         0.5000 
     93 O          -6.5749  -26.1276  -51.0030 O.2       16 UNK        -0.5000 
     94 N          -5.9215  -24.8559  -49.2438 N.am      17 UNK        -0.5000 
     95 CA         -7.1960  -24.7599  -48.5184 C.3       17 UNK         0.1400 
     96 CB         -7.6129  -26.1350  -47.9569 C.3       17 UNK        -0.1800 
     97 C          -8.3066  -24.0834  -49.3558 C.2       17 UNK         0.5000 
     98 O          -9.4728  -24.4718  -49.2775 O.2       17 UNK        -0.5000 
     99 N          -7.8951  -23.0905  -50.1581 N.am      18 UNK        -0.5000 
    100 CA        -8.6758  -22.3065  -51.1209 C.3       18 UNK         0.1400 
    101 CB        -9.8562  -21.5812  -50.4424 C.3       18 UNK        -0.1800 
    102 C         -9.0980  -23.0812  -52.3875 C.2       18 UNK         0.5000 
    103 O         -9.8961  -22.5563  -53.1654 O.2       18 UNK        -0.5000 
    104 N         -8.5451  -24.2836  -52.6126 N.am      19 UNK        -0.5000 
    105 CA        -8.7663  -25.0586  -53.8363 C.3       19 UNK         0.1400 
    106 CB        -8.4045  -26.5319  -53.5980 C.3       19 UNK        -0.1800 
    107 C         -7.9744  -24.4984  -55.0323 C.2       19 UNK         0.5000 
    108 O         -8.4702  -24.5489  -56.1587 O.2       19 UNK        -0.5000 
    109 N         -6.7704  -23.9723  -54.7683 N.am      20 UNK        -0.5000 
    110 CA        -5.9119  -23.3263  -55.7623 C.3       20 UNK         0.1400 
    111 CB        -4.4538  -23.7581  -55.5382 C.3       20 UNK        -0.1800 
    112 C         -6.0303  -21.7965  -55.6867 C.2       20 UNK         0.5000 
    113 O         -5.9341  -21.1312  -56.7186 O.2       20 UNK        -0.5000 
    114 N         -6.2138  -21.2665  -54.4662 N.am      21 UNK        -0.5000 
    115 CA        -6.3840  -19.8473  -54.1249 C.3       21 UNK         0.1400 
    116 CB        -7.7606  -19.3497  -54.6097 C.3       21 UNK        -0.1800 
    117 C         -5.2184  -18.9466  -54.5963 C.2       21 UNK         0.5000 
    118 O         -5.4348  -17.7754  -54.9106 O.2       21 UNK        -0.5000 
    119 N         -4.0103  -19.5262  -54.6569 N.am      22 UNK        -0.5000 
    120 CA        -2.7790  -18.9411  -55.2162 C.3       22 UNK         0.1400 
    121 C         -2.8121  -18.7365  -56.7652 C.2       22 UNK         0.5000 
    122 N         -3.7538  -19.3152  -57.5024 N.am      22 UNK        -0.7600 
    123 O         -1.9459  -18.0681  -57.3234 O.2       22 UNK        -0.5000 
    124 C124       -2.2905  -17.6730  -54.4578 C.3       23 UNK        -0.0398 
    125 S125       -1.8620  -17.9832  -52.7095 S.3       23 UNK        -0.2404 
    126 C126       -0.9600  -16.4407  -52.3623 C.3       23 UNK        -0.0205 
    127 H127        5.0964  -11.1411  -53.3693 H         1 UNK         0.0600 
    128 H128        5.8642  -11.8469  -51.9557 H         1 UNK         0.0600 
    129 H129        4.1155  -11.5469  -51.9659 H         1 UNK         0.0600 
    130 H130        4.5398  -15.2391  -52.7624 H         1 UNK         0.3000 
    131 H131        5.6756  -13.7045  -50.6212 H         1 UNK         0.0600 
    132 H132        6.2712  -15.9604  -50.6007 H         1 UNK         0.0800 
    133 H133        5.1813  -15.8160  -49.2699 H         1 UNK         0.0800 
    134 H134        3.6498  -17.5027  -48.7549 H         1 UNK         0.0800 
    135 H135        3.0321  -18.7624  -49.7848 H         1 UNK         0.0800 
    136 H136        1.4738  -17.5266  -51.8533 H         1 UNK         0.1150 
    137 H137       -1.7353  -15.4318  -49.9470 H         1 UNK         0.1150 
    138 H138        1.8161  -16.3744  -47.7383 H         1 UNK         0.1150 
    139 H139       -0.0266  -14.2563  -47.2675 H         1 UNK         0.0800 
    140 H140       -1.6298  -14.8018  -47.6749 H         1 UNK         0.0800 
    141 H141       -2.4653  -17.1039  -47.2670 H         1 UNK         0.0800 
    142 H142       -2.5434  -17.5785  -45.5938 H         1 UNK         0.0800 
    143 H143       -0.6215  -18.6664  -47.7044 H         1 UNK         0.0600 
    144 H144       -0.4579  -18.9873  -44.8286 H         1 UNK         0.3000 
    145 H145        1.9576  -21.6709  -45.0972 H         1 UNK         0.0600 
    146 H146        3.2513  -20.0688  -43.7443 H         1 UNK         0.0600 
    147 H147        3.1571  -19.4894  -45.4018 H         1 UNK         0.0600 
    148 H148        2.1432  -18.7660  -44.1597 H         1 UNK         0.0600 
    149 H149        0.9704  -20.4609  -42.7694 H         1 UNK         0.3000 
    150 H150       -1.6225  -22.8824  -42.1303 H         1 UNK         0.0600 
    151 H151        0.6102  -23.8452  -41.5990 H         1 UNK         0.0600 
    152 H152       -0.1254  -23.1330  -40.1709 H         1 UNK         0.0600 
    153 H153        1.1687  -22.2824  -41.0114 H         1 UNK         0.0600 
    154 H154       -0.4055  -20.3069  -41.2024 H         1 UNK         0.3000 
    155 H155       -3.5207  -18.6953  -41.2291 H         1 UNK         0.0600 
    156 H156       -1.9840  -19.4778  -38.6925 H         1 UNK         0.0600 
    157 H157       -3.6968  -19.7689  -38.9724 H         1 UNK         0.0600 
    158 H158       -3.1008  -18.1214  -38.8533 H         1 UNK         0.0600 
    159 H159       -1.0434  -17.7735  -40.2515 H         1 UNK         0.3000 
    160 H160        0.6303  -17.1716  -43.3160 H         1 UNK         0.0600 
    161 H161       -0.6266  -15.1467  -41.4028 H         1 UNK         0.0600 
    162 H162       -1.1385  -15.3393  -43.0746 H         1 UNK         0.0600 
    163 H163        0.4975  -14.8301  -42.7250 H         1 UNK         0.0600 
    164 H164        1.5144  -16.2897  -40.8919 H         1 UNK         0.3000 
    165 H165        2.5042  -18.8876  -39.0261 H         1 UNK         0.0600 
    166 H166        4.9036  -18.9723  -39.7121 H         1 UNK         0.0600 
    167 H167        3.9155  -19.9580  -40.7749 H         1 UNK         0.0600 
    168 H168        4.4783  -18.3832  -41.3198 H         1 UNK         0.0600 
    169 H169        4.0108  -16.5323  -39.7881 H         1 UNK         0.3000 
    170 H170        2.1338  -14.1598  -38.0818 H         1 UNK         0.0600 
    171 H171        3.2385  -15.1631  -36.0752 H         1 UNK         0.0600 
    172 H172        4.7251  -15.3856  -36.9899 H         1 UNK         0.0600 
    173 H173        4.1241  -13.7614  -36.6529 H         1 UNK         0.0600 
    174 H174        4.7928  -14.0550  -39.0867 H         1 UNK         0.3000 
    175 H175        4.1886  -12.4850  -41.8011 H         1 UNK         0.0600 
    176 H176        6.1153  -14.7353  -40.9466 H         1 UNK         0.0600 
    177 H177        6.5460  -13.3671  -41.9639 H         1 UNK         0.0600 
    178 H178        6.0977  -13.0935  -40.2969 H         1 UNK         0.0600 
    179 H179        3.4910  -15.0871  -42.6730 H         1 UNK         0.3000 
    180 H180        4.9448  -15.6218  -45.3617 H         1 UNK         0.0600 
    181 H181        2.0131  -15.4090  -44.5059 H         1 UNK         0.0600 
    182 H182        3.1944  -16.5681  -43.8959 H         1 UNK         0.0600 
    183 H183        2.6771  -16.6460  -45.5642 H         1 UNK         0.0600 
    184 H184        4.3413  -14.6004  -47.2098 H         1 UNK         0.3000 
    185 H185        1.7535  -13.0843  -48.4619 H         1 UNK         0.0600 
    186 H186        2.0300  -10.8364  -47.4423 H         1 UNK         0.0600 
    187 H187        3.7762  -10.9281  -47.6433 H         1 UNK         0.0600 
    188 H188        2.7222  -10.8536  -49.0553 H         1 UNK         0.0600 
    189 H189        4.7250  -13.2944  -48.5788 H         1 UNK         0.3000 
    190 H190       -2.3735  -20.4906  -45.2262 H         1 UNK         0.3000 
    191 H191       -4.5687  -21.3521  -46.8520 H         1 UNK         0.0600 
    192 H192       -3.3266  -22.6280  -44.3553 H         1 UNK         0.0600 
    193 H193       -4.8860  -23.0461  -45.0520 H         1 UNK         0.0600 
    194 H194       -4.6315  -21.4456  -44.3734 H         1 UNK         0.0600 
    195 H195       -1.3468  -22.7738  -46.1476 H         1 UNK         0.3000 
    196 H196       -1.6320  -25.1047  -47.7506 H         1 UNK         0.0600 
    197 H197        0.8628  -25.1975  -47.5621 H         1 UNK         0.0600 
    198 H198        0.1036  -24.8932  -46.0071 H         1 UNK         0.0600 
    199 H199        0.8776  -23.5745  -46.8816 H         1 UNK         0.0600 
    200 H200       -0.2553  -21.8571  -48.5100 H         1 UNK         0.3000 
    201 H201        0.4711  -22.4027  -51.1926 H         1 UNK         0.0600 
    202 H202        1.2998  -20.4525  -49.8835 H         1 UNK         0.0600 
    203 H203       -0.3103  -19.7352  -49.9014 H         1 UNK         0.0600 
    204 H204        0.5816  -19.9362  -51.4028 H         1 UNK         0.0600 
    205 H205       -2.5894  -21.1628  -49.8131 H         1 UNK         0.3000 
    206 H206       -3.9662  -20.9286  -52.3269 H         1 UNK         0.0600 
    207 H207       -4.5886  -19.6165  -50.3157 H         1 UNK         0.0600 
    208 H208       -5.9497  -20.5881  -50.8399 H         1 UNK         0.0600 
    209 H209       -5.0024  -21.0945  -49.4488 H         1 UNK         0.0600 
    210 H210       -3.0797  -23.6725  -50.5222 H         1 UNK         0.3000 
    211 H211       -3.6057  -25.8106  -50.3971 H         1 UNK         0.0600 
    212 H212       -4.9400  -25.4702  -53.1375 H         1 UNK         0.0600 
    213 H213       -4.3688  -26.9724  -52.4316 H         1 UNK         0.0600 
    214 H214       -3.2154  -25.7245  -52.8795 H         1 UNK         0.0600 
    215 H215       -5.1432  -24.3383  -48.8354 H         1 UNK         0.3000 
    216 H216       -7.0128  -24.0999  -47.6693 H         1 UNK         0.0600 
    217 H217       -8.4813  -26.0432  -47.3036 H         1 UNK         0.0600 
    218 H218       -6.8106  -26.5790  -47.3678 H         1 UNK         0.0600 
    219 H219       -7.8743  -26.8357  -48.7503 H         1 UNK         0.0600 
    220 H220       -6.9024  -22.9083  -50.1754 H         1 UNK         0.3000 
    221 H221       -7.9980  -21.5329  -51.4815 H         1 UNK         0.0600 
    222 H222      -10.6416  -22.2744  -50.1411 H         1 UNK         0.0600 
    223 H223       -9.5289  -21.0361  -49.5571 H         1 UNK         0.0600 
    224 H224      -10.3088  -20.8550  -51.1186 H         1 UNK         0.0600 
    225 H225       -7.8974  -24.6715  -51.9368 H         1 UNK         0.3000 
    226 H226       -9.8288  -25.0144  -54.0855 H         1 UNK         0.0600 
    227 H227       -8.9192  -26.9315  -52.7240 H         1 UNK         0.0600 
    228 H228       -8.6909  -27.1438  -54.4541 H         1 UNK         0.0600 
    229 H229       -7.3328  -26.6661  -53.4490 H         1 UNK         0.0600 
    230 H230       -6.4554  -23.9350  -53.8050 H         1 UNK         0.3000 
    231 H231       -6.1999  -23.6334  -56.7699 H         1 UNK         0.0600 
    232 H232       -4.3479  -24.8399  -55.6205 H         1 UNK         0.0600 
    233 H233       -4.0838  -23.4600  -54.5570 H         1 UNK         0.0600 
    234 H234       -3.7963  -23.3104  -56.2845 H         1 UNK         0.0600 
    235 H235       -6.2142  -21.9077  -53.6786 H         1 UNK         0.3000 
    236 H236       -6.3832  -19.7903  -53.0367 H         1 UNK         0.0600 
    237 H237       -7.8201  -19.3266  -55.6983 H         1 UNK         0.0600 
    238 H238       -8.5619  -19.9922  -54.2439 H         1 UNK         0.0600 
    239 H239       -7.9649  -18.3413  -54.2480 H         1 UNK         0.0600 
    240 H240       -3.9410  -20.4992  -54.4025 H         1 UNK         0.3000 
    241 H241       -2.0152  -19.7061  -55.0712 H         1 UNK         0.0600 
    242 H242       -3.7457  -19.1775  -58.5004 H         1 UNK         0.3800 
    243 H243       -4.4859  -19.8834  -57.0874 H         1 UNK         0.3800 
    244 H244       -3.0318  -16.8751  -54.5065 H         1 UNK         0.0800 
    245 H245       -1.3956  -17.2769  -54.9400 H         1 UNK         0.0800 
    246 H246       -1.6628  -15.6063  -52.3758 H         1 UNK         0.0800 
    247 H247       -0.2438  -16.2466  -53.1622 H         1 UNK         0.0800 
@<TRIPOS>BOND
     1    1    2 1    
     2    1  127 1    
     3    1  128 1    
     4    1  129 1    
     5    2    3 2    
     6    2    4 am   BACKBONE|DICT|INTERRES
     7    4    5 1    
     8    4  130 1    
     9    5    6 1    
    10    5   65 1    
    11    5  131 1    
    12    6    7 1    
    13    6  132 1    
    14    6  133 1    
    15    7    8 1    
    16    8    9 1    
    17    8  134 1    
    18    8  135 1    
    19    9   10 ar   
    20    9   14 ar   
    21   10   11 ar   
    22   10  136 1    
    23   11   12 ar   
    24   11  126 1    
    25   12   13 ar   
    26   12  137 1    
    27   13   14 ar   
    28   13   15 1    
    29   14  138 1    
    30   15   16 1    
    31   15  139 1    
    32   15  140 1    
    33   16   17 1    
    34   17   18 1    
    35   17  141 1    
    36   17  142 1    
    37   18   19 1    
    38   18   67 1    
    39   18  143 1    
    40   19   20 am   BACKBONE|DICT|INTERRES
    41   19  144 1    
    42   20   21 2    
    43   20   22 1    
    44   22   23 1    
    45   22   24 1    
    46   22  145 1    
    47   23  146 1    
    48   23  147 1    
    49   23  148 1    
    50   24   25 am   BACKBONE|DICT|INTERRES
    51   24  149 1    
    52   25   26 2    
    53   25   27 1    
    54   27   28 1    
    55   27   29 1    
    56   27  150 1    
    57   28  151 1    
    58   28  152 1    
    59   28  153 1    
    60   29   30 am   BACKBONE|DICT|INTERRES
    61   29  154 1    
    62   30   31 2    
    63   30   32 1    
    64   32   33 1    
    65   32   34 1    
    66   32  155 1    
    67   33  156 1    
    68   33  157 1    
    69   33  158 1    
    70   34   35 am   BACKBONE|DICT|INTERRES
    71   34  159 1    
    72   35   36 2    
    73   35   37 1    
    74   37   38 1    
    75   37   39 1    
    76   37  160 1    
    77   38  161 1    
    78   38  162 1    
    79   38  163 1    
    80   39   40 am   BACKBONE|DICT|INTERRES
    81   39  164 1    
    82   40   41 2    
    83   40   42 1    
    84   42   43 1    
    85   42   44 1    
    86   42  165 1    
    87   43  166 1    
    88   43  167 1    
    89   43  168 1    
    90   44   45 am   BACKBONE|DICT|INTERRES
    91   44  169 1    
    92   45   46 2    
    93   45   47 1    
    94   47   48 1    
    95   47   49 1    
    96   47  170 1    
    97   48  171 1    
    98   48  172 1    
    99   48  173 1    
   100   49   50 am   BACKBONE|DICT|INTERRES
   101   49  174 1    
   102   50   51 2    
   103   50   52 1    
   104   52   53 1    
   105   52   54 1    
   106   52  175 1    
   107   53  176 1    
   108   53  177 1    
   109   53  178 1    
   110   54   55 am   BACKBONE|DICT|INTERRES
   111   54  179 1    
   112   55   56 2    
   113   55   57 1    
   114   57   58 1    
   115   57   59 1    
   116   57  180 1    
   117   58  181 1    
   118   58  182 1    
   119   58  183 1    
   120   59   60 am   BACKBONE|DICT|INTERRES
   121   59  184 1    
   122   60   61 2    
   123   60   62 1    
   124   62   63 1    
   125   62   64 1    
   126   62  185 1    
   127   63  186 1    
   128   63  187 1    
   129   63  188 1    
   130   64   65 am   BACKBONE|DICT|INTERRES
   131   64  189 1    
   132   65   66 2    
   133   67   68 2    
   134   67   69 am   BACKBONE|DICT|INTERRES
   135   69   70 1    
   136   69  190 1    
   137   70   71 1    
   138   70   72 1    
   139   70  191 1    
   140   71  192 1    
   141   71  193 1    
   142   71  194 1    
   143   72   73 2    
   144   72   74 am   BACKBONE|DICT|INTERRES
   145   74   75 1    
   146   74  195 1    
   147   75   76 1    
   148   75   77 1    
   149   75  196 1    
   150   76  197 1    
   151   76  198 1    
   152   76  199 1    
   153   77   78 2    
   154   77   79 am   BACKBONE|DICT|INTERRES
   155   79   80 1    
   156   79  200 1    
   157   80   81 1    
   158   80   82 1    
   159   80  201 1    
   160   81  202 1    
   161   81  203 1    
   162   81  204 1    
   163   82   83 2    
   164   82   84 am   BACKBONE|DICT|INTERRES
   165   84   85 1    
   166   84  205 1    
   167   85   86 1    
   168   85   87 1    
   169   85  206 1    
   170   86  207 1    
   171   86  208 1    
   172   86  209 1    
   173   87   88 2    
   174   87   89 am   BACKBONE|DICT|INTERRES
   175   89   90 1    
   176   89  210 1    
   177   90   91 1    
   178   90   92 1    
   179   90  211 1    
   180   91  212 1    
   181   91  213 1    
   182   91  214 1    
   183   92   93 2    
   184   92   94 am   BACKBONE|DICT|INTERRES
   185   94   95 1    
   186   94  215 1    
   187   95   96 1    
   188   95   97 1    
   189   95  216 1    
   190   96  217 1    
   191   96  218 1    
   192   96  219 1    
   193   97   98 2    
   194   97   99 am   BACKBONE|DICT|INTERRES
   195   99  100 1    
   196   99  220 1    
   197  100  101 1    
   198  100  102 1    
   199  100  221 1    
   200  101  222 1    
   201  101  223 1    
   202  101  224 1    
   203  102  103 2    
   204  102  104 am   BACKBONE|DICT|INTERRES
   205  104  105 1    
   206  104  225 1    
   207  105  106 1    
   208  105  107 1    
   209  105  226 1    
   210  106  227 1    
   211  106  228 1    
   212  106  229 1    
   213  107  108 2    
   214  107  109 am   BACKBONE|DICT|INTERRES
   215  109  110 1    
   216  109  230 1    
   217  110  111 1    
   218  110  112 1    
   219  110  231 1    
   220  111  232 1    
   221  111  233 1    
   222  111  234 1    
   223  112  113 2    
   224  112  114 am   BACKBONE|DICT|INTERRES
   225  114  115 1    
   226  114  235 1    
   227  115  116 1    
   228  115  117 1    
   229  115  236 1    
   230  116  237 1    
   231  116  238 1    
   232  116  239 1    
   233  117  118 2    
   234  117  119 am   BACKBONE|DICT|INTERRES
   235  119  120 1    
   236  119  240 1    
   237  120  121 1    
   238  120  124 1    
   239  120  241 1    
   240  121  122 am   BACKBONE|DICT|INTERRES
   241  121  123 2    
   242  122  242 1    
   243  122  243 1    
   244  124  125 1    
   245  124  244 1    
   246  124  245 1    
   247  125  126 1    
   248  126  246 1    
   249  126  247 1    
@<TRIPOS>SUBSTRUCTURE
     1 UNK         1 GROUP             0       ****    0 ROOT    
