@<TRIPOS>MOLECULE
3R540
247   249    1
SMALL
USER_CHARGES


@<TRIPOS>ATOM
      1 CA          1.7055   -9.8040  -52.3328 C.3       0 UNK        -0.1800 
      2 C           2.3538  -10.7770  -51.3586 C.2       0 UNK         0.5000 
      3 O           1.6997  -11.2298  -50.4188 O.2       0 UNK        -0.5000 
      4 N           3.6403  -11.0883  -51.5682 N.am      1 UNK        -0.5000 
      5 CA          4.4863  -12.0096  -50.7927 C.3       1 UNK         0.1400 
      6 C6          3.9000  -13.4441  -50.6971 C.3       23 UNK        -0.0398 
      7 S7          5.1726  -14.7196  -50.4026 S.3       23 UNK        -0.2404 
      8 C8          4.4493  -16.1602  -51.2504 C.3       23 UNK        -0.0205 
      9 C9          3.1607  -16.6179  -50.5835 C.ar      23 UNK        -0.0193 
     10 C10         1.9214  -16.2778  -51.1322 C.ar      23 UNK        -0.1150 
     11 C11         0.7351  -16.6792  -50.5116 C.ar      23 UNK        -0.0193 
     12 C12         0.7931  -17.4265  -49.3320 C.ar      23 UNK        -0.1150 
     13 C13         2.0281  -17.7860  -48.7828 C.ar      23 UNK        -0.0193 
     14 C14         3.2074  -17.3798  -49.4135 C.ar      23 UNK        -0.1150 
     15 C15         2.0964  -18.5898  -47.4955 C.3       23 UNK        -0.0205 
     16 S16         1.9128  -20.3769  -47.7898 S.3       23 UNK        -0.2404 
     17 C17         0.1002  -20.5685  -47.9003 C.3       23 UNK        -0.0398 
     18 CA         -0.3748  -21.8947  -47.2596 C.3       11 UNK         0.1400 
     19 N          -0.1934  -21.9139  -45.8030 N.am      11 UNK        -0.5000 
     20 C          -0.3438  -22.9942  -45.0248 C.2       10 UNK         0.5000 
     21 O          -0.6210  -24.1108  -45.4583 O.2       10 UNK        -0.5000 
     22 CA         -0.2211  -22.7876  -43.5047 C.3       10 UNK         0.1400 
     23 CB          1.2493  -22.7249  -43.0643 C.3       10 UNK        -0.1800 
     24 N          -0.9334  -21.5927  -43.0512 N.am      10 UNK        -0.5000 
     25 C          -2.2682  -21.4681  -43.0516 C.2       9 UNK         0.5000 
     26 O          -3.0354  -22.3642  -43.4044 O.2       9 UNK        -0.5000 
     27 CA         -2.8426  -20.1033  -42.6241 C.3       9 UNK         0.1400 
     28 CB         -2.9039  -19.9964  -41.0934 C.3       9 UNK        -0.1800 
     29 N          -2.0851  -18.9712  -43.1581 N.am      9 UNK        -0.5000 
     30 C          -1.9363  -18.7021  -44.4629 C.2       8 UNK         0.5000 
     31 O          -2.4715  -19.3481  -45.3616 O.2       8 UNK        -0.5000 
     32 CA         -0.9656  -17.5670  -44.8311 C.3       8 UNK         0.1400 
     33 CB         -1.6555  -16.2006  -44.7274 C.3       8 UNK        -0.1800 
     34 N           0.2563  -17.5782  -44.0216 N.am      8 UNK        -0.5000 
     35 C           1.1074  -18.6126  -43.9408 C.2       7 UNK         0.5000 
     36 O           0.9588  -19.6630  -44.5595 O.2       7 UNK        -0.5000 
     37 CA          2.3055  -18.4722  -42.9934 C.3       7 UNK         0.1400 
     38 CB          3.4384  -17.7002  -43.6742 C.3       7 UNK        -0.1800 
     39 N           1.9243  -17.8026  -41.7540 N.am      7 UNK        -0.5000 
     40 C           1.2644  -18.4051  -40.7562 C.2       6 UNK         0.5000 
     41 O           0.9646  -19.5998  -40.7551 O.2       6 UNK        -0.5000 
     42 CA          0.8375  -17.5100  -39.5789 C.3       6 UNK         0.1400 
     43 CB          1.9913  -17.3393  -38.5792 C.3       6 UNK        -0.1800 
     44 N           0.3701  -16.1910  -40.0103 N.am      6 UNK        -0.5000 
     45 C          -0.7284  -15.9842  -40.7491 C.2       5 UNK         0.5000 
     46 O          -1.4662  -16.8862  -41.1473 O.2       5 UNK        -0.5000 
     47 CA         -1.0432  -14.5263  -41.1296 C.3       5 UNK         0.1400 
     48 CB         -1.8589  -13.8499  -40.0174 C.3       5 UNK        -0.1800 
     49 N           0.1282  -13.6991  -41.4383 N.am      5 UNK        -0.5000 
     50 C           1.0437  -13.9509  -42.3849 C.2       4 UNK         0.5000 
     51 O           1.0880  -15.0007  -43.0309 O.2       4 UNK        -0.5000 
     52 CA          2.0423  -12.8088  -42.6596 C.3       4 UNK         0.1400 
     53 CB          2.9751  -12.5546  -41.4565 C.3       4 UNK        -0.1800 
     54 N           2.7862  -12.9850  -43.9143 N.am      4 UNK        -0.5000 
     55 C           3.8138  -13.8078  -44.1766 C.2       3 UNK         0.5000 
     56 O           4.3717  -14.5135  -43.3364 O.2       3 UNK        -0.5000 
     57 CA          4.3216  -13.8419  -45.6348 C.3       3 UNK         0.1400 
     58 CB          3.8042  -15.0904  -46.3694 C.3       3 UNK        -0.1800 
     59 N           3.9569  -12.6605  -46.4206 N.am      3 UNK        -0.5000 
     60 C           4.4947  -11.4410  -46.2765 C.2       2 UNK         0.5000 
     61 O           5.3225  -11.1575  -45.4088 O.2       2 UNK        -0.5000 
     62 CA          4.0270  -10.3781  -47.2948 C.3       2 UNK         0.1400 
     63 CB          4.8874   -9.0974  -47.2783 C.3       2 UNK        -0.1800 
     64 N           3.9167  -10.9180  -48.6562 N.am      2 UNK        -0.5000 
     65 C           4.8911  -11.4550  -49.4067 C.2       1 UNK         0.5000 
     66 O           6.0712  -11.5134  -49.0583 O.2       1 UNK        -0.5000 
     67 C          -1.8268  -22.2213  -47.6683 C.2       11 UNK         0.5000 
     68 O          -2.0301  -22.9151  -48.6660 O.2       11 UNK        -0.5000 
     69 N          -2.8066  -21.7605  -46.8787 N.am      12 UNK        -0.5000 
     70 CA         -4.2196  -22.0937  -47.0423 C.3       12 UNK         0.1400 
     71 CB         -5.0843  -21.1734  -46.1678 C.3       12 UNK        -0.1800 
     72 C          -4.5109  -23.5737  -46.7489 C.2       12 UNK         0.5000 
     73 O          -5.1993  -24.2171  -47.5405 O.2       12 UNK        -0.5000 
     74 N          -3.9497  -24.0988  -45.6498 N.am      13 UNK        -0.5000 
     75 CA         -4.0513  -25.5072  -45.2565 C.3       13 UNK         0.1400 
     76 CB         -3.4654  -25.6910  -43.8485 C.3       13 UNK        -0.1800 
     77 C          -3.3757  -26.4624  -46.2598 C.2       13 UNK         0.5000 
     78 O          -3.9162  -27.5324  -46.5415 O.2       13 UNK        -0.5000 
     79 N          -2.2261  -26.0427  -46.8046 N.am      14 UNK        -0.5000 
     80 CA         -1.4861  -26.7419  -47.8566 C.3       14 UNK         0.1400 
     81 CB         -0.0570  -26.1791  -47.9132 C.3       14 UNK        -0.1800 
     82 C          -2.1469  -26.6447  -49.2466 C.2       14 UNK         0.5000 
     83 O          -1.7778  -27.4155  -50.1334 O.2       14 UNK        -0.5000 
     84 N          -3.0873  -25.7014  -49.4137 N.am      15 UNK        -0.5000 
     85 CA         -3.7897  -25.3450  -50.6489 C.3       15 UNK         0.1400 
     86 CB         -4.7017  -26.4990  -51.1135 C.3       15 UNK        -0.1800 
     87 C          -2.8100  -24.8579  -51.7358 C.2       15 UNK         0.5000 
     88 O          -2.8017  -25.3803  -52.8521 O.2       15 UNK        -0.5000 
     89 N          -1.9833  -23.8659  -51.3729 N.am      16 UNK        -0.5000 
     90 CA         -0.8775  -23.3268  -52.1746 C.3       16 UNK         0.1400 
     91 CB         -0.1382  -22.2630  -51.3496 C.3       16 UNK        -0.1800 
     92 C          -1.2719  -22.7565  -53.5534 C.2       16 UNK         0.5000 
     93 O          -0.4352  -22.7449  -54.4570 O.2       16 UNK        -0.5000 
     94 N          -2.5296  -22.3211  -53.6981 N.am      17 UNK        -0.5000 
     95 CA         -3.1306  -21.8898  -54.9623 C.3       17 UNK         0.1400 
     96 CB         -3.3733  -20.3706  -54.9276 C.3       17 UNK        -0.1800 
     97 C          -4.4173  -22.6903  -55.2392 C.2       17 UNK         0.5000 
     98 O          -5.3818  -22.1408  -55.7738 O.2       17 UNK        -0.5000 
     99 N          -4.4205  -23.9725  -54.8442 N.am      18 UNK        -0.5000 
    100 CA        -5.5388  -24.9144  -54.9197 C.3       18 UNK         0.1400 
    101 CB        -5.8574  -25.2683  -56.3905 C.3       18 UNK        -0.1800 
    102 C         -6.7492  -24.4126  -54.1036 C.2       18 UNK         0.5000 
    103 O         -6.5629  -23.9477  -52.9761 O.2       18 UNK        -0.5000 
    104 N         -7.9556  -24.4930  -54.6807 N.am      19 UNK        -0.5000 
    105 CA        -9.2318  -24.1129  -54.0671 C.3       19 UNK         0.1400 
    106 CB       -10.3719  -24.4973  -55.0229 C.3       19 UNK        -0.1800 
    107 C         -9.3448  -22.6277  -53.6648 C.2       19 UNK         0.5000 
    108 O        -10.1787  -22.2994  -52.8200 O.2       19 UNK        -0.5000 
    109 N         -8.5060  -21.7599  -54.2501 N.am      20 UNK        -0.5000 
    110 CA        -8.3986  -20.3466  -53.8831 C.3       20 UNK         0.1400 
    111 CB        -7.6814  -19.5839  -55.0076 C.3       20 UNK        -0.1800 
    112 C         -7.6770  -20.1242  -52.5385 C.2       20 UNK         0.5000 
    113 O         -7.8009  -19.0385  -51.9692 O.2       20 UNK        -0.5000 
    114 N         -6.9155  -21.1288  -52.0677 N.am      21 UNK        -0.5000 
    115 CA        -6.1908  -21.1769  -50.7879 C.3       21 UNK         0.1400 
    116 CB        -7.1986  -21.2524  -49.6231 C.3       21 UNK        -0.1800 
    117 C         -5.1540  -20.0446  -50.5970 C.2       21 UNK         0.5000 
    118 O         -4.7724  -19.7395  -49.4680 O.2       21 UNK        -0.5000 
    119 N         -4.7294  -19.4336  -51.7094 N.am      22 UNK        -0.5000 
    120 CA        -3.9060  -18.2172  -51.7758 C.3       22 UNK         0.1400 
    121 C         -4.6128  -16.9335  -51.2324 C.2       22 UNK         0.5000 
    122 N         -5.9380  -16.8997  -51.1377 N.am      22 UNK        -0.7600 
    123 O         -3.9649  -15.9401  -50.9172 O.2       22 UNK        -0.5000 
    124 C124       -2.4662  -18.4385  -51.2248 C.3       23 UNK        -0.0398 
    125 S125       -1.2108  -17.5907  -52.2451 S.3       23 UNK        -0.2404 
    126 C126       -0.6036  -16.2953  -51.1196 C.3       23 UNK        -0.0205 
    127 H127        0.8468  -10.2723  -52.8140 H         1 UNK         0.0600 
    128 H128        2.3996   -9.4853  -53.1109 H         1 UNK         0.0600 
    129 H129        1.3587   -8.9174  -51.8018 H         1 UNK         0.0600 
    130 H130        4.1147  -10.6444  -52.3428 H         1 UNK         0.3000 
    131 H131        5.4073  -12.0732  -51.3752 H         1 UNK         0.0600 
    132 H132        3.1347  -13.5169  -49.9224 H         1 UNK         0.0800 
    133 H133        3.3983  -13.6863  -51.6346 H         1 UNK         0.0800 
    134 H134        4.2788  -15.9203  -52.3011 H         1 UNK         0.0800 
    135 H135        5.1729  -16.9766  -51.2390 H         1 UNK         0.0800 
    136 H136        1.8783  -15.6964  -52.0424 H         1 UNK         0.1150 
    137 H137       -0.1227  -17.7316  -48.8466 H         1 UNK         0.1150 
    138 H138        4.1650  -17.6451  -48.9876 H         1 UNK         0.1150 
    139 H139        3.0529  -18.4183  -47.0001 H         1 UNK         0.0800 
    140 H140        1.3365  -18.2364  -46.8032 H         1 UNK         0.0800 
    141 H141       -0.1668  -20.5212  -48.9566 H         1 UNK         0.0800 
    142 H142       -0.3974  -19.7246  -47.4208 H         1 UNK         0.0800 
    143 H143        0.2422  -22.6982  -47.6673 H         1 UNK         0.0600 
    144 H144        0.0975  -21.0399  -45.3680 H         1 UNK         0.3000 
    145 H145       -0.6761  -23.6518  -43.0161 H         1 UNK         0.0600 
    146 H146        1.3325  -22.5987  -41.9846 H         1 UNK         0.0600 
    147 H147        1.7853  -21.9035  -43.5385 H         1 UNK         0.0600 
    148 H148        1.7704  -23.6465  -43.3260 H         1 UNK         0.0600 
    149 H149       -0.3682  -20.7989  -42.7833 H         1 UNK         0.3000 
    150 H150       -3.8607  -20.0357  -43.0125 H         1 UNK         0.0600 
    151 H151       -3.4710  -20.8239  -40.6651 H         1 UNK         0.0600 
    152 H152       -3.3915  -19.0721  -40.7829 H         1 UNK         0.0600 
    153 H153       -1.9079  -20.0131  -40.6488 H         1 UNK         0.0600 
    154 H154       -1.6465  -18.3546  -42.4804 H         1 UNK         0.3000 
    155 H155       -0.6735  -17.7106  -45.8717 H         1 UNK         0.0600 
    156 H156       -2.4974  -16.1394  -45.4180 H         1 UNK         0.0600 
    157 H157       -0.9711  -15.3888  -44.9743 H         1 UNK         0.0600 
    158 H158       -2.0446  -16.0247  -43.7260 H         1 UNK         0.0600 
    159 H159        0.4798  -16.7222  -43.5202 H         1 UNK         0.3000 
    160 H160        2.6734  -19.4732  -42.7572 H         1 UNK         0.0600 
    161 H161        3.0996  -16.7137  -43.9853 H         1 UNK         0.0600 
    162 H162        3.7906  -18.2251  -44.5627 H         1 UNK         0.0600 
    163 H163        4.2918  -17.5706  -43.0085 H         1 UNK         0.0600 
    164 H164        2.0792  -16.8049  -41.7093 H         1 UNK         0.3000 
    165 H165        0.0121  -18.0089  -39.0663 H         1 UNK         0.0600 
    166 H166        1.6731  -16.7750  -37.7024 H         1 UNK         0.0600 
    167 H167        2.3498  -18.3080  -38.2284 H         1 UNK         0.0600 
    168 H168        2.8387  -16.8174  -39.0257 H         1 UNK         0.0600 
    169 H169        0.9230  -15.3929  -39.7343 H         1 UNK         0.3000 
    170 H170       -1.6630  -14.5491  -42.0265 H         1 UNK         0.0600 
    171 H171       -1.2796  -13.7460  -39.0992 H         1 UNK         0.0600 
    172 H172       -2.1919  -12.8568  -40.3194 H         1 UNK         0.0600 
    173 H173       -2.7513  -14.4303  -39.7787 H         1 UNK         0.0600 
    174 H174        0.1772  -12.8158  -40.9514 H         1 UNK         0.3000 
    175 H175        1.4476  -11.9062  -42.8082 H         1 UNK         0.0600 
    176 H176        3.4960  -13.4596  -41.1428 H         1 UNK         0.0600 
    177 H177        3.7248  -11.7986  -41.6904 H         1 UNK         0.0600 
    178 H178        2.4136  -12.1941  -40.5942 H         1 UNK         0.0600 
    179 H179        2.4114  -12.4771  -44.7020 H         1 UNK         0.3000 
    180 H180        5.4118  -13.8972  -45.6013 H         1 UNK         0.0600 
    181 H181        4.1148  -15.0947  -47.4145 H         1 UNK         0.0600 
    182 H182        2.7156  -15.1562  -46.3424 H         1 UNK         0.0600 
    183 H183        4.2034  -15.9986  -45.9191 H         1 UNK         0.0600 
    184 H184        3.2904  -12.8037  -47.1649 H         1 UNK         0.3000 
    185 H185        3.0165  -10.0962  -46.9956 H         1 UNK         0.0600 
    186 H186        4.5210   -8.3677  -48.0003 H         1 UNK         0.0600 
    187 H187        4.8614   -8.6226  -46.2968 H         1 UNK         0.0600 
    188 H188        5.9319   -9.3052  -47.5120 H         1 UNK         0.0600 
    189 H189        2.9829  -10.9248  -49.0599 H         1 UNK         0.3000 
    190 H190       -2.5756  -21.1194  -46.1252 H         1 UNK         0.3000 
    191 H191       -4.4796  -21.9177  -48.0859 H         1 UNK         0.0600 
    192 H192       -4.9683  -20.1313  -46.4663 H         1 UNK         0.0600 
    193 H193       -4.8209  -21.2510  -45.1133 H         1 UNK         0.0600 
    194 H194       -6.1419  -21.4221  -46.2609 H         1 UNK         0.0600 
    195 H195       -3.4287  -23.4904  -45.0257 H         1 UNK         0.3000 
    196 H196       -5.1116  -25.7652  -45.2182 H         1 UNK         0.0600 
    197 H197       -3.9917  -25.0746  -43.1195 H         1 UNK         0.0600 
    198 H198       -2.4095  -25.4218  -43.8129 H         1 UNK         0.0600 
    199 H199       -3.5518  -26.7278  -43.5213 H         1 UNK         0.0600 
    200 H200       -1.8034  -25.1887  -46.4480 H         1 UNK         0.3000 
    201 H201       -1.4279  -27.7997  -47.5923 H         1 UNK         0.0600 
    202 H202        0.4484  -26.2862  -46.9533 H         1 UNK         0.0600 
    203 H203       -0.0549  -25.1212  -48.1777 H         1 UNK         0.0600 
    204 H204        0.5435  -26.7047  -48.6566 H         1 UNK         0.0600 
    205 H205       -3.2985  -25.1151  -48.6169 H         1 UNK         0.3000 
    206 H206       -4.4316  -24.4968  -50.4060 H         1 UNK         0.0600 
    207 H207       -4.1301  -27.3733  -51.4256 H         1 UNK         0.0600 
    208 H208       -5.3793  -26.8075  -50.3174 H         1 UNK         0.0600 
    209 H209       -5.3160  -26.1931  -51.9594 H         1 UNK         0.0600 
    210 H210       -2.0454  -23.5207  -50.4165 H         1 UNK         0.3000 
    211 H211       -0.1864  -24.1517  -52.3590 H         1 UNK         0.0600 
    212 H212       -0.7981  -21.4368  -51.0863 H         1 UNK         0.0600 
    213 H213        0.7041  -21.8470  -51.9040 H         1 UNK         0.0600 
    214 H214        0.2595  -22.6854  -50.4267 H         1 UNK         0.0600 
    215 H215       -3.1506  -22.3904  -52.9055 H         1 UNK         0.3000 
    216 H216       -2.4576  -22.1029  -55.7950 H         1 UNK         0.0600 
    217 H217       -3.6604  -20.0012  -55.9128 H         1 UNK         0.0600 
    218 H218       -2.4763  -19.8294  -54.6256 H         1 UNK         0.0600 
    219 H219       -4.1747  -20.1104  -54.2400 H         1 UNK         0.0600 
    220 H220       -3.6051  -24.3281  -54.3547 H         1 UNK         0.3000 
    221 H221       -5.2009  -25.8276  -54.4285 H         1 UNK         0.0600 
    222 H222       -6.2565  -24.4171  -56.9434 H         1 UNK         0.0600 
    223 H223       -4.9605  -25.6053  -56.9104 H         1 UNK         0.0600 
    224 H224       -6.5828  -26.0802  -56.4551 H         1 UNK         0.0600 
    225 H225       -8.0081  -24.8644  -55.6182 H         1 UNK         0.3000 
    226 H226       -9.3410  -24.6993  -53.1525 H         1 UNK         0.0600 
    227 H227      -10.3652  -25.5662  -55.2371 H         1 UNK         0.0600 
    228 H228      -11.3445  -24.2619  -54.5883 H         1 UNK         0.0600 
    229 H229      -10.2982  -23.9630  -55.9709 H         1 UNK         0.0600 
    230 H230       -7.8413  -22.1062  -54.9291 H         1 UNK         0.3000 
    231 H231       -9.4060  -19.9364  -53.7861 H         1 UNK         0.0600 
    232 H232       -7.6539  -18.5140  -54.7968 H         1 UNK         0.0600 
    233 H233       -8.1925  -19.7127  -55.9617 H         1 UNK         0.0600 
    234 H234       -6.6513  -19.9175  -55.1307 H         1 UNK         0.0600 
    235 H235       -6.8825  -21.9912  -52.6032 H         1 UNK         0.3000 
    236 H236       -5.6228  -22.1082  -50.7949 H         1 UNK         0.0600 
    237 H237       -7.7613  -20.3247  -49.5157 H         1 UNK         0.0600 
    238 H238       -7.9127  -22.0621  -49.7739 H         1 UNK         0.0600 
    239 H239       -6.6986  -21.4404  -48.6746 H         1 UNK         0.0600 
    240 H240       -5.1296  -19.7382  -52.5832 H         1 UNK         0.3000 
    241 H241       -3.8229  -18.0298  -52.8467 H         1 UNK         0.0600 
    242 H242       -6.5100  -17.6967  -51.4015 H         1 UNK         0.3800 
    243 H243       -6.3833  -16.0637  -50.7949 H         1 UNK         0.3800 
    244 H244       -2.3896  -18.1531  -50.1745 H         1 UNK         0.0800 
    245 H245       -2.2135  -19.4985  -51.2550 H         1 UNK         0.0800 
    246 H246       -1.3305  -16.0864  -50.3339 H         1 UNK         0.0800 
    247 H247       -0.5016  -15.3666  -51.6829 H         1 UNK         0.0800 
@<TRIPOS>BOND
     1    1    2 1    
     2    1  127 1    
     3    1  128 1    
     4    1  129 1    
     5    2    3 2    
     6    2    4 am   BACKBONE|DICT|INTERRES
     7    4    5 1    
     8    4  130 1    
     9    5    6 1    
    10    5   65 1    
    11    5  131 1    
    12    6    7 1    
    13    6  132 1    
    14    6  133 1    
    15    7    8 1    
    16    8    9 1    
    17    8  134 1    
    18    8  135 1    
    19    9   10 ar   
    20    9   14 ar   
    21   10   11 ar   
    22   10  136 1    
    23   11   12 ar   
    24   11  126 1    
    25   12   13 ar   
    26   12  137 1    
    27   13   14 ar   
    28   13   15 1    
    29   14  138 1    
    30   15   16 1    
    31   15  139 1    
    32   15  140 1    
    33   16   17 1    
    34   17   18 1    
    35   17  141 1    
    36   17  142 1    
    37   18   19 1    
    38   18   67 1    
    39   18  143 1    
    40   19   20 am   BACKBONE|DICT|INTERRES
    41   19  144 1    
    42   20   21 2    
    43   20   22 1    
    44   22   23 1    
    45   22   24 1    
    46   22  145 1    
    47   23  146 1    
    48   23  147 1    
    49   23  148 1    
    50   24   25 am   BACKBONE|DICT|INTERRES
    51   24  149 1    
    52   25   26 2    
    53   25   27 1    
    54   27   28 1    
    55   27   29 1    
    56   27  150 1    
    57   28  151 1    
    58   28  152 1    
    59   28  153 1    
    60   29   30 am   BACKBONE|DICT|INTERRES
    61   29  154 1    
    62   30   31 2    
    63   30   32 1    
    64   32   33 1    
    65   32   34 1    
    66   32  155 1    
    67   33  156 1    
    68   33  157 1    
    69   33  158 1    
    70   34   35 am   BACKBONE|DICT|INTERRES
    71   34  159 1    
    72   35   36 2    
    73   35   37 1    
    74   37   38 1    
    75   37   39 1    
    76   37  160 1    
    77   38  161 1    
    78   38  162 1    
    79   38  163 1    
    80   39   40 am   BACKBONE|DICT|INTERRES
    81   39  164 1    
    82   40   41 2    
    83   40   42 1    
    84   42   43 1    
    85   42   44 1    
    86   42  165 1    
    87   43  166 1    
    88   43  167 1    
    89   43  168 1    
    90   44   45 am   BACKBONE|DICT|INTERRES
    91   44  169 1    
    92   45   46 2    
    93   45   47 1    
    94   47   48 1    
    95   47   49 1    
    96   47  170 1    
    97   48  171 1    
    98   48  172 1    
    99   48  173 1    
   100   49   50 am   BACKBONE|DICT|INTERRES
   101   49  174 1    
   102   50   51 2    
   103   50   52 1    
   104   52   53 1    
   105   52   54 1    
   106   52  175 1    
   107   53  176 1    
   108   53  177 1    
   109   53  178 1    
   110   54   55 am   BACKBONE|DICT|INTERRES
   111   54  179 1    
   112   55   56 2    
   113   55   57 1    
   114   57   58 1    
   115   57   59 1    
   116   57  180 1    
   117   58  181 1    
   118   58  182 1    
   119   58  183 1    
   120   59   60 am   BACKBONE|DICT|INTERRES
   121   59  184 1    
   122   60   61 2    
   123   60   62 1    
   124   62   63 1    
   125   62   64 1    
   126   62  185 1    
   127   63  186 1    
   128   63  187 1    
   129   63  188 1    
   130   64   65 am   BACKBONE|DICT|INTERRES
   131   64  189 1    
   132   65   66 2    
   133   67   68 2    
   134   67   69 am   BACKBONE|DICT|INTERRES
   135   69   70 1    
   136   69  190 1    
   137   70   71 1    
   138   70   72 1    
   139   70  191 1    
   140   71  192 1    
   141   71  193 1    
   142   71  194 1    
   143   72   73 2    
   144   72   74 am   BACKBONE|DICT|INTERRES
   145   74   75 1    
   146   74  195 1    
   147   75   76 1    
   148   75   77 1    
   149   75  196 1    
   150   76  197 1    
   151   76  198 1    
   152   76  199 1    
   153   77   78 2    
   154   77   79 am   BACKBONE|DICT|INTERRES
   155   79   80 1    
   156   79  200 1    
   157   80   81 1    
   158   80   82 1    
   159   80  201 1    
   160   81  202 1    
   161   81  203 1    
   162   81  204 1    
   163   82   83 2    
   164   82   84 am   BACKBONE|DICT|INTERRES
   165   84   85 1    
   166   84  205 1    
   167   85   86 1    
   168   85   87 1    
   169   85  206 1    
   170   86  207 1    
   171   86  208 1    
   172   86  209 1    
   173   87   88 2    
   174   87   89 am   BACKBONE|DICT|INTERRES
   175   89   90 1    
   176   89  210 1    
   177   90   91 1    
   178   90   92 1    
   179   90  211 1    
   180   91  212 1    
   181   91  213 1    
   182   91  214 1    
   183   92   93 2    
   184   92   94 am   BACKBONE|DICT|INTERRES
   185   94   95 1    
   186   94  215 1    
   187   95   96 1    
   188   95   97 1    
   189   95  216 1    
   190   96  217 1    
   191   96  218 1    
   192   96  219 1    
   193   97   98 2    
   194   97   99 am   BACKBONE|DICT|INTERRES
   195   99  100 1    
   196   99  220 1    
   197  100  101 1    
   198  100  102 1    
   199  100  221 1    
   200  101  222 1    
   201  101  223 1    
   202  101  224 1    
   203  102  103 2    
   204  102  104 am   BACKBONE|DICT|INTERRES
   205  104  105 1    
   206  104  225 1    
   207  105  106 1    
   208  105  107 1    
   209  105  226 1    
   210  106  227 1    
   211  106  228 1    
   212  106  229 1    
   213  107  108 2    
   214  107  109 am   BACKBONE|DICT|INTERRES
   215  109  110 1    
   216  109  230 1    
   217  110  111 1    
   218  110  112 1    
   219  110  231 1    
   220  111  232 1    
   221  111  233 1    
   222  111  234 1    
   223  112  113 2    
   224  112  114 am   BACKBONE|DICT|INTERRES
   225  114  115 1    
   226  114  235 1    
   227  115  116 1    
   228  115  117 1    
   229  115  236 1    
   230  116  237 1    
   231  116  238 1    
   232  116  239 1    
   233  117  118 2    
   234  117  119 am   BACKBONE|DICT|INTERRES
   235  119  120 1    
   236  119  240 1    
   237  120  121 1    
   238  120  124 1    
   239  120  241 1    
   240  121  122 am   BACKBONE|DICT|INTERRES
   241  121  123 2    
   242  122  242 1    
   243  122  243 1    
   244  124  125 1    
   245  124  244 1    
   246  124  245 1    
   247  125  126 1    
   248  126  246 1    
   249  126  247 1    
@<TRIPOS>SUBSTRUCTURE
     1 UNK         1 GROUP             0       ****    0 ROOT    
