@<TRIPOS>MOLECULE
3R540
247   249    1
SMALL
USER_CHARGES


@<TRIPOS>ATOM
      1 CA         -4.0516  -15.4626  -46.8406 C.3       0 UNK        -0.1800 
      2 C          -3.3137  -14.1329  -46.7663 C.2       0 UNK         0.5000 
      3 O          -3.9496  -13.0849  -46.6504 O.2       0 UNK        -0.5000 
      4 N          -1.9771  -14.1692  -46.8323 N.am      1 UNK        -0.5000 
      5 CA         -1.0969  -13.0004  -46.7514 C.3       1 UNK         0.1400 
      6 C6          0.2889  -13.2547  -47.4011 C.3       23 UNK        -0.0398 
      7 S7          0.1638  -13.8095  -49.1349 S.3       23 UNK        -0.2404 
      8 C8          0.6669  -15.5535  -48.9919 C.3       23 UNK        -0.0205 
      9 C9         -0.1680  -16.4387  -49.8985 C.ar      23 UNK        -0.0193 
     10 C10         0.1973  -16.6276  -51.2351 C.ar      23 UNK        -0.1150 
     11 C11        -0.5717  -17.4427  -52.0706 C.ar      23 UNK        -0.0193 
     12 C12        -1.7145  -18.0616  -51.5557 C.ar      23 UNK        -0.1150 
     13 C13        -2.0831  -17.8919  -50.2201 C.ar      23 UNK        -0.0193 
     14 C14        -1.3046  -17.0783  -49.3945 C.ar      23 UNK        -0.1150 
     15 C15        -3.3232  -18.5886  -49.6802 C.3       23 UNK        -0.0205 
     16 S16        -3.0276  -20.3573  -49.3675 S.3       23 UNK        -0.2404 
     17 C17        -1.9861  -20.2841  -47.8708 C.3       23 UNK        -0.0398 
     18 CA         -1.6185  -21.6796  -47.3098 C.3       11 UNK         0.1400 
     19 N          -0.5520  -21.5916  -46.3071 N.am      11 UNK        -0.5000 
     20 C           0.0686  -22.6427  -45.7506 C.2       10 UNK         0.5000 
     21 O          -0.1536  -23.8124  -46.0607 O.2       10 UNK        -0.5000 
     22 CA          1.0635  -22.3408  -44.6150 C.3       10 UNK         0.1400 
     23 CB          2.4099  -21.8601  -45.1753 C.3       10 UNK        -0.1800 
     24 N           0.5441  -21.3566  -43.6653 N.am      10 UNK        -0.5000 
     25 C          -0.5464  -21.5324  -42.9060 C.2       9 UNK         0.5000 
     26 O          -1.2036  -22.5710  -42.8831 O.2       9 UNK        -0.5000 
     27 CA         -1.0169  -20.3288  -42.0737 C.3       9 UNK         0.1400 
     28 CB         -0.2413  -20.2322  -40.7511 C.3       9 UNK        -0.1800 
     29 N          -0.9020  -19.0713  -42.8113 N.am      9 UNK        -0.5000 
     30 C          -1.6322  -18.7534  -43.8899 C.2       8 UNK         0.5000 
     31 O          -2.4996  -19.4814  -44.3731 O.2       8 UNK        -0.5000 
     32 CA         -1.2989  -17.4111  -44.5657 C.3       8 UNK         0.1400 
     33 CB         -1.9397  -16.2478  -43.7938 C.3       8 UNK        -0.1800 
     34 N           0.1442  -17.1893  -44.6746 N.am      8 UNK        -0.5000 
     35 C           0.9663  -17.9360  -45.4266 C.2       7 UNK         0.5000 
     36 O           0.5773  -18.8367  -46.1701 O.2       7 UNK        -0.5000 
     37 CA          2.4776  -17.6677  -45.2826 C.3       7 UNK         0.1400 
     38 CB          2.9492  -16.6253  -46.3047 C.3       7 UNK        -0.1800 
     39 N           2.8738  -17.2605  -43.9268 N.am      7 UNK        -0.5000 
     40 C           2.7904  -18.0754  -42.8630 C.2       6 UNK         0.5000 
     41 O           2.3022  -19.2033  -42.9317 O.2       6 UNK        -0.5000 
     42 CA          3.3172  -17.5826  -41.5029 C.3       6 UNK         0.1400 
     43 CB          4.2793  -18.6108  -40.8749 C.3       6 UNK        -0.1800 
     44 N           3.9664  -16.2688  -41.5593 N.am      6 UNK        -0.5000 
     45 C           4.0458  -15.4341  -40.5125 C.2       5 UNK         0.5000 
     46 O           3.5199  -15.6524  -39.4200 O.2       5 UNK        -0.5000 
     47 CA          4.8574  -14.1401  -40.7093 C.3       5 UNK         0.1400 
     48 CB          6.3603  -14.4140  -40.5415 C.3       5 UNK        -0.1800 
     49 N           4.6230  -13.4980  -42.0037 N.am      5 UNK        -0.5000 
     50 C           3.4766  -12.8997  -42.3513 C.2       4 UNK         0.5000 
     51 O           2.4793  -12.8569  -41.6268 O.2       4 UNK        -0.5000 
     52 CA          3.4471  -12.2682  -43.7542 C.3       4 UNK         0.1400 
     53 CB          3.2647  -13.3530  -44.8257 C.3       4 UNK        -0.1800 
     54 N           2.3662  -11.2901  -43.8767 N.am      4 UNK        -0.5000 
     55 C           2.4516  -10.0162  -43.4663 C.2       3 UNK         0.5000 
     56 O           3.4734   -9.5310  -42.9775 O.2       3 UNK        -0.5000 
     57 CA          1.2130   -9.1130  -43.6473 C.3       3 UNK         0.1400 
     58 CB          1.4259   -8.1441  -44.8214 C.3       3 UNK        -0.1800 
     59 N          -0.0247   -9.8573  -43.8786 N.am      3 UNK        -0.5000 
     60 C          -0.7434  -10.4678  -42.9271 C.2       2 UNK         0.5000 
     61 O          -0.4775  -10.4071  -41.7264 O.2       2 UNK        -0.5000 
     62 CA         -1.9622  -11.2922  -43.3949 C.3       2 UNK         0.1400 
     63 CB         -3.2588  -10.4902  -43.2045 C.3       2 UNK        -0.1800 
     64 N          -1.8906  -11.7532  -44.7873 N.am      2 UNK        -0.5000 
     65 C          -0.9534  -12.5743  -45.2775 C.2       1 UNK         0.5000 
     66 O          -0.0185  -13.0085  -44.6048 O.2       1 UNK        -0.5000 
     67 C          -2.8516  -22.4353  -46.7657 C.2       11 UNK         0.5000 
     68 O          -3.3629  -23.3296  -47.4428 O.2       11 UNK        -0.5000 
     69 N          -3.2733  -22.0975  -45.5377 N.am      12 UNK        -0.5000 
     70 CA         -4.3756  -22.7500  -44.8307 C.3       12 UNK         0.1400 
     71 CB         -4.7019  -21.9713  -43.5477 C.3       12 UNK        -0.1800 
     72 C          -4.0967  -24.2328  -44.5223 C.2       12 UNK         0.5000 
     73 O          -4.9635  -25.0713  -44.7681 O.2       12 UNK        -0.5000 
     74 N          -2.8851  -24.5388  -44.0362 N.am      13 UNK        -0.5000 
     75 CA         -2.4141  -25.8968  -43.7466 C.3       13 UNK         0.1400 
     76 CB         -1.0582  -25.8286  -43.0283 C.3       13 UNK        -0.1800 
     77 C          -2.3171  -26.7836  -45.0019 C.2       13 UNK         0.5000 
     78 O          -2.6307  -27.9724  -44.9334 O.2       13 UNK        -0.5000 
     79 N          -1.9252  -26.1812  -46.1321 N.am      14 UNK        -0.5000 
     80 CA         -1.9031  -26.8088  -47.4537 C.3       14 UNK         0.1400 
     81 CB         -0.9725  -25.9972  -48.3707 C.3       14 UNK        -0.1800 
     82 C          -3.2990  -26.9394  -48.0969 C.2       14 UNK         0.5000 
     83 O          -3.4033  -27.5437  -49.1633 O.2       14 UNK        -0.5000 
     84 N          -4.3334  -26.3402  -47.4849 N.am      15 UNK        -0.5000 
     85 CA         -5.7137  -26.2314  -47.9749 C.3       15 UNK         0.1400 
     86 CB         -6.4056  -27.6099  -47.9608 C.3       15 UNK        -0.1800 
     87 C          -5.8034  -25.5234  -49.3452 C.2       15 UNK         0.5000 
     88 O          -6.6477  -25.8717  -50.1723 O.2       15 UNK        -0.5000 
     89 N          -4.8975  -24.5580  -49.5586 N.am      16 UNK        -0.5000 
     90 CA         -4.6641  -23.7938  -50.7844 C.3       16 UNK         0.1400 
     91 CB         -5.8504  -22.8551  -51.0836 C.3       16 UNK        -0.1800 
     92 C          -4.2532  -24.6442  -52.0091 C.2       16 UNK         0.5000 
     93 O          -4.4055  -24.1771  -53.1386 O.2       16 UNK        -0.5000 
     94 N          -3.7158  -25.8570  -51.7940 N.am      17 UNK        -0.5000 
     95 CA         -3.2001  -26.7334  -52.8515 C.3       17 UNK         0.1400 
     96 CB         -2.7436  -28.0690  -52.2471 C.3       17 UNK        -0.1800 
     97 C          -2.0497  -26.0572  -53.6195 C.2       17 UNK         0.5000 
     98 O          -1.0596  -25.6633  -52.9995 O.2       17 UNK        -0.5000 
     99 N          -2.2446  -25.8609  -54.9317 N.am      18 UNK        -0.5000 
    100 CA        -1.4282  -25.0872  -55.8833 C.3       18 UNK         0.1400 
    101 CB         0.0065  -25.6389  -55.9845 C.3       18 UNK        -0.1800 
    102 C         -1.4244  -23.5634  -55.6273 C.2       18 UNK         0.5000 
    103 O         -1.4399  -22.7875  -56.5838 O.2       18 UNK        -0.5000 
    104 N         -1.4436  -23.1575  -54.3520 N.am      19 UNK        -0.5000 
    105 CA        -1.4930  -21.7767  -53.8727 C.3       19 UNK         0.1400 
    106 CB        -1.3162  -21.7821  -52.3488 C.3       19 UNK        -0.1800 
    107 C         -2.7673  -21.0121  -54.2875 C.2       19 UNK         0.5000 
    108 O         -2.7288  -19.7867  -54.3730 O.2       19 UNK        -0.5000 
    109 N         -3.8509  -21.7296  -54.6184 N.am      20 UNK        -0.5000 
    110 CA        -5.0992  -21.2041  -55.1878 C.3       20 UNK         0.1400 
    111 CB        -6.0825  -22.3687  -55.3859 C.3       20 UNK        -0.1800 
    112 C         -4.9422  -20.3987  -56.5006 C.2       20 UNK         0.5000 
    113 O         -5.8904  -19.7277  -56.9096 O.2       20 UNK        -0.5000 
    114 N         -3.7571  -20.4531  -57.1271 N.am      21 UNK        -0.5000 
    115 CA        -3.3317  -19.5744  -58.2164 C.3       21 UNK         0.1400 
    116 CB        -1.9760  -20.0648  -58.7467 C.3       21 UNK        -0.1800 
    117 C         -3.2468  -18.0837  -57.8160 C.2       21 UNK         0.5000 
    118 O         -3.4188  -17.2267  -58.6843 O.2       21 UNK        -0.5000 
    119 N         -3.0004  -17.7906  -56.5294 N.am      22 UNK        -0.5000 
    120 CA        -3.1077  -16.4394  -55.9569 C.3       22 UNK         0.1400 
    121 C         -4.5925  -15.9884  -55.8729 C.2       22 UNK         0.5000 
    122 N         -4.9329  -14.8306  -56.4227 N.am      22 UNK        -0.7600 
    123 O         -5.4287  -16.6594  -55.2729 O.2       22 UNK        -0.5000 
    124 C124       -2.4421  -16.3396  -54.5600 C.3       23 UNK        -0.0398 
    125 S125       -0.6179  -16.3315  -54.6370 S.3       23 UNK        -0.2404 
    126 C126       -0.1472  -17.6864  -53.5137 C.3       23 UNK        -0.0205 
    127 H127       -3.3673  -16.3071  -46.9047 H         1 UNK         0.0600 
    128 H128       -4.6987  -15.4833  -47.7175 H         1 UNK         0.0600 
    129 H129       -4.6717  -15.5968  -45.9543 H         1 UNK         0.0600 
    130 H130       -1.5074  -15.0557  -46.9235 H         1 UNK         0.3000 
    131 H131       -1.5620  -12.1759  -47.2966 H         1 UNK         0.0600 
    132 H132        0.8774  -12.3357  -47.3916 H         1 UNK         0.0800 
    133 H133        0.8669  -13.9791  -46.8272 H         1 UNK         0.0800 
    134 H134        0.5627  -15.9027  -47.9645 H         1 UNK         0.0800 
    135 H135        1.7248  -15.6446  -49.2421 H         1 UNK         0.0800 
    136 H136        1.0803  -16.1410  -51.6251 H         1 UNK         0.1150 
    137 H137       -2.3190  -18.6932  -52.1872 H         1 UNK         0.1150 
    138 H138       -1.5807  -16.9467  -48.3592 H         1 UNK         0.1150 
    139 H139       -3.6758  -18.1075  -48.7669 H         1 UNK         0.0800 
    140 H140       -4.1323  -18.4925  -50.4058 H         1 UNK         0.0800 
    141 H141       -2.4838  -19.6767  -47.1133 H         1 UNK         0.0800 
    142 H142       -1.0734  -19.7498  -48.1377 H         1 UNK         0.0800 
    143 H143       -1.2176  -22.2728  -48.1347 H         1 UNK         0.0600 
    144 H144       -0.2750  -20.6573  -46.0234 H         1 UNK         0.3000 
    145 H145        1.2364  -23.2695  -44.0674 H         1 UNK         0.0600 
    146 H146        3.1272  -21.6754  -44.3754 H         1 UNK         0.0600 
    147 H147        2.8449  -22.6092  -45.8379 H         1 UNK         0.0600 
    148 H148        2.3031  -20.9392  -45.7481 H         1 UNK         0.0600 
    149 H149        1.0674  -20.4905  -43.5689 H         1 UNK         0.3000 
    150 H150       -2.0714  -20.4819  -41.8349 H         1 UNK         0.0600 
    151 H151       -0.3559  -21.1466  -40.1677 H         1 UNK         0.0600 
    152 H152       -0.6077  -19.4086  -40.1381 H         1 UNK         0.0600 
    153 H153        0.8260  -20.0813  -40.9129 H         1 UNK         0.0600 
    154 H154       -0.1757  -18.4382  -42.5141 H         1 UNK         0.3000 
    155 H155       -1.7157  -17.4317  -45.5741 H         1 UNK         0.0600 
    156 H156       -3.0244  -16.3556  -43.7561 H         1 UNK         0.0600 
    157 H157       -1.7249  -15.2909  -44.2653 H         1 UNK         0.0600 
    158 H158       -1.5788  -16.1957  -42.7659 H         1 UNK         0.0600 
    159 H159        0.5432  -16.4698  -44.0898 H         1 UNK         0.3000 
    160 H160        2.9956  -18.6026  -45.5061 H         1 UNK         0.0600 
    161 H161        2.4059  -15.6876  -46.2063 H         1 UNK         0.0600 
    162 H162        2.7941  -16.9881  -47.3213 H         1 UNK         0.0600 
    163 H163        4.0134  -16.4149  -46.1979 H         1 UNK         0.0600 
    164 H164        3.2389  -16.3286  -43.8159 H         1 UNK         0.3000 
    165 H165        2.4339  -17.5100  -40.8648 H         1 UNK         0.0600 
    166 H166        4.5755  -18.3164  -39.8680 H         1 UNK         0.0600 
    167 H167        3.8136  -19.5939  -40.7938 H         1 UNK         0.0600 
    168 H168        5.1857  -18.7238  -41.4706 H         1 UNK         0.0600 
    169 H169        4.4648  -16.0363  -42.4051 H         1 UNK         0.3000 
    170 H170        4.5555  -13.4402  -39.9269 H         1 UNK         0.0600 
    171 H171        6.5668  -14.8777  -39.5759 H         1 UNK         0.0600 
    172 H172        6.7391  -15.0839  -41.3143 H         1 UNK         0.0600 
    173 H173        6.9369  -13.4898  -40.5857 H         1 UNK         0.0600 
    174 H174        5.3991  -13.4888  -42.6499 H         1 UNK         0.3000 
    175 H175        4.4014  -11.7677  -43.9324 H         1 UNK         0.0600 
    176 H176        2.3851  -13.9641  -44.6254 H         1 UNK         0.0600 
    177 H177        3.1553  -12.9173  -45.8189 H         1 UNK         0.0600 
    178 H178        4.1266  -14.0199  -44.8589 H         1 UNK         0.0600 
    179 H179        1.4686  -11.6570  -44.1714 H         1 UNK         0.3000 
    180 H180        1.1026   -8.5222  -42.7355 H         1 UNK         0.0600 
    181 H181        1.5417   -8.6760  -45.7666 H         1 UNK         0.0600 
    182 H182        2.3220   -7.5399  -44.6731 H         1 UNK         0.0600 
    183 H183        0.5862   -7.4561  -44.9228 H         1 UNK         0.0600 
    184 H184       -0.3286   -9.9466  -44.8366 H         1 UNK         0.3000 
    185 H185       -2.0128  -12.1784  -42.7588 H         1 UNK         0.0600 
    186 H186       -3.3658  -10.1575  -42.1711 H         1 UNK         0.0600 
    187 H187       -3.2790   -9.6034  -43.8392 H         1 UNK         0.0600 
    188 H188       -4.1349  -11.0941  -43.4420 H         1 UNK         0.0600 
    189 H189       -2.6630  -11.4963  -45.3881 H         1 UNK         0.3000 
    190 H190       -2.8201  -21.3265  -45.0569 H         1 UNK         0.3000 
    191 H191       -5.2521  -22.7083  -45.4807 H         1 UNK         0.0600 
    192 H192       -4.9676  -20.9379  -43.7711 H         1 UNK         0.0600 
    193 H193       -5.5472  -22.4192  -43.0239 H         1 UNK         0.0600 
    194 H194       -3.8587  -21.9570  -42.8575 H         1 UNK         0.0600 
    195 H195       -2.2417  -23.7823  -43.8126 H         1 UNK         0.3000 
    196 H196       -3.1346  -26.3606  -43.0699 H         1 UNK         0.0600 
    197 H197       -0.6897  -26.8273  -42.7905 H         1 UNK         0.0600 
    198 H198       -1.1368  -25.2794  -42.0900 H         1 UNK         0.0600 
    199 H199       -0.3033  -25.3361  -43.6420 H         1 UNK         0.0600 
    200 H200       -1.6192  -25.2140  -46.0883 H         1 UNK         0.3000 
    201 H201       -1.4933  -27.8161  -47.3565 H         1 UNK         0.0600 
    202 H202        0.0358  -25.9431  -47.9601 H         1 UNK         0.0600 
    203 H203       -1.3330  -24.9769  -48.5065 H         1 UNK         0.0600 
    204 H204       -0.8953  -26.4518  -49.3594 H         1 UNK         0.0600 
    205 H205       -4.1503  -25.8532  -46.6161 H         1 UNK         0.3000 
    206 H206       -6.2393  -25.5893  -47.2669 H         1 UNK         0.0600 
    207 H207       -6.3271  -28.0789  -46.9800 H         1 UNK         0.0600 
    208 H208       -7.4675  -27.5170  -48.1910 H         1 UNK         0.0600 
    209 H209       -5.9704  -28.2897  -48.6939 H         1 UNK         0.0600 
    210 H210       -4.2787  -24.3195  -48.7860 H         1 UNK         0.3000 
    211 H211       -3.8048  -23.1631  -50.5604 H         1 UNK         0.0600 
    212 H212       -5.6107  -22.1673  -51.8957 H         1 UNK         0.0600 
    213 H213       -6.1006  -22.2483  -50.2134 H         1 UNK         0.0600 
    214 H214       -6.7417  -23.4103  -51.3767 H         1 UNK         0.0600 
    215 H215       -3.6249  -26.1978  -50.8444 H         1 UNK         0.3000 
    216 H216       -4.0207  -26.9372  -53.5424 H         1 UNK         0.0600 
    217 H217       -2.3676  -28.7399  -53.0204 H         1 UNK         0.0600 
    218 H218       -3.5685  -28.5780  -51.7481 H         1 UNK         0.0600 
    219 H219       -1.9452  -27.9283  -51.5172 H         1 UNK         0.0600 
    220 H220       -3.1188  -26.1915  -55.3166 H         1 UNK         0.3000 
    221 H221       -1.9002  -25.2323  -56.8563 H         1 UNK         0.0600 
    222 H222        0.5700  -25.4895  -55.0633 H         1 UNK         0.0600 
    223 H223        0.0042  -26.7056  -56.2082 H         1 UNK         0.0600 
    224 H224        0.5565  -25.1402  -56.7834 H         1 UNK         0.0600 
    225 H225       -1.3947  -23.8836  -53.6443 H         1 UNK         0.3000 
    226 H226       -0.6436  -21.2500  -54.3117 H         1 UNK         0.0600 
    227 H227       -0.4094  -22.3115  -52.0561 H         1 UNK         0.0600 
    228 H228       -1.2343  -20.7693  -51.9582 H         1 UNK         0.0600 
    229 H229       -2.1578  -22.2600  -51.8513 H         1 UNK         0.0600 
    230 H230       -3.8326  -22.7278  -54.4370 H         1 UNK         0.3000 
    231 H231       -5.5255  -20.5198  -54.4518 H         1 UNK         0.0600 
    232 H232       -5.6691  -23.1339  -56.0439 H         1 UNK         0.0600 
    233 H233       -7.0196  -22.0258  -55.8265 H         1 UNK         0.0600 
    234 H234       -6.3316  -22.8405  -54.4356 H         1 UNK         0.0600 
    235 H235       -3.0464  -21.0625  -56.7436 H         1 UNK         0.3000 
    236 H236       -4.0663  -19.6588  -59.0197 H         1 UNK         0.0600 
    237 H237       -2.0405  -21.0924  -59.1050 H         1 UNK         0.0600 
    238 H238       -1.6356  -19.4499  -59.5809 H         1 UNK         0.0600 
    239 H239       -1.2067  -20.0280  -57.9741 H         1 UNK         0.0600 
    240 H240       -2.8964  -18.5477  -55.8600 H         1 UNK         0.3000 
    241 H241       -2.5840  -15.7524  -56.6249 H         1 UNK         0.0600 
    242 H242       -5.8906  -14.5211  -56.3602 H         1 UNK         0.3800 
    243 H243       -4.2625  -14.2642  -56.9199 H         1 UNK         0.3800 
    244 H244       -2.7300  -15.4126  -54.0606 H         1 UNK         0.0800 
    245 H245       -2.7992  -17.1445  -53.9190 H         1 UNK         0.0800 
    246 H246       -0.5543  -18.6252  -53.8841 H         1 UNK         0.0800 
    247 H247        0.9368  -17.8029  -53.5506 H         1 UNK         0.0800 
@<TRIPOS>BOND
     1    1    2 1    
     2    1  127 1    
     3    1  128 1    
     4    1  129 1    
     5    2    3 2    
     6    2    4 am   BACKBONE|DICT|INTERRES
     7    4    5 1    
     8    4  130 1    
     9    5    6 1    
    10    5   65 1    
    11    5  131 1    
    12    6    7 1    
    13    6  132 1    
    14    6  133 1    
    15    7    8 1    
    16    8    9 1    
    17    8  134 1    
    18    8  135 1    
    19    9   10 ar   
    20    9   14 ar   
    21   10   11 ar   
    22   10  136 1    
    23   11   12 ar   
    24   11  126 1    
    25   12   13 ar   
    26   12  137 1    
    27   13   14 ar   
    28   13   15 1    
    29   14  138 1    
    30   15   16 1    
    31   15  139 1    
    32   15  140 1    
    33   16   17 1    
    34   17   18 1    
    35   17  141 1    
    36   17  142 1    
    37   18   19 1    
    38   18   67 1    
    39   18  143 1    
    40   19   20 am   BACKBONE|DICT|INTERRES
    41   19  144 1    
    42   20   21 2    
    43   20   22 1    
    44   22   23 1    
    45   22   24 1    
    46   22  145 1    
    47   23  146 1    
    48   23  147 1    
    49   23  148 1    
    50   24   25 am   BACKBONE|DICT|INTERRES
    51   24  149 1    
    52   25   26 2    
    53   25   27 1    
    54   27   28 1    
    55   27   29 1    
    56   27  150 1    
    57   28  151 1    
    58   28  152 1    
    59   28  153 1    
    60   29   30 am   BACKBONE|DICT|INTERRES
    61   29  154 1    
    62   30   31 2    
    63   30   32 1    
    64   32   33 1    
    65   32   34 1    
    66   32  155 1    
    67   33  156 1    
    68   33  157 1    
    69   33  158 1    
    70   34   35 am   BACKBONE|DICT|INTERRES
    71   34  159 1    
    72   35   36 2    
    73   35   37 1    
    74   37   38 1    
    75   37   39 1    
    76   37  160 1    
    77   38  161 1    
    78   38  162 1    
    79   38  163 1    
    80   39   40 am   BACKBONE|DICT|INTERRES
    81   39  164 1    
    82   40   41 2    
    83   40   42 1    
    84   42   43 1    
    85   42   44 1    
    86   42  165 1    
    87   43  166 1    
    88   43  167 1    
    89   43  168 1    
    90   44   45 am   BACKBONE|DICT|INTERRES
    91   44  169 1    
    92   45   46 2    
    93   45   47 1    
    94   47   48 1    
    95   47   49 1    
    96   47  170 1    
    97   48  171 1    
    98   48  172 1    
    99   48  173 1    
   100   49   50 am   BACKBONE|DICT|INTERRES
   101   49  174 1    
   102   50   51 2    
   103   50   52 1    
   104   52   53 1    
   105   52   54 1    
   106   52  175 1    
   107   53  176 1    
   108   53  177 1    
   109   53  178 1    
   110   54   55 am   BACKBONE|DICT|INTERRES
   111   54  179 1    
   112   55   56 2    
   113   55   57 1    
   114   57   58 1    
   115   57   59 1    
   116   57  180 1    
   117   58  181 1    
   118   58  182 1    
   119   58  183 1    
   120   59   60 am   BACKBONE|DICT|INTERRES
   121   59  184 1    
   122   60   61 2    
   123   60   62 1    
   124   62   63 1    
   125   62   64 1    
   126   62  185 1    
   127   63  186 1    
   128   63  187 1    
   129   63  188 1    
   130   64   65 am   BACKBONE|DICT|INTERRES
   131   64  189 1    
   132   65   66 2    
   133   67   68 2    
   134   67   69 am   BACKBONE|DICT|INTERRES
   135   69   70 1    
   136   69  190 1    
   137   70   71 1    
   138   70   72 1    
   139   70  191 1    
   140   71  192 1    
   141   71  193 1    
   142   71  194 1    
   143   72   73 2    
   144   72   74 am   BACKBONE|DICT|INTERRES
   145   74   75 1    
   146   74  195 1    
   147   75   76 1    
   148   75   77 1    
   149   75  196 1    
   150   76  197 1    
   151   76  198 1    
   152   76  199 1    
   153   77   78 2    
   154   77   79 am   BACKBONE|DICT|INTERRES
   155   79   80 1    
   156   79  200 1    
   157   80   81 1    
   158   80   82 1    
   159   80  201 1    
   160   81  202 1    
   161   81  203 1    
   162   81  204 1    
   163   82   83 2    
   164   82   84 am   BACKBONE|DICT|INTERRES
   165   84   85 1    
   166   84  205 1    
   167   85   86 1    
   168   85   87 1    
   169   85  206 1    
   170   86  207 1    
   171   86  208 1    
   172   86  209 1    
   173   87   88 2    
   174   87   89 am   BACKBONE|DICT|INTERRES
   175   89   90 1    
   176   89  210 1    
   177   90   91 1    
   178   90   92 1    
   179   90  211 1    
   180   91  212 1    
   181   91  213 1    
   182   91  214 1    
   183   92   93 2    
   184   92   94 am   BACKBONE|DICT|INTERRES
   185   94   95 1    
   186   94  215 1    
   187   95   96 1    
   188   95   97 1    
   189   95  216 1    
   190   96  217 1    
   191   96  218 1    
   192   96  219 1    
   193   97   98 2    
   194   97   99 am   BACKBONE|DICT|INTERRES
   195   99  100 1    
   196   99  220 1    
   197  100  101 1    
   198  100  102 1    
   199  100  221 1    
   200  101  222 1    
   201  101  223 1    
   202  101  224 1    
   203  102  103 2    
   204  102  104 am   BACKBONE|DICT|INTERRES
   205  104  105 1    
   206  104  225 1    
   207  105  106 1    
   208  105  107 1    
   209  105  226 1    
   210  106  227 1    
   211  106  228 1    
   212  106  229 1    
   213  107  108 2    
   214  107  109 am   BACKBONE|DICT|INTERRES
   215  109  110 1    
   216  109  230 1    
   217  110  111 1    
   218  110  112 1    
   219  110  231 1    
   220  111  232 1    
   221  111  233 1    
   222  111  234 1    
   223  112  113 2    
   224  112  114 am   BACKBONE|DICT|INTERRES
   225  114  115 1    
   226  114  235 1    
   227  115  116 1    
   228  115  117 1    
   229  115  236 1    
   230  116  237 1    
   231  116  238 1    
   232  116  239 1    
   233  117  118 2    
   234  117  119 am   BACKBONE|DICT|INTERRES
   235  119  120 1    
   236  119  240 1    
   237  120  121 1    
   238  120  124 1    
   239  120  241 1    
   240  121  122 am   BACKBONE|DICT|INTERRES
   241  121  123 2    
   242  122  242 1    
   243  122  243 1    
   244  124  125 1    
   245  124  244 1    
   246  124  245 1    
   247  125  126 1    
   248  126  246 1    
   249  126  247 1    
@<TRIPOS>SUBSTRUCTURE
     1 UNK         1 GROUP             0       ****    0 ROOT    
