@<TRIPOS>MOLECULE
3R540
247   249    1
SMALL
USER_CHARGES


@<TRIPOS>ATOM
      1 CA         -0.3360  -13.3514  -48.8320 C.3       0 UNK        -0.1800 
      2 C           1.1072  -12.8842  -48.9338 C.2       0 UNK         0.5000 
      3 O           1.4597  -12.2077  -49.8994 O.2       0 UNK        -0.5000 
      4 N           1.9435  -13.2428  -47.9502 N.am      1 UNK        -0.5000 
      5 CA          3.3816  -12.9369  -47.9411 C.3       1 UNK         0.1400 
      6 C6          4.2016  -13.8498  -46.9893 C.3       23 UNK        -0.0398 
      7 S7          3.7617  -15.6192  -47.0902 S.3       23 UNK        -0.2404 
      8 C8          4.5834  -16.1304  -48.6256 C.3       23 UNK        -0.0205 
      9 C9          3.9029  -17.3538  -49.2189 C.ar      23 UNK        -0.0193 
     10 C10         2.7770  -17.1966  -50.0344 C.ar      23 UNK        -0.1150 
     11 C11         2.1571  -18.3102  -50.6070 C.ar      23 UNK        -0.0193 
     12 C12         2.6752  -19.5838  -50.3673 C.ar      23 UNK        -0.1150 
     13 C13         3.7849  -19.7582  -49.5365 C.ar      23 UNK        -0.0193 
     14 C14         4.3961  -18.6380  -48.9634 C.ar      23 UNK        -0.1150 
     15 C15         4.3261  -21.1579  -49.2779 C.3       23 UNK        -0.0205 
     16 S16         3.5378  -21.9525  -47.8401 S.3       23 UNK        -0.2404 
     17 C17         1.8042  -22.0832  -48.3960 C.3       23 UNK        -0.0398 
     18 CA          0.9851  -23.1138  -47.5868 C.3       11 UNK         0.1400 
     19 N           0.7956  -22.7205  -46.1876 N.am      11 UNK        -0.5000 
     20 C           0.2526  -23.5034  -45.2449 C.2       10 UNK         0.5000 
     21 O          -0.1029  -24.6656  -45.4444 O.2       10 UNK        -0.5000 
     22 CA          0.0216  -22.8715  -43.8605 C.3       10 UNK         0.1400 
     23 CB          1.3243  -22.8337  -43.0478 C.3       10 UNK        -0.1800 
     24 N          -0.5555  -21.5285  -43.9413 N.am      10 UNK        -0.5000 
     25 C          -1.7728  -21.2554  -44.4329 C.2       9 UNK         0.5000 
     26 O          -2.5530  -22.1166  -44.8374 O.2       9 UNK        -0.5000 
     27 CA         -2.1747  -19.7716  -44.5325 C.3       9 UNK         0.1400 
     28 CB         -2.6319  -19.2305  -43.1701 C.3       9 UNK        -0.1800 
     29 N          -1.1057  -18.9271  -45.0643 N.am      9 UNK        -0.5000 
     30 C          -0.5713  -19.0621  -46.2870 C.2       8 UNK         0.5000 
     31 O          -0.9494  -19.8907  -47.1132 O.2       8 UNK        -0.5000 
     32 CA          0.6259  -18.1562  -46.6183 C.3       8 UNK         0.1400 
     33 CB          0.1462  -16.7453  -46.9919 C.3       8 UNK        -0.1800 
     34 N           1.5933  -18.0851  -45.5206 N.am      8 UNK        -0.5000 
     35 C           2.2519  -19.1414  -45.0205 C.2       7 UNK         0.5000 
     36 O           2.1224  -20.2898  -45.4368 O.2       7 UNK        -0.5000 
     37 CA          3.1489  -18.8839  -43.7982 C.3       7 UNK         0.1400 
     38 CB          4.4486  -18.1730  -44.2049 C.3       7 UNK        -0.1800 
     39 N           2.4626  -18.1044  -42.7685 N.am      7 UNK        -0.5000 
     40 C           1.3743  -18.5114  -42.0969 C.2       6 UNK         0.5000 
     41 O           0.8684  -19.6258  -42.2205 O.2       6 UNK        -0.5000 
     42 CA          0.7102  -17.4733  -41.1722 C.3       6 UNK         0.1400 
     43 CB          1.3446  -17.5064  -39.7739 C.3       6 UNK        -0.1800 
     44 N           0.7960  -16.1157  -41.7172 N.am      6 UNK        -0.5000 
     45 C           0.1824  -15.7216  -42.8400 C.2       5 UNK         0.5000 
     46 O          -0.5962  -16.4307  -43.4836 O.2       5 UNK        -0.5000 
     47 CA          0.5676  -14.3375  -43.3731 C.3       5 UNK         0.1400 
     48 CB          1.8923  -14.4498  -44.1551 C.3       5 UNK        -0.1800 
     49 N          -0.5231  -13.8449  -44.2130 N.am      5 UNK        -0.5000 
     50 C          -0.5520  -12.6997  -44.9012 C.2       4 UNK         0.5000 
     51 O           0.4193  -11.9421  -45.0118 O.2       4 UNK        -0.5000 
     52 CA         -1.8772  -12.3561  -45.6219 C.3       4 UNK         0.1400 
     53 CB         -3.1232  -12.5526  -44.7308 C.3       4 UNK        -0.1800 
     54 N          -1.8060  -11.0059  -46.1972 N.am      4 UNK        -0.5000 
     55 C          -1.7602   -9.8495  -45.5186 C.2       3 UNK         0.5000 
     56 O          -2.1478   -9.6951  -44.3592 O.2       3 UNK        -0.5000 
     57 CA         -0.9805   -8.7346  -46.2246 C.3       3 UNK         0.1400 
     58 CB         -1.1270   -7.3612  -45.5366 C.3       3 UNK        -0.1800 
     59 N           0.4127   -9.1777  -46.2145 N.am      3 UNK        -0.5000 
     60 C           1.4192   -8.6667  -46.9297 C.2       2 UNK         0.5000 
     61 O           1.2918   -7.7439  -47.7350 O.2       2 UNK        -0.5000 
     62 CA          2.7955   -9.3159  -46.7240 C.3       2 UNK         0.1400 
     63 CB          3.3295   -9.0797  -45.3004 C.3       2 UNK        -0.1800 
     64 N           2.7300  -10.7504  -46.9999 N.am      2 UNK        -0.5000 
     65 C           3.6714  -11.4467  -47.6527 C.2       1 UNK         0.5000 
     66 O           4.7364  -10.9602  -48.0361 O.2       1 UNK        -0.5000 
     67 C          -0.3603  -23.3984  -48.2837 C.2       11 UNK         0.5000 
     68 O          -0.4750  -24.4096  -48.9748 O.2       11 UNK        -0.5000 
     69 N          -1.3643  -22.5365  -48.0663 N.am      12 UNK        -0.5000 
     70 CA         -2.7182  -22.7083  -48.5904 C.3       12 UNK         0.1400 
     71 CB         -3.5405  -21.4335  -48.3600 C.3       12 UNK        -0.1800 
     72 C          -3.4336  -23.9411  -48.0146 C.2       12 UNK         0.5000 
     73 O          -4.1069  -24.6446  -48.7667 O.2       12 UNK        -0.5000 
     74 N          -3.2477  -24.2101  -46.7151 N.am      13 UNK        -0.5000 
     75 CA         -3.7452  -25.4112  -46.0436 C.3       13 UNK         0.1400 
     76 CB         -3.5304  -25.2932  -44.5274 C.3       13 UNK        -0.1800 
     77 C          -3.1036  -26.6964  -46.5967 C.2       13 UNK         0.5000 
     78 O          -3.8225  -27.6546  -46.8817 O.2       13 UNK        -0.5000 
     79 N          -1.7773  -26.6760  -46.7965 N.am      14 UNK        -0.5000 
     80 CA         -1.0105  -27.7620  -47.4151 C.3       14 UNK         0.1400 
     81 CB          0.4910  -27.4602  -47.2989 C.3       14 UNK        -0.1800 
     82 C          -1.4062  -28.0205  -48.8831 C.2       14 UNK         0.5000 
     83 O          -1.4417  -29.1747  -49.3106 O.2       14 UNK        -0.5000 
     84 N          -1.7388  -26.9471  -49.6119 N.am      15 UNK        -0.5000 
     85 CA         -2.2595  -26.9743  -50.9799 C.3       15 UNK         0.1400 
     86 CB         -2.0315  -25.5950  -51.6226 C.3       15 UNK        -0.1800 
     87 C          -3.7490  -27.3695  -51.0727 C.2       15 UNK         0.5000 
     88 O          -4.2675  -27.4580  -52.1850 O.2       15 UNK        -0.5000 
     89 N          -4.4243  -27.5672  -49.9297 N.am      16 UNK        -0.5000 
     90 CA         -5.8507  -27.8829  -49.7887 C.3       16 UNK         0.1400 
     91 CB         -6.1576  -29.2926  -50.3357 C.3       16 UNK        -0.1800 
     92 C          -6.7608  -26.7856  -50.3821 C.2       16 UNK         0.5000 
     93 O          -7.7394  -27.0873  -51.0670 O.2       16 UNK        -0.5000 
     94 N          -6.3910  -25.5252  -50.1147 N.am      17 UNK        -0.5000 
     95 CA         -7.0273  -24.2721  -50.5325 C.3       17 UNK         0.1400 
     96 CB         -8.5010  -24.2008  -50.0835 C.3       17 UNK        -0.1800 
     97 C          -6.8537  -23.9230  -52.0246 C.2       17 UNK         0.5000 
     98 O          -7.3672  -22.8884  -52.4537 O.2       17 UNK        -0.5000 
     99 N          -6.0913  -24.7243  -52.7863 N.am      18 UNK        -0.5000 
    100 CA        -5.8140  -24.5031  -54.2128 C.3       18 UNK         0.1400 
    101 CB        -5.1057  -25.7343  -54.7952 C.3       18 UNK        -0.1800 
    102 C         -4.9981  -23.2256  -54.5026 C.2       18 UNK         0.5000 
    103 O         -5.0478  -22.7145  -55.6216 O.2       18 UNK        -0.5000 
    104 N         -4.2911  -22.7158  -53.4842 N.am      19 UNK        -0.5000 
    105 CA        -3.5761  -21.4388  -53.5081 C.3       19 UNK         0.1400 
    106 CB        -2.5634  -21.4205  -52.3513 C.3       19 UNK        -0.1800 
    107 C         -4.5055  -20.2093  -53.4123 C.2       19 UNK         0.5000 
    108 O         -4.0146  -19.0890  -53.5511 O.2       19 UNK        -0.5000 
    109 N         -5.8043  -20.4187  -53.1308 N.am      20 UNK        -0.5000 
    110 CA        -6.8484  -19.3990  -52.9530 C.3       20 UNK         0.1400 
    111 CB        -7.1611  -18.7037  -54.2940 C.3       20 UNK        -0.1800 
    112 C         -6.5132  -18.4049  -51.8205 C.2       20 UNK         0.5000 
    113 O         -6.6804  -17.1931  -51.9773 O.2       20 UNK        -0.5000 
    114 N         -5.9722  -18.9494  -50.7184 N.am      21 UNK        -0.5000 
    115 CA        -5.4478  -18.2454  -49.5392 C.3       21 UNK         0.1400 
    116 CB        -6.5925  -17.5572  -48.7670 C.3       21 UNK        -0.1800 
    117 C         -4.2819  -17.2779  -49.8511 C.2       21 UNK         0.5000 
    118 O         -4.0013  -16.3886  -49.0463 O.2       21 UNK        -0.5000 
    119 N         -3.6361  -17.4608  -51.0128 N.am      22 UNK        -0.5000 
    120 CA        -2.5921  -16.5933  -51.5820 C.3       22 UNK         0.1400 
    121 C         -3.1065  -15.1826  -52.0062 C.2       22 UNK         0.5000 
    122 N         -4.4065  -14.9840  -52.2008 N.am      22 UNK        -0.7600 
    123 O         -2.3196  -14.2591  -52.1948 O.2       22 UNK        -0.5000 
    124 C124       -1.2990  -16.5464  -50.7210 C.3       23 UNK        -0.0398 
    125 S125       -0.5879  -18.2110  -50.4677 S.3       23 UNK        -0.2404 
    126 C126        0.9240  -18.1511  -51.4795 C.3       23 UNK        -0.0205 
    127 H127       -0.6379  -13.8241  -49.7656 H         1 UNK         0.0600 
    128 H128       -0.9946  -12.5010  -48.6625 H         1 UNK         0.0600 
    129 H129       -0.4751  -14.0712  -48.0263 H         1 UNK         0.0600 
    130 H130        1.6130  -13.8061  -47.1811 H         1 UNK         0.3000 
    131 H131        3.7502  -13.1238  -48.9518 H         1 UNK         0.0600 
    132 H132        4.0645  -13.5409  -45.9526 H         1 UNK         0.0800 
    133 H133        5.2691  -13.7446  -47.1910 H         1 UNK         0.0800 
    134 H134        4.5602  -15.3190  -49.3536 H         1 UNK         0.0800 
    135 H135        5.6359  -16.3336  -48.4227 H         1 UNK         0.0800 
    136 H136        2.3810  -16.2076  -50.2183 H         1 UNK         0.1150 
    137 H137        2.2006  -20.4433  -50.8183 H         1 UNK         0.1150 
    138 H138        5.2575  -18.7652  -48.3231 H         1 UNK         0.1150 
    139 H139        4.1897  -21.7846  -50.1605 H         1 UNK         0.0800 
    140 H140        5.4022  -21.1108  -49.1052 H         1 UNK         0.0800 
    141 H141        1.8152  -22.3611  -49.4515 H         1 UNK         0.0800 
    142 H142        1.3407  -21.0968  -48.3353 H         1 UNK         0.0800 
    143 H143        1.5420  -24.0532  -47.5835 H         1 UNK         0.0600 
    144 H144        1.1177  -21.7891  -45.9321 H         1 UNK         0.3000 
    145 H145       -0.6889  -23.5044  -43.3247 H         1 UNK         0.0600 
    146 H146        1.7599  -23.8299  -42.9619 H         1 UNK         0.0600 
    147 H147        2.0708  -22.1873  -43.5095 H         1 UNK         0.0600 
    148 H148        1.1463  -22.4678  -42.0365 H         1 UNK         0.0600 
    149 H149        0.0176  -20.7664  -43.5920 H         1 UNK         0.3000 
    150 H150       -3.0184  -19.7041  -45.2222 H         1 UNK         0.0600 
    151 H151       -2.9728  -18.1980  -43.2501 H         1 UNK         0.0600 
    152 H152       -1.8294  -19.2607  -42.4334 H         1 UNK         0.0600 
    153 H153       -3.4615  -19.8186  -42.7759 H         1 UNK         0.0600 
    154 H154       -0.7582  -18.1920  -44.4570 H         1 UNK         0.3000 
    155 H155        1.1332  -18.5839  -47.4863 H         1 UNK         0.0600 
    156 H156       -0.6760  -16.7931  -47.7050 H         1 UNK         0.0600 
    157 H157        0.9421  -16.1701  -47.4612 H         1 UNK         0.0600 
    158 H158       -0.2129  -16.1914  -46.1255 H         1 UNK         0.0600 
    159 H159        1.7450  -17.1797  -45.1067 H         1 UNK         0.3000 
    160 H160        3.4114  -19.8534  -43.3694 H         1 UNK         0.0600 
    161 H161        4.9540  -18.7112  -45.0081 H         1 UNK         0.0600 
    162 H162        5.1426  -18.1135  -43.3665 H         1 UNK         0.0600 
    163 H163        4.2624  -17.1583  -44.5567 H         1 UNK         0.0600 
    164 H164        2.8159  -17.1770  -42.5903 H         1 UNK         0.3000 
    165 H165       -0.3450  -17.7373  -41.0759 H         1 UNK         0.0600 
    166 H166        0.8366  -16.8218  -39.0944 H         1 UNK         0.0600 
    167 H167        1.2761  -18.5045  -39.3391 H         1 UNK         0.0600 
    168 H168        2.3998  -17.2319  -39.8015 H         1 UNK         0.0600 
    169 H169        1.4152  -15.4756  -41.2407 H         1 UNK         0.3000 
    170 H170        0.6923  -13.6573  -42.5285 H         1 UNK         0.0600 
    171 H171        2.3186  -13.4695  -44.3619 H         1 UNK         0.0600 
    172 H172        2.6492  -14.9992  -43.5944 H         1 UNK         0.0600 
    173 H173        1.7466  -14.9634  -45.1035 H         1 UNK         0.0600 
    174 H174       -1.3358  -14.4486  -44.2064 H         1 UNK         0.3000 
    175 H175       -1.9694  -13.0432  -46.4623 H         1 UNK         0.0600 
    176 H176       -4.0174  -12.1543  -45.2102 H         1 UNK         0.0600 
    177 H177       -3.0166  -12.0653  -43.7613 H         1 UNK         0.0600 
    178 H178       -3.3070  -13.6105  -44.5415 H         1 UNK         0.0600 
    179 H179       -1.4465  -10.9790  -47.1399 H         1 UNK         0.3000 
    180 H180       -1.3357   -8.6596  -47.2544 H         1 UNK         0.0600 
    181 H181       -0.6096   -6.5794  -46.0923 H         1 UNK         0.0600 
    182 H182       -0.7230   -7.3729  -44.5236 H         1 UNK         0.0600 
    183 H183       -2.1757   -7.0693  -45.4709 H         1 UNK         0.0600 
    184 H184        0.5940   -9.9630  -45.5955 H         1 UNK         0.3000 
    185 H185        3.4778   -8.8334  -47.4274 H         1 UNK         0.0600 
    186 H186        2.7199   -9.5843  -44.5497 H         1 UNK         0.0600 
    187 H187        4.3510   -9.4468  -45.2001 H         1 UNK         0.0600 
    188 H188        3.3405   -8.0164  -45.0580 H         1 UNK         0.0600 
    189 H189        1.8837  -11.2288  -46.7196 H         1 UNK         0.3000 
    190 H190       -1.1888  -21.6897  -47.5291 H         1 UNK         0.3000 
    191 H191       -2.6318  -22.8634  -49.6661 H         1 UNK         0.0600 
    192 H192       -3.6324  -21.2008  -47.2987 H         1 UNK         0.0600 
    193 H193       -4.5479  -21.5395  -48.7642 H         1 UNK         0.0600 
    194 H194       -3.0776  -20.5768  -48.8508 H         1 UNK         0.0600 
    195 H195       -2.7351  -23.5452  -46.1426 H         1 UNK         0.3000 
    196 H196       -4.8200  -25.4726  -46.2268 H         1 UNK         0.0600 
    197 H197       -3.9121  -26.1737  -44.0093 H         1 UNK         0.0600 
    198 H198       -4.0526  -24.4260  -44.1230 H         1 UNK         0.0600 
    199 H199       -2.4750  -25.1946  -44.2737 H         1 UNK         0.0600 
    200 H200       -1.2506  -25.8590  -46.4994 H         1 UNK         0.3000 
    201 H201       -1.2171  -28.6749  -46.8529 H         1 UNK         0.0600 
    202 H202        0.7902  -27.3453  -46.2569 H         1 UNK         0.0600 
    203 H203        0.7604  -26.5448  -47.8258 H         1 UNK         0.0600 
    204 H204        1.0864  -28.2703  -47.7217 H         1 UNK         0.0600 
    205 H205       -1.5995  -26.0276  -49.2039 H         1 UNK         0.3000 
    206 H206       -1.6932  -27.7124  -51.5510 H         1 UNK         0.0600 
    207 H207       -2.3315  -25.5922  -52.6708 H         1 UNK         0.0600 
    208 H208       -2.6028  -24.8174  -51.1162 H         1 UNK         0.0600 
    209 H209       -0.9792  -25.3126  -51.5895 H         1 UNK         0.0600 
    210 H210       -3.9229  -27.4485  -49.0579 H         1 UNK         0.3000 
    211 H211       -6.0536  -27.8964  -48.7169 H         1 UNK         0.0600 
    212 H212       -6.0288  -29.3470  -51.4170 H         1 UNK         0.0600 
    213 H213       -7.1858  -29.5812  -50.1148 H         1 UNK         0.0600 
    214 H214       -5.5069  -30.0403  -49.8823 H         1 UNK         0.0600 
    215 H215       -5.5370  -25.3907  -49.5734 H         1 UNK         0.3000 
    216 H216       -6.4924  -23.4907  -49.9909 H         1 UNK         0.0600 
    217 H217       -8.9072  -23.2002  -50.2360 H         1 UNK         0.0600 
    218 H218       -8.6024  -24.4318  -49.0231 H         1 UNK         0.0600 
    219 H219       -9.1319  -24.8928  -50.6415 H         1 UNK         0.0600 
    220 H220       -5.7020  -25.5628  -52.3746 H         1 UNK         0.3000 
    221 H221       -6.7746  -24.3949  -54.7207 H         1 UNK         0.0600 
    222 H222       -4.1156  -25.8715  -54.3604 H         1 UNK         0.0600 
    223 H223       -5.6804  -26.6436  -54.6176 H         1 UNK         0.0600 
    224 H224       -4.9772  -25.6366  -55.8739 H         1 UNK         0.0600 
    225 H225       -4.3020  -23.2141  -52.6075 H         1 UNK         0.3000 
    226 H226       -3.0264  -21.3657  -54.4487 H         1 UNK         0.0600 
    227 H227       -1.9152  -22.2970  -52.3705 H         1 UNK         0.0600 
    228 H228       -1.9200  -20.5413  -52.4089 H         1 UNK         0.0600 
    229 H229       -3.0658  -21.3887  -51.3853 H         1 UNK         0.0600 
    230 H230       -6.1250  -21.3748  -53.0195 H         1 UNK         0.3000 
    231 H231       -7.7481  -19.9296  -52.6382 H         1 UNK         0.0600 
    232 H232       -6.3183  -18.1106  -54.6503 H         1 UNK         0.0600 
    233 H233       -7.4084  -19.4323  -55.0661 H         1 UNK         0.0600 
    234 H234       -8.0151  -18.0324  -54.1962 H         1 UNK         0.0600 
    235 H235       -5.8636  -19.9531  -50.7080 H         1 UNK         0.3000 
    236 H236       -5.0312  -19.0112  -48.8855 H         1 UNK         0.0600 
    237 H237       -7.0140  -16.7220  -49.3269 H         1 UNK         0.0600 
    238 H238       -7.3990  -18.2576  -48.5503 H         1 UNK         0.0600 
    239 H239       -6.2414  -17.1650  -47.8119 H         1 UNK         0.0600 
    240 H240       -3.9523  -18.1941  -51.6349 H         1 UNK         0.3000 
    241 H241       -2.3194  -17.0640  -52.5271 H         1 UNK         0.0600 
    242 H242       -4.7302  -14.0736  -52.4860 H         1 UNK         0.3800 
    243 H243       -5.0734  -15.7357  -52.0716 H         1 UNK         0.3800 
    244 H244       -0.5519  -15.8976  -51.1782 H         1 UNK         0.0800 
    245 H245       -1.5090  -16.1071  -49.7470 H         1 UNK         0.0800 
    246 H246        0.9891  -17.2278  -52.0554 H         1 UNK         0.0800 
    247 H247        0.8809  -18.9561  -52.2147 H         1 UNK         0.0800 
@<TRIPOS>BOND
     1    1    2 1    
     2    1  127 1    
     3    1  128 1    
     4    1  129 1    
     5    2    3 2    
     6    2    4 am   BACKBONE|DICT|INTERRES
     7    4    5 1    
     8    4  130 1    
     9    5    6 1    
    10    5   65 1    
    11    5  131 1    
    12    6    7 1    
    13    6  132 1    
    14    6  133 1    
    15    7    8 1    
    16    8    9 1    
    17    8  134 1    
    18    8  135 1    
    19    9   10 ar   
    20    9   14 ar   
    21   10   11 ar   
    22   10  136 1    
    23   11   12 ar   
    24   11  126 1    
    25   12   13 ar   
    26   12  137 1    
    27   13   14 ar   
    28   13   15 1    
    29   14  138 1    
    30   15   16 1    
    31   15  139 1    
    32   15  140 1    
    33   16   17 1    
    34   17   18 1    
    35   17  141 1    
    36   17  142 1    
    37   18   19 1    
    38   18   67 1    
    39   18  143 1    
    40   19   20 am   BACKBONE|DICT|INTERRES
    41   19  144 1    
    42   20   21 2    
    43   20   22 1    
    44   22   23 1    
    45   22   24 1    
    46   22  145 1    
    47   23  146 1    
    48   23  147 1    
    49   23  148 1    
    50   24   25 am   BACKBONE|DICT|INTERRES
    51   24  149 1    
    52   25   26 2    
    53   25   27 1    
    54   27   28 1    
    55   27   29 1    
    56   27  150 1    
    57   28  151 1    
    58   28  152 1    
    59   28  153 1    
    60   29   30 am   BACKBONE|DICT|INTERRES
    61   29  154 1    
    62   30   31 2    
    63   30   32 1    
    64   32   33 1    
    65   32   34 1    
    66   32  155 1    
    67   33  156 1    
    68   33  157 1    
    69   33  158 1    
    70   34   35 am   BACKBONE|DICT|INTERRES
    71   34  159 1    
    72   35   36 2    
    73   35   37 1    
    74   37   38 1    
    75   37   39 1    
    76   37  160 1    
    77   38  161 1    
    78   38  162 1    
    79   38  163 1    
    80   39   40 am   BACKBONE|DICT|INTERRES
    81   39  164 1    
    82   40   41 2    
    83   40   42 1    
    84   42   43 1    
    85   42   44 1    
    86   42  165 1    
    87   43  166 1    
    88   43  167 1    
    89   43  168 1    
    90   44   45 am   BACKBONE|DICT|INTERRES
    91   44  169 1    
    92   45   46 2    
    93   45   47 1    
    94   47   48 1    
    95   47   49 1    
    96   47  170 1    
    97   48  171 1    
    98   48  172 1    
    99   48  173 1    
   100   49   50 am   BACKBONE|DICT|INTERRES
   101   49  174 1    
   102   50   51 2    
   103   50   52 1    
   104   52   53 1    
   105   52   54 1    
   106   52  175 1    
   107   53  176 1    
   108   53  177 1    
   109   53  178 1    
   110   54   55 am   BACKBONE|DICT|INTERRES
   111   54  179 1    
   112   55   56 2    
   113   55   57 1    
   114   57   58 1    
   115   57   59 1    
   116   57  180 1    
   117   58  181 1    
   118   58  182 1    
   119   58  183 1    
   120   59   60 am   BACKBONE|DICT|INTERRES
   121   59  184 1    
   122   60   61 2    
   123   60   62 1    
   124   62   63 1    
   125   62   64 1    
   126   62  185 1    
   127   63  186 1    
   128   63  187 1    
   129   63  188 1    
   130   64   65 am   BACKBONE|DICT|INTERRES
   131   64  189 1    
   132   65   66 2    
   133   67   68 2    
   134   67   69 am   BACKBONE|DICT|INTERRES
   135   69   70 1    
   136   69  190 1    
   137   70   71 1    
   138   70   72 1    
   139   70  191 1    
   140   71  192 1    
   141   71  193 1    
   142   71  194 1    
   143   72   73 2    
   144   72   74 am   BACKBONE|DICT|INTERRES
   145   74   75 1    
   146   74  195 1    
   147   75   76 1    
   148   75   77 1    
   149   75  196 1    
   150   76  197 1    
   151   76  198 1    
   152   76  199 1    
   153   77   78 2    
   154   77   79 am   BACKBONE|DICT|INTERRES
   155   79   80 1    
   156   79  200 1    
   157   80   81 1    
   158   80   82 1    
   159   80  201 1    
   160   81  202 1    
   161   81  203 1    
   162   81  204 1    
   163   82   83 2    
   164   82   84 am   BACKBONE|DICT|INTERRES
   165   84   85 1    
   166   84  205 1    
   167   85   86 1    
   168   85   87 1    
   169   85  206 1    
   170   86  207 1    
   171   86  208 1    
   172   86  209 1    
   173   87   88 2    
   174   87   89 am   BACKBONE|DICT|INTERRES
   175   89   90 1    
   176   89  210 1    
   177   90   91 1    
   178   90   92 1    
   179   90  211 1    
   180   91  212 1    
   181   91  213 1    
   182   91  214 1    
   183   92   93 2    
   184   92   94 am   BACKBONE|DICT|INTERRES
   185   94   95 1    
   186   94  215 1    
   187   95   96 1    
   188   95   97 1    
   189   95  216 1    
   190   96  217 1    
   191   96  218 1    
   192   96  219 1    
   193   97   98 2    
   194   97   99 am   BACKBONE|DICT|INTERRES
   195   99  100 1    
   196   99  220 1    
   197  100  101 1    
   198  100  102 1    
   199  100  221 1    
   200  101  222 1    
   201  101  223 1    
   202  101  224 1    
   203  102  103 2    
   204  102  104 am   BACKBONE|DICT|INTERRES
   205  104  105 1    
   206  104  225 1    
   207  105  106 1    
   208  105  107 1    
   209  105  226 1    
   210  106  227 1    
   211  106  228 1    
   212  106  229 1    
   213  107  108 2    
   214  107  109 am   BACKBONE|DICT|INTERRES
   215  109  110 1    
   216  109  230 1    
   217  110  111 1    
   218  110  112 1    
   219  110  231 1    
   220  111  232 1    
   221  111  233 1    
   222  111  234 1    
   223  112  113 2    
   224  112  114 am   BACKBONE|DICT|INTERRES
   225  114  115 1    
   226  114  235 1    
   227  115  116 1    
   228  115  117 1    
   229  115  236 1    
   230  116  237 1    
   231  116  238 1    
   232  116  239 1    
   233  117  118 2    
   234  117  119 am   BACKBONE|DICT|INTERRES
   235  119  120 1    
   236  119  240 1    
   237  120  121 1    
   238  120  124 1    
   239  120  241 1    
   240  121  122 am   BACKBONE|DICT|INTERRES
   241  121  123 2    
   242  122  242 1    
   243  122  243 1    
   244  124  125 1    
   245  124  244 1    
   246  124  245 1    
   247  125  126 1    
   248  126  246 1    
   249  126  247 1    
@<TRIPOS>SUBSTRUCTURE
     1 UNK         1 GROUP             0       ****    0 ROOT    
