@<TRIPOS>MOLECULE
3R540
247   249    1
SMALL
USER_CHARGES


@<TRIPOS>ATOM
      1 CA         -2.2921  -14.6035  -50.0236 C.3       0 UNK        -0.1800 
      2 C          -1.1514  -13.6012  -50.1397 C.2       0 UNK         0.5000 
      3 O          -1.3419  -12.5102  -50.6775 O.2       0 UNK        -0.5000 
      4 N           0.0359  -13.9796  -49.6543 N.am      1 UNK        -0.5000 
      5 CA          1.2554  -13.1706  -49.6603 C.3       1 UNK         0.1400 
      6 C6          2.5409  -14.0448  -49.6209 C.3       23 UNK        -0.0398 
      7 S7          2.9066  -14.9353  -48.0611 S.3       23 UNK        -0.2404 
      8 C8          1.7143  -16.3134  -47.9959 C.3       23 UNK        -0.0205 
      9 C9          1.8994  -17.3599  -49.0873 C.ar      23 UNK        -0.0193 
     10 C10         1.3840  -17.1471  -50.3671 C.ar      23 UNK        -0.1150 
     11 C11         1.5077  -18.1109  -51.3715 C.ar      23 UNK        -0.0193 
     12 C12         2.1485  -19.3176  -51.0745 C.ar      23 UNK        -0.1150 
     13 C13         2.6510  -19.5581  -49.7903 C.ar      23 UNK        -0.0193 
     14 C14         2.5336  -18.5719  -48.8054 C.ar      23 UNK        -0.1150 
     15 C15         3.3137  -20.8873  -49.4620 C.3       23 UNK        -0.0205 
     16 S16         2.0873  -22.2000  -49.1642 S.3       23 UNK        -0.2404 
     17 C17         1.2187  -21.5737  -47.6835 C.3       23 UNK        -0.0398 
     18 CA          0.6305  -22.7051  -46.8103 C.3       11 UNK         0.1400 
     19 N           0.2770  -22.2349  -45.4721 N.am      11 UNK        -0.5000 
     20 C          -0.0246  -23.0407  -44.4449 C.2       10 UNK         0.5000 
     21 O           0.0427  -24.2694  -44.4950 O.2       10 UNK        -0.5000 
     22 CA         -0.5283  -22.3607  -43.1604 C.3       10 UNK         0.1400 
     23 CB          0.6513  -21.8523  -42.3186 C.3       10 UNK        -0.1800 
     24 N          -1.4572  -21.2609  -43.4317 N.am      10 UNK        -0.5000 
     25 C          -2.6549  -21.4095  -44.0163 C.2       9 UNK         0.5000 
     26 O          -3.1147  -22.4993  -44.3567 O.2       9 UNK        -0.5000 
     27 CA         -3.4634  -20.1297  -44.2993 C.3       9 UNK         0.1400 
     28 CB         -4.1666  -19.6366  -43.0262 C.3       9 UNK        -0.1800 
     29 N          -2.6553  -19.0483  -44.8634 N.am      9 UNK        -0.5000 
     30 C          -2.0180  -19.0994  -46.0423 C.2       8 UNK         0.5000 
     31 O          -2.0464  -20.0704  -46.7957 O.2       8 UNK        -0.5000 
     32 CA         -1.1463  -17.8846  -46.4068 C.3       8 UNK         0.1400 
     33 CB         -2.0112  -16.6918  -46.8477 C.3       8 UNK        -0.1800 
     34 N          -0.2801  -17.4857  -45.2959 N.am      8 UNK        -0.5000 
     35 C           0.6628  -18.2693  -44.7500 C.2       7 UNK         0.5000 
     36 O           0.9557  -19.3884  -45.1706 O.2       7 UNK        -0.5000 
     37 CA          1.3588  -17.7313  -43.4894 C.3       7 UNK         0.1400 
     38 CB          2.5063  -16.7766  -43.8569 C.3       7 UNK        -0.1800 
     39 N           0.4130  -17.0661  -42.5910 N.am      7 UNK        -0.5000 
     40 C          -0.5426  -17.7066  -41.8996 C.2       6 UNK         0.5000 
     41 O          -0.6928  -18.9267  -41.9152 O.2       6 UNK        -0.5000 
     42 CA         -1.5241  -16.8393  -41.0903 C.3       6 UNK         0.1400 
     43 CB         -0.9407  -16.5102  -39.7083 C.3       6 UNK        -0.1800 
     44 N          -1.8732  -15.5968  -41.7776 N.am      6 UNK        -0.5000 
     45 C          -2.5443  -15.5254  -42.9368 C.2       5 UNK         0.5000 
     46 O          -3.0124  -16.5056  -43.5138 O.2       5 UNK        -0.5000 
     47 CA         -2.6542  -14.1307  -43.5845 C.3       5 UNK         0.1400 
     48 CB         -3.9354  -13.4197  -43.1254 C.3       5 UNK        -0.1800 
     49 N          -1.4920  -13.2896  -43.2809 N.am      5 UNK        -0.5000 
     50 C          -0.2532  -13.5412  -43.7230 C.2       4 UNK         0.5000 
     51 O           0.0199  -14.4450  -44.5174 O.2       4 UNK        -0.5000 
     52 CA          0.8733  -12.7219  -43.0828 C.3       4 UNK         0.1400 
     53 CB          1.3401  -13.4313  -41.7921 C.3       4 UNK        -0.1800 
     54 N           1.9653  -12.5833  -44.0420 N.am      4 UNK        -0.5000 
     55 C           3.1049  -11.9057  -43.8526 C.2       3 UNK         0.5000 
     56 O           3.3984  -11.3179  -42.8108 O.2       3 UNK        -0.5000 
     57 CA          4.0694  -11.8396  -45.0505 C.3       3 UNK         0.1400 
     58 CB          4.7571  -13.1957  -45.2748 C.3       3 UNK        -0.1800 
     59 N           3.4111  -11.4045  -46.2847 N.am      3 UNK        -0.5000 
     60 C           2.8291  -10.2076  -46.4622 C.2       2 UNK         0.5000 
     61 O           2.8023   -9.3307  -45.5975 O.2       2 UNK        -0.5000 
     62 CA          2.1858   -9.9115  -47.8336 C.3       2 UNK         0.1400 
     63 CB          2.9658   -8.8084  -48.5678 C.3       2 UNK        -0.1800 
     64 N           2.0761  -11.0700  -48.7231 N.am      2 UNK        -0.5000 
     65 C           1.2275  -12.0920  -48.5566 C.2       1 UNK         0.5000 
     66 O           0.4745  -12.2024  -47.5855 O.2       1 UNK        -0.5000 
     67 C          -0.5642  -23.4142  -47.4818 C.2       11 UNK         0.5000 
     68 O          -0.3937  -24.5204  -47.9889 O.2       11 UNK        -0.5000 
     69 N          -1.7601  -22.8096  -47.4214 N.am      12 UNK        -0.5000 
     70 CA         -3.0020  -23.3491  -47.9825 C.3       12 UNK         0.1400 
     71 CB         -4.1212  -22.3077  -47.8481 C.3       12 UNK        -0.1800 
     72 C          -3.4336  -24.6908  -47.3667 C.2       12 UNK         0.5000 
     73 O          -3.9858  -25.5290  -48.0791 O.2       12 UNK        -0.5000 
     74 N          -3.1515  -24.8918  -46.0737 N.am      13 UNK        -0.5000 
     75 CA         -3.3772  -26.1539  -45.3692 C.3       13 UNK         0.1400 
     76 CB         -3.1637  -25.9413  -43.8631 C.3       13 UNK        -0.1800 
     77 C          -2.4898  -27.3023  -45.8908 C.2       13 UNK         0.5000 
     78 O          -2.9400  -28.4482  -45.9162 O.2       13 UNK        -0.5000 
     79 N          -1.2590  -26.9779  -46.3093 N.am      14 UNK        -0.5000 
     80 CA         -0.3055  -27.9244  -46.8873 C.3       14 UNK         0.1400 
     81 CB          1.1242  -27.4295  -46.6161 C.3       14 UNK        -0.1800 
     82 C          -0.5370  -28.1251  -48.3959 C.2       14 UNK         0.5000 
     83 O          -0.4929  -29.2587  -48.8746 O.2       14 UNK        -0.5000 
     84 N          -0.7764  -27.0218  -49.1162 N.am      15 UNK        -0.5000 
     85 CA         -0.9530  -26.9748  -50.5690 C.3       15 UNK         0.1400 
     86 CB         -0.7104  -25.5333  -51.0464 C.3       15 UNK        -0.1800 
     87 C          -2.3256  -27.4790  -51.0561 C.2       15 UNK         0.5000 
     88 O          -2.4707  -27.7292  -52.2532 O.2       15 UNK        -0.5000 
     89 N          -3.2913  -27.6146  -50.1347 N.am      16 UNK        -0.5000 
     90 CA         -4.7008  -27.9496  -50.3558 C.3       16 UNK         0.1400 
     91 CB         -4.8668  -29.3399  -51.0058 C.3       16 UNK        -0.1800 
     92 C          -5.4120  -26.8174  -51.1207 C.2       16 UNK         0.5000 
     93 O          -5.7991  -26.9849  -52.2789 O.2       16 UNK        -0.5000 
     94 N          -5.5350  -25.6749  -50.4331 N.am      17 UNK        -0.5000 
     95 CA         -6.0119  -24.3765  -50.9127 C.3       17 UNK         0.1400 
     96 CB         -7.4297  -24.4622  -51.5232 C.3       17 UNK        -0.1800 
     97 C          -4.9619  -23.6957  -51.8141 C.2       17 UNK         0.5000 
     98 O          -3.7638  -23.8931  -51.6001 O.2       17 UNK        -0.5000 
     99 N          -5.4198  -22.8647  -52.7615 N.am      18 UNK        -0.5000 
    100 CA        -4.6607  -22.0638  -53.7335 C.3       18 UNK         0.1400 
    101 CB        -3.7920  -22.9493  -54.6480 C.3       18 UNK        -0.1800 
    102 C         -3.8350  -20.9227  -53.1079 C.2       18 UNK         0.5000 
    103 O         -4.0075  -19.7688  -53.4956 O.2       18 UNK        -0.5000 
    104 N         -2.9871  -21.2433  -52.1241 N.am      19 UNK        -0.5000 
    105 CA        -2.0829  -20.3133  -51.4384 C.3       19 UNK         0.1400 
    106 CB        -1.0433  -21.1204  -50.6551 C.3       19 UNK        -0.1800 
    107 C         -2.7845  -19.2789  -50.5303 C.2       19 UNK         0.5000 
    108 O         -2.1294  -18.3701  -50.0232 O.2       19 UNK        -0.5000 
    109 N         -4.1038  -19.4173  -50.3500 N.am      20 UNK        -0.5000 
    110 CA        -4.9554  -18.4389  -49.6774 C.3       20 UNK         0.1400 
    111 CB        -6.2439  -19.1416  -49.2222 C.3       20 UNK        -0.1800 
    112 C         -5.2876  -17.2217  -50.5678 C.2       20 UNK         0.5000 
    113 O         -5.6762  -16.1817  -50.0353 O.2       20 UNK        -0.5000 
    114 N         -5.1516  -17.3649  -51.8938 N.am      21 UNK        -0.5000 
    115 CA        -5.4840  -16.3527  -52.8929 C.3       21 UNK         0.1400 
    116 CB        -7.0051  -16.3387  -53.1451 C.3       21 UNK        -0.1800 
    117 C         -4.6664  -16.6479  -54.1586 C.2       21 UNK         0.5000 
    118 O         -5.2051  -17.1536  -55.1446 O.2       21 UNK        -0.5000 
    119 N         -3.3587  -16.3813  -54.0687 N.am      22 UNK        -0.5000 
    120 CA        -2.3195  -16.7786  -55.0378 C.3       22 UNK         0.1400 
    121 C         -2.4489  -16.1809  -56.4709 C.2       22 UNK         0.5000 
    122 N         -3.2299  -15.1300  -56.6881 N.am      22 UNK        -0.7600 
    123 O         -1.8228  -16.6795  -57.4022 O.2       22 UNK        -0.5000 
    124 C124       -0.8916  -16.5117  -54.4864 C.3       23 UNK        -0.0398 
    125 S125       -0.6727  -17.0553  -52.7593 S.3       23 UNK        -0.2404 
    126 C126        0.9766  -17.8345  -52.7771 C.3       23 UNK        -0.0205 
    127 H127       -2.9770  -14.3085  -49.2288 H         1 UNK         0.0600 
    128 H128       -1.9236  -15.6063  -49.8058 H         1 UNK         0.0600 
    129 H129       -2.8520  -14.6517  -50.9575 H         1 UNK         0.0600 
    130 H130        0.1101  -14.8639  -49.1782 H         1 UNK         0.3000 
    131 H131        1.2742  -12.6365  -50.6131 H         1 UNK         0.0600 
    132 H132        2.5493  -14.7455  -50.4534 H         1 UNK         0.0800 
    133 H133        3.4042  -13.4062  -49.8133 H         1 UNK         0.0800 
    134 H134        1.8333  -16.7876  -47.0223 H         1 UNK         0.0800 
    135 H135        0.6960  -15.9340  -48.0052 H         1 UNK         0.0800 
    136 H136        0.8737  -16.2266  -50.5937 H         1 UNK         0.1150 
    137 H137        2.2466  -20.0779  -51.8366 H         1 UNK         0.1150 
    138 H138        2.9179  -18.7561  -47.8119 H         1 UNK         0.1150 
    139 H139        3.9571  -21.1866  -50.2906 H         1 UNK         0.0800 
    140 H140        3.9640  -20.7916  -48.5911 H         1 UNK         0.0800 
    141 H141        0.4495  -20.8580  -47.9776 H         1 UNK         0.0800 
    142 H142        1.9413  -21.0094  -47.0932 H         1 UNK         0.0800 
    143 H143        1.4141  -23.4548  -46.6774 H         1 UNK         0.0600 
    144 H144        0.2383  -21.2286  -45.3388 H         1 UNK         0.3000 
    145 H145       -1.0634  -23.1124  -42.5764 H         1 UNK         0.0600 
    146 H146        0.3104  -21.4571  -41.3616 H         1 UNK         0.0600 
    147 H147        1.3554  -22.6574  -42.1048 H         1 UNK         0.0600 
    148 H148        1.2001  -21.0619  -42.8314 H         1 UNK         0.0600 
    149 H149       -1.1685  -20.3369  -43.1223 H         1 UNK         0.3000 
    150 H150       -4.2326  -20.3795  -45.0323 H         1 UNK         0.0600 
    151 H151       -4.7994  -20.4172  -42.6021 H         1 UNK         0.0600 
    152 H152       -4.8047  -18.7780  -43.2361 H         1 UNK         0.0600 
    153 H153       -3.4506  -19.3407  -42.2594 H         1 UNK         0.0600 
    154 H154       -2.6073  -18.1897  -44.3213 H         1 UNK         0.3000 
    155 H155       -0.5072  -18.1720  -47.2445 H         1 UNK         0.0600 
    156 H156       -2.7573  -16.4275  -46.0998 H         1 UNK         0.0600 
    157 H157       -2.5476  -16.9258  -47.7666 H         1 UNK         0.0600 
    158 H158       -1.4095  -15.8039  -47.0383 H         1 UNK         0.0600 
    159 H159       -0.4304  -16.5642  -44.9033 H         1 UNK         0.3000 
    160 H160        1.7892  -18.5827  -42.9580 H         1 UNK         0.0600 
    161 H161        2.1559  -15.9025  -44.4050 H         1 UNK         0.0600 
    162 H162        3.2402  -17.2793  -44.4881 H         1 UNK         0.0600 
    163 H163        3.0303  -16.4275  -42.9673 H         1 UNK         0.0600 
    164 H164        0.4411  -16.0588  -42.5667 H         1 UNK         0.3000 
    165 H165       -2.4404  -17.4158  -40.9474 H         1 UNK         0.0600 
    166 H166       -1.6551  -15.9546  -39.1007 H         1 UNK         0.0600 
    167 H167       -0.6926  -17.4221  -39.1634 H         1 UNK         0.0600 
    168 H168       -0.0295  -15.9156  -39.7844 H         1 UNK         0.0600 
    169 H169       -1.5450  -14.7394  -41.3604 H         1 UNK         0.3000 
    170 H170       -2.7057  -14.2683  -44.6667 H         1 UNK         0.0600 
    171 H171       -4.8174  -14.0176  -43.3593 H         1 UNK         0.0600 
    172 H172       -3.9356  -13.2411  -42.0495 H         1 UNK         0.0600 
    173 H173       -4.0537  -12.4587  -43.6262 H         1 UNK         0.0600 
    174 H174       -1.6414  -12.5302  -42.6318 H         1 UNK         0.3000 
    175 H175        0.4951  -11.7265  -42.8422 H         1 UNK         0.0600 
    176 H176        1.8375  -14.3764  -42.0104 H         1 UNK         0.0600 
    177 H177        2.0337  -12.8171  -41.2192 H         1 UNK         0.0600 
    178 H178        0.5006  -13.6452  -41.1301 H         1 UNK         0.0600 
    179 H179        1.7912  -13.0272  -44.9356 H         1 UNK         0.3000 
    180 H180        4.8432  -11.1057  -44.8157 H         1 UNK         0.0600 
    181 H181        4.0367  -13.9871  -45.4823 H         1 UNK         0.0600 
    182 H182        5.3205  -13.4949  -44.3902 H         1 UNK         0.0600 
    183 H183        5.4590  -13.1525  -46.1077 H         1 UNK         0.0600 
    184 H184        3.3831  -12.0676  -47.0445 H         1 UNK         0.3000 
    185 H185        1.1776   -9.5400  -47.6379 H         1 UNK         0.0600 
    186 H186        3.0325   -7.9036  -47.9620 H         1 UNK         0.0600 
    187 H187        3.9840   -9.1229  -48.8001 H         1 UNK         0.0600 
    188 H188        2.4765   -8.5332  -49.5024 H         1 UNK         0.0600 
    189 H189        2.6700  -11.0531  -49.5398 H         1 UNK         0.3000 
    190 H190       -1.8230  -21.8795  -47.0116 H         1 UNK         0.3000 
    191 H191       -2.8322  -23.5278  -49.0451 H         1 UNK         0.0600 
    192 H192       -3.8670  -21.3901  -48.3765 H         1 UNK         0.0600 
    193 H193       -5.0588  -22.6747  -48.2630 H         1 UNK         0.0600 
    194 H194       -4.3063  -22.0516  -46.8054 H         1 UNK         0.0600 
    195 H195       -2.7761  -24.1202  -45.5314 H         1 UNK         0.3000 
    196 H196       -4.4183  -26.4434  -45.5264 H         1 UNK         0.0600 
    197 H197       -3.3595  -26.8591  -43.3073 H         1 UNK         0.0600 
    198 H198       -3.8351  -25.1754  -43.4742 H         1 UNK         0.0600 
    199 H199       -2.1418  -25.6338  -43.6404 H         1 UNK         0.0600 
    200 H200       -0.9746  -26.0072  -46.2783 H         1 UNK         0.3000 
    201 H201       -0.4205  -28.8939  -46.3977 H         1 UNK         0.0600 
    202 H202        1.3112  -27.3363  -45.5462 H         1 UNK         0.0600 
    203 H203        1.3113  -26.4567  -47.0721 H         1 UNK         0.0600 
    204 H204        1.8610  -28.1270  -47.0164 H         1 UNK         0.0600 
    205 H205       -0.7407  -26.1182  -48.6450 H         1 UNK         0.3000 
    206 H206       -0.1942  -27.6137  -51.0254 H         1 UNK         0.0600 
    207 H207        0.2915  -25.1925  -50.7843 H         1 UNK         0.0600 
    208 H208       -0.8097  -25.4527  -52.1295 H         1 UNK         0.0600 
    209 H209       -1.4240  -24.8402  -50.6008 H         1 UNK         0.0600 
    210 H210       -3.0672  -27.3130  -49.1953 H         1 UNK         0.3000 
    211 H211       -5.1602  -28.0012  -49.3673 H         1 UNK         0.0600 
    212 H212       -4.4794  -29.3716  -52.0241 H         1 UNK         0.0600 
    213 H213       -5.9201  -29.6180  -51.0535 H         1 UNK         0.0600 
    214 H214       -4.3531  -30.1079  -50.4277 H         1 UNK         0.0600 
    215 H215       -5.0849  -25.6468  -49.5197 H         1 UNK         0.3000 
    216 H216       -6.0892  -23.7515  -50.0240 H         1 UNK         0.0600 
    217 H217       -7.8701  -23.4715  -51.6401 H         1 UNK         0.0600 
    218 H218       -8.0996  -25.0311  -50.8782 H         1 UNK         0.0600 
    219 H219       -7.4279  -24.9397  -52.5035 H         1 UNK         0.0600 
    220 H220       -6.4226  -22.7604  -52.8291 H         1 UNK         0.3000 
    221 H221       -5.4107  -21.5889  -54.3683 H         1 UNK         0.0600 
    222 H222       -2.9970  -23.4548  -54.0991 H         1 UNK         0.0600 
    223 H223       -4.3933  -23.7121  -55.1427 H         1 UNK         0.0600 
    224 H224       -3.3178  -22.3525  -55.4280 H         1 UNK         0.0600 
    225 H225       -2.9547  -22.2197  -51.8405 H         1 UNK         0.3000 
    226 H226       -1.5521  -19.7504  -52.2067 H         1 UNK         0.0600 
    227 H227       -0.4661  -21.7727  -51.3105 H         1 UNK         0.0600 
    228 H228       -0.3385  -20.4567  -50.1548 H         1 UNK         0.0600 
    229 H229       -1.5127  -21.7376  -49.8936 H         1 UNK         0.0600 
    230 H230       -4.5637  -20.1943  -50.7986 H         1 UNK         0.3000 
    231 H231       -4.4382  -18.0709  -48.7891 H         1 UNK         0.0600 
    232 H232       -6.8017  -19.5479  -50.0669 H         1 UNK         0.0600 
    233 H233       -6.9021  -18.4481  -48.6973 H         1 UNK         0.0600 
    234 H234       -6.0261  -19.9606  -48.5367 H         1 UNK         0.0600 
    235 H235       -4.7803  -18.2326  -52.2683 H         1 UNK         0.3000 
    236 H236       -5.1837  -15.3677  -52.5290 H         1 UNK         0.0600 
    237 H237       -7.5532  -16.0523  -52.2476 H         1 UNK         0.0600 
    238 H238       -7.2645  -15.6220  -53.9251 H         1 UNK         0.0600 
    239 H239       -7.3692  -17.3172  -53.4605 H         1 UNK         0.0600 
    240 H240       -3.0042  -16.0012  -53.2034 H         1 UNK         0.3000 
    241 H241       -2.4232  -17.8590  -55.1569 H         1 UNK         0.0600 
    242 H242       -3.3088  -14.7522  -57.6193 H         1 UNK         0.3800 
    243 H243       -3.7586  -14.7215  -55.9343 H         1 UNK         0.3800 
    244 H244       -0.1490  -17.0070  -55.1145 H         1 UNK         0.0800 
    245 H245       -0.6616  -15.4453  -54.5236 H         1 UNK         0.0800 
    246 H246        0.9229  -18.7571  -53.3571 H         1 UNK         0.0800 
    247 H247        1.6810  -17.1770  -53.2882 H         1 UNK         0.0800 
@<TRIPOS>BOND
     1    1    2 1    
     2    1  127 1    
     3    1  128 1    
     4    1  129 1    
     5    2    3 2    
     6    2    4 am   BACKBONE|DICT|INTERRES
     7    4    5 1    
     8    4  130 1    
     9    5    6 1    
    10    5   65 1    
    11    5  131 1    
    12    6    7 1    
    13    6  132 1    
    14    6  133 1    
    15    7    8 1    
    16    8    9 1    
    17    8  134 1    
    18    8  135 1    
    19    9   10 ar   
    20    9   14 ar   
    21   10   11 ar   
    22   10  136 1    
    23   11   12 ar   
    24   11  126 1    
    25   12   13 ar   
    26   12  137 1    
    27   13   14 ar   
    28   13   15 1    
    29   14  138 1    
    30   15   16 1    
    31   15  139 1    
    32   15  140 1    
    33   16   17 1    
    34   17   18 1    
    35   17  141 1    
    36   17  142 1    
    37   18   19 1    
    38   18   67 1    
    39   18  143 1    
    40   19   20 am   BACKBONE|DICT|INTERRES
    41   19  144 1    
    42   20   21 2    
    43   20   22 1    
    44   22   23 1    
    45   22   24 1    
    46   22  145 1    
    47   23  146 1    
    48   23  147 1    
    49   23  148 1    
    50   24   25 am   BACKBONE|DICT|INTERRES
    51   24  149 1    
    52   25   26 2    
    53   25   27 1    
    54   27   28 1    
    55   27   29 1    
    56   27  150 1    
    57   28  151 1    
    58   28  152 1    
    59   28  153 1    
    60   29   30 am   BACKBONE|DICT|INTERRES
    61   29  154 1    
    62   30   31 2    
    63   30   32 1    
    64   32   33 1    
    65   32   34 1    
    66   32  155 1    
    67   33  156 1    
    68   33  157 1    
    69   33  158 1    
    70   34   35 am   BACKBONE|DICT|INTERRES
    71   34  159 1    
    72   35   36 2    
    73   35   37 1    
    74   37   38 1    
    75   37   39 1    
    76   37  160 1    
    77   38  161 1    
    78   38  162 1    
    79   38  163 1    
    80   39   40 am   BACKBONE|DICT|INTERRES
    81   39  164 1    
    82   40   41 2    
    83   40   42 1    
    84   42   43 1    
    85   42   44 1    
    86   42  165 1    
    87   43  166 1    
    88   43  167 1    
    89   43  168 1    
    90   44   45 am   BACKBONE|DICT|INTERRES
    91   44  169 1    
    92   45   46 2    
    93   45   47 1    
    94   47   48 1    
    95   47   49 1    
    96   47  170 1    
    97   48  171 1    
    98   48  172 1    
    99   48  173 1    
   100   49   50 am   BACKBONE|DICT|INTERRES
   101   49  174 1    
   102   50   51 2    
   103   50   52 1    
   104   52   53 1    
   105   52   54 1    
   106   52  175 1    
   107   53  176 1    
   108   53  177 1    
   109   53  178 1    
   110   54   55 am   BACKBONE|DICT|INTERRES
   111   54  179 1    
   112   55   56 2    
   113   55   57 1    
   114   57   58 1    
   115   57   59 1    
   116   57  180 1    
   117   58  181 1    
   118   58  182 1    
   119   58  183 1    
   120   59   60 am   BACKBONE|DICT|INTERRES
   121   59  184 1    
   122   60   61 2    
   123   60   62 1    
   124   62   63 1    
   125   62   64 1    
   126   62  185 1    
   127   63  186 1    
   128   63  187 1    
   129   63  188 1    
   130   64   65 am   BACKBONE|DICT|INTERRES
   131   64  189 1    
   132   65   66 2    
   133   67   68 2    
   134   67   69 am   BACKBONE|DICT|INTERRES
   135   69   70 1    
   136   69  190 1    
   137   70   71 1    
   138   70   72 1    
   139   70  191 1    
   140   71  192 1    
   141   71  193 1    
   142   71  194 1    
   143   72   73 2    
   144   72   74 am   BACKBONE|DICT|INTERRES
   145   74   75 1    
   146   74  195 1    
   147   75   76 1    
   148   75   77 1    
   149   75  196 1    
   150   76  197 1    
   151   76  198 1    
   152   76  199 1    
   153   77   78 2    
   154   77   79 am   BACKBONE|DICT|INTERRES
   155   79   80 1    
   156   79  200 1    
   157   80   81 1    
   158   80   82 1    
   159   80  201 1    
   160   81  202 1    
   161   81  203 1    
   162   81  204 1    
   163   82   83 2    
   164   82   84 am   BACKBONE|DICT|INTERRES
   165   84   85 1    
   166   84  205 1    
   167   85   86 1    
   168   85   87 1    
   169   85  206 1    
   170   86  207 1    
   171   86  208 1    
   172   86  209 1    
   173   87   88 2    
   174   87   89 am   BACKBONE|DICT|INTERRES
   175   89   90 1    
   176   89  210 1    
   177   90   91 1    
   178   90   92 1    
   179   90  211 1    
   180   91  212 1    
   181   91  213 1    
   182   91  214 1    
   183   92   93 2    
   184   92   94 am   BACKBONE|DICT|INTERRES
   185   94   95 1    
   186   94  215 1    
   187   95   96 1    
   188   95   97 1    
   189   95  216 1    
   190   96  217 1    
   191   96  218 1    
   192   96  219 1    
   193   97   98 2    
   194   97   99 am   BACKBONE|DICT|INTERRES
   195   99  100 1    
   196   99  220 1    
   197  100  101 1    
   198  100  102 1    
   199  100  221 1    
   200  101  222 1    
   201  101  223 1    
   202  101  224 1    
   203  102  103 2    
   204  102  104 am   BACKBONE|DICT|INTERRES
   205  104  105 1    
   206  104  225 1    
   207  105  106 1    
   208  105  107 1    
   209  105  226 1    
   210  106  227 1    
   211  106  228 1    
   212  106  229 1    
   213  107  108 2    
   214  107  109 am   BACKBONE|DICT|INTERRES
   215  109  110 1    
   216  109  230 1    
   217  110  111 1    
   218  110  112 1    
   219  110  231 1    
   220  111  232 1    
   221  111  233 1    
   222  111  234 1    
   223  112  113 2    
   224  112  114 am   BACKBONE|DICT|INTERRES
   225  114  115 1    
   226  114  235 1    
   227  115  116 1    
   228  115  117 1    
   229  115  236 1    
   230  116  237 1    
   231  116  238 1    
   232  116  239 1    
   233  117  118 2    
   234  117  119 am   BACKBONE|DICT|INTERRES
   235  119  120 1    
   236  119  240 1    
   237  120  121 1    
   238  120  124 1    
   239  120  241 1    
   240  121  122 am   BACKBONE|DICT|INTERRES
   241  121  123 2    
   242  122  242 1    
   243  122  243 1    
   244  124  125 1    
   245  124  244 1    
   246  124  245 1    
   247  125  126 1    
   248  126  246 1    
   249  126  247 1    
@<TRIPOS>SUBSTRUCTURE
     1 UNK         1 GROUP             0       ****    0 ROOT    
