@<TRIPOS>MOLECULE
3R540
247   249    1
SMALL
USER_CHARGES


@<TRIPOS>ATOM
      1 CA         -0.5741  -11.3392  -47.6693 C.3       0 UNK        -0.1800 
      2 C           0.0552  -12.3242  -46.6867 C.2       0 UNK         0.5000 
      3 O          -0.4459  -12.4618  -45.5750 O.2       0 UNK        -0.5000 
      4 N           1.1444  -13.0237  -47.0399 N.am      1 UNK        -0.5000 
      5 CA          1.9105  -12.9005  -48.2928 C.3       1 UNK         0.1400 
      6 C6          2.8624  -14.1008  -48.5255 C.3       23 UNK        -0.0398 
      7 S7          2.0276  -15.7164  -48.3964 S.3       23 UNK        -0.2404 
      8 C8          1.5425  -16.0186  -50.1219 C.3       23 UNK        -0.0205 
      9 C9          0.7531  -17.3127  -50.2249 C.ar      23 UNK        -0.0193 
     10 C10        -0.6437  -17.2969  -50.1577 C.ar      23 UNK        -0.1150 
     11 C11        -1.3742  -18.4891  -50.1966 C.ar      23 UNK        -0.0193 
     12 C12        -0.6829  -19.7035  -50.2734 C.ar      23 UNK        -0.1150 
     13 C13         0.7099  -19.7329  -50.3728 C.ar      23 UNK        -0.0193 
     14 C14         1.4229  -18.5316  -50.3577 C.ar      23 UNK        -0.1150 
     15 C15         1.4343  -21.0684  -50.4811 C.3       23 UNK        -0.0205 
     16 S16         2.6480  -21.3479  -49.1477 S.3       23 UNK        -0.2404 
     17 C17         1.6965  -20.9719  -47.6354 C.3       23 UNK        -0.0398 
     18 CA          1.0524  -22.2137  -46.9791 C.3       11 UNK         0.1400 
     19 N           0.7949  -21.9905  -45.5567 N.am      11 UNK        -0.5000 
     20 C           0.4068  -22.9305  -44.6855 C.2       10 UNK         0.5000 
     21 O           0.2714  -24.1198  -44.9752 O.2       10 UNK        -0.5000 
     22 CA          0.0658  -22.4454  -43.2641 C.3       10 UNK         0.1400 
     23 CB          1.3401  -22.2461  -42.4303 C.3       10 UNK        -0.1800 
     24 N          -0.7175  -21.2075  -43.2709 N.am      10 UNK        -0.5000 
     25 C          -1.9561  -21.1064  -43.7746 C.2       9 UNK         0.5000 
     26 O          -2.5836  -22.0604  -44.2344 O.2       9 UNK        -0.5000 
     27 CA         -2.5870  -19.7027  -43.8087 C.3       9 UNK         0.1400 
     28 CB         -3.1616  -19.3300  -42.4341 C.3       9 UNK        -0.1800 
     29 N          -1.6530  -18.6666  -44.2511 N.am      9 UNK        -0.5000 
     30 C          -1.0903  -18.6148  -45.4672 C.2       8 UNK         0.5000 
     31 O          -1.3212  -19.4255  -46.3609 O.2       8 UNK        -0.5000 
     32 CA         -0.0537  -17.5051  -45.7117 C.3       8 UNK         0.1400 
     33 CB         -0.7483  -16.1651  -45.9897 C.3       8 UNK        -0.1800 
     34 N           0.8830  -17.3608  -44.5962 N.am      8 UNK        -0.5000 
     35 C           1.7096  -18.3283  -44.1719 C.2       7 UNK         0.5000 
     36 O           1.8049  -19.4330  -44.7042 O.2       7 UNK        -0.5000 
     37 CA          2.5199  -18.0376  -42.8997 C.3       7 UNK         0.1400 
     38 CB          3.7727  -17.2085  -43.2194 C.3       7 UNK        -0.1800 
     39 N           1.7067  -17.3566  -41.8932 N.am      7 UNK        -0.5000 
     40 C           0.7022  -17.9387  -41.2215 C.2       6 UNK         0.5000 
     41 O           0.3914  -19.1237  -41.3469 O.2       6 UNK        -0.5000 
     42 CA         -0.1178  -17.0318  -40.2854 C.3       6 UNK         0.1400 
     43 CB          0.5747  -16.8915  -38.9218 C.3       6 UNK        -0.1800 
     44 N          -0.3479  -15.7020  -40.8531 N.am      6 UNK        -0.5000 
     45 C          -1.1006  -15.4637  -41.9366 C.2       5 UNK         0.5000 
     46 O          -1.7183  -16.3390  -42.5409 O.2       5 UNK        -0.5000 
     47 CA         -1.1375  -14.0150  -42.4569 C.3       5 UNK         0.1400 
     48 CB         -2.2828  -13.2329  -41.7981 C.3       5 UNK        -0.1800 
     49 N           0.1182  -13.2860  -42.2631 N.am      5 UNK        -0.5000 
     50 C           1.2986  -13.6256  -42.7947 C.2       4 UNK         0.5000 
     51 O           1.4683  -14.6312  -43.4882 O.2       4 UNK        -0.5000 
     52 CA          2.4738  -12.6703  -42.5018 C.3       4 UNK         0.1400 
     53 CB          3.8354  -13.2864  -42.8691 C.3       4 UNK        -0.1800 
     54 N           2.3281  -11.4055  -43.2198 N.am      4 UNK        -0.5000 
     55 C           1.4834  -10.4107  -42.9194 C.2       3 UNK         0.5000 
     56 O           0.7417  -10.4342  -41.9354 O.2       3 UNK        -0.5000 
     57 CA          1.4209   -9.2024  -43.8815 C.3       3 UNK         0.1400 
     58 CB          1.8724   -7.9013  -43.1885 C.3       3 UNK        -0.1800 
     59 N           2.1066   -9.3997  -45.1703 N.am      3 UNK        -0.5000 
     60 C           3.4224   -9.4625  -45.4280 C.2       2 UNK         0.5000 
     61 O           4.3004   -9.3319  -44.5755 O.2       2 UNK        -0.5000 
     62 CA          3.7889   -9.8563  -46.8686 C.3       2 UNK         0.1400 
     63 CB          5.3056   -9.9831  -47.1088 C.3       2 UNK        -0.1800 
     64 N           3.1284  -11.1274  -47.1448 N.am      2 UNK        -0.5000 
     65 C           2.7119  -11.5808  -48.3312 C.2       1 UNK         0.5000 
     66 O           2.8979  -10.9985  -49.3993 O.2       1 UNK        -0.5000 
     67 C          -0.2217  -22.6678  -47.7211 C.2       11 UNK         0.5000 
     68 O          -0.1657  -23.6401  -48.4724 O.2       11 UNK        -0.5000 
     69 N          -1.3561  -22.0006  -47.4602 N.am      12 UNK        -0.5000 
     70 CA         -2.6734  -22.3517  -47.9908 C.3       12 UNK         0.1400 
     71 CB         -3.7179  -21.3160  -47.5533 C.3       12 UNK        -0.1800 
     72 C          -3.1226  -23.7587  -47.5736 C.2       12 UNK         0.5000 
     73 O          -3.6098  -24.5031  -48.4213 O.2       12 UNK        -0.5000 
     74 N          -2.9205  -24.1127  -46.2971 N.am      13 UNK        -0.5000 
     75 CA         -3.2081  -25.4408  -45.7551 C.3       13 UNK         0.1400 
     76 CB         -3.0183  -25.4317  -44.2309 C.3       13 UNK        -0.1800 
     77 C          -2.3613  -26.5468  -46.4119 C.2       13 UNK         0.5000 
     78 O          -2.9007  -27.6023  -46.7451 O.2       13 UNK        -0.5000 
     79 N          -1.0665  -26.2715  -46.6240 N.am      14 UNK        -0.5000 
     80 CA         -0.1319  -27.1629  -47.3133 C.3       14 UNK         0.1400 
     81 CB          1.3021  -26.6454  -47.1217 C.3       14 UNK        -0.1800 
     82 C          -0.4584  -27.3336  -48.8102 C.2       14 UNK         0.5000 
     83 O          -0.3857  -28.4497  -49.3255 O.2       14 UNK        -0.5000 
     84 N          -0.8264  -26.2306  -49.4749 N.am      15 UNK        -0.5000 
     85 CA         -1.1834  -26.1832  -50.8943 C.3       15 UNK         0.1400 
     86 CB         -1.0182  -24.7380  -51.3944 C.3       15 UNK        -0.1800 
     87 C          -2.6098  -26.6799  -51.2006 C.2       15 UNK         0.5000 
     88 O          -2.9488  -26.8164  -52.3757 O.2       15 UNK        -0.5000 
     89 N          -3.4375  -26.8798  -50.1638 N.am      16 UNK        -0.5000 
     90 CA         -4.8803  -27.1526  -50.2248 C.3       16 UNK         0.1400 
     91 CB         -5.1544  -28.5474  -50.8240 C.3       16 UNK        -0.1800 
     92 C          -5.6537  -26.0185  -50.9370 C.2       16 UNK         0.5000 
     93 O          -6.5628  -26.2768  -51.7269 O.2       16 UNK        -0.5000 
     94 N          -5.2272  -24.7776  -50.6600 N.am      17 UNK        -0.5000 
     95 CA         -5.6781  -23.4911  -51.2006 C.3       17 UNK         0.1400 
     96 CB         -7.1506  -23.2258  -50.8286 C.3       17 UNK        -0.1800 
     97 C          -5.4200  -23.2769  -52.7080 C.2       17 UNK         0.5000 
     98 O          -5.8139  -22.2355  -53.2347 O.2       17 UNK        -0.5000 
     99 N          -4.7505  -24.2249  -53.3798 N.am      18 UNK        -0.5000 
    100 CA        -4.5243  -24.2225  -54.8284 C.3       18 UNK         0.1400 
    101 CB        -4.1595  -25.6454  -55.2778 C.3       18 UNK        -0.1800 
    102 C         -3.4553  -23.2191  -55.3032 C.2       18 UNK         0.5000 
    103 O         -3.3453  -22.9860  -56.5081 O.2       18 UNK        -0.5000 
    104 N         -2.6877  -22.6434  -54.3689 N.am      19 UNK        -0.5000 
    105 CA        -1.6447  -21.6447  -54.6040 C.3       19 UNK         0.1400 
    106 CB        -0.7525  -21.5669  -53.3547 C.3       19 UNK        -0.1800 
    107 C         -2.2369  -20.2747  -54.9975 C.2       19 UNK         0.5000 
    108 O         -2.2558  -19.3481  -54.1880 O.2       19 UNK        -0.5000 
    109 N         -2.7263  -20.1916  -56.2417 N.am      20 UNK        -0.5000 
    110 CA        -3.3723  -19.0360  -56.8731 C.3       20 UNK         0.1400 
    111 CB        -2.3998  -17.8420  -56.9858 C.3       20 UNK        -0.1800 
    112 C         -4.7254  -18.6660  -56.2270 C.2       20 UNK         0.5000 
    113 O         -5.0809  -17.4871  -56.1875 O.2       20 UNK        -0.5000 
    114 N         -5.4624  -19.6939  -55.7752 N.am      21 UNK        -0.5000 
    115 CA        -6.8050  -19.6500  -55.1865 C.3       21 UNK         0.1400 
    116 CB        -7.8440  -19.1881  -56.2302 C.3       21 UNK        -0.1800 
    117 C         -6.8542  -18.8186  -53.8890 C.2       21 UNK         0.5000 
    118 O         -7.3105  -17.6730  -53.9004 O.2       21 UNK        -0.5000 
    119 N         -6.3800  -19.4170  -52.7894 N.am      22 UNK        -0.5000 
    120 CA        -6.3732  -18.8046  -51.4463 C.3       22 UNK         0.1400 
    121 C         -7.7826  -18.5940  -50.8142 C.2       22 UNK         0.5000 
    122 N         -8.8378  -19.2350  -51.3029 N.am      22 UNK        -0.7600 
    123 O         -7.9193  -17.8328  -49.8605 O.2       22 UNK        -0.5000 
    124 C124       -5.4656  -19.5657  -50.4462 C.3       23 UNK        -0.0398 
    125 S125       -3.7484  -19.7801  -51.0181 S.3       23 UNK        -0.2404 
    126 C126       -2.8988  -18.4389  -50.1083 C.3       23 UNK        -0.0205 
    127 H127       -1.5236  -10.9713  -47.2797 H         1 UNK         0.0600 
    128 H128       -0.7774  -11.8148  -48.6283 H         1 UNK         0.0600 
    129 H129        0.0729  -10.4778  -47.8307 H         1 UNK         0.0600 
    130 H130        1.4965  -13.7127  -46.3903 H         1 UNK         0.3000 
    131 H131        1.2056  -12.8811  -49.1256 H         1 UNK         0.0600 
    132 H132        3.3441  -14.0260  -49.5023 H         1 UNK         0.0800 
    133 H133        3.6696  -14.0964  -47.7906 H         1 UNK         0.0800 
    134 H134        2.4323  -16.0705  -50.7512 H         1 UNK         0.0800 
    135 H135        0.9465  -15.1813  -50.4881 H         1 UNK         0.0800 
    136 H136       -1.1618  -16.3534  -50.0590 H         1 UNK         0.1150 
    137 H137       -1.2299  -20.6340  -50.2600 H         1 UNK         0.1150 
    138 H138        2.5024  -18.5488  -50.4129 H         1 UNK         0.1150 
    139 H139        0.7230  -21.8954  -50.4870 H         1 UNK         0.0800 
    140 H140        1.9518  -21.1098  -51.4402 H         1 UNK         0.0800 
    141 H141        0.9644  -20.1810  -47.8009 H         1 UNK         0.0800 
    142 H142        2.4255  -20.5414  -46.9490 H         1 UNK         0.0800 
    143 H143        1.7699  -23.0353  -47.0347 H         1 UNK         0.0600 
    144 H144        0.9241  -21.0395  -45.2206 H         1 UNK         0.3000 
    145 H145       -0.5358  -23.2203  -42.7845 H         1 UNK         0.0600 
    146 H146        1.0991  -21.9718  -41.4032 H         1 UNK         0.0600 
    147 H147        1.9296  -23.1630  -42.3933 H         1 UNK         0.0600 
    148 H148        1.9756  -21.4627  -42.8438 H         1 UNK         0.0600 
    149 H149       -0.2793  -20.3847  -42.8711 H         1 UNK         0.3000 
    150 H150       -3.4120  -19.7293  -44.5232 H         1 UNK         0.0600 
    151 H151       -3.8698  -20.0842  -42.0886 H         1 UNK         0.0600 
    152 H152       -3.6932  -18.3792  -42.4747 H         1 UNK         0.0600 
    153 H153       -2.3790  -19.2430  -41.6800 H         1 UNK         0.0600 
    154 H154       -1.4537  -17.9225  -43.5881 H         1 UNK         0.3000 
    155 H155        0.5267  -17.7776  -46.5957 H         1 UNK         0.0600 
    156 H156       -1.4181  -15.8758  -45.1807 H         1 UNK         0.0600 
    157 H157       -1.3400  -16.2186  -46.9042 H         1 UNK         0.0600 
    158 H158       -0.0205  -15.3667  -46.1186 H         1 UNK         0.0600 
    159 H159        0.8996  -16.4648  -44.1197 H         1 UNK         0.3000 
    160 H160        2.8462  -18.9930  -42.4828 H         1 UNK         0.0600 
    161 H161        3.5240  -16.2613  -43.6972 H         1 UNK         0.0600 
    162 H162        4.4299  -17.7507  -43.9002 H         1 UNK         0.0600 
    163 H163        4.3458  -16.9919  -42.3178 H         1 UNK         0.0600 
    164 H164        1.8555  -16.3643  -41.7852 H         1 UNK         0.3000 
    165 H165       -1.0886  -17.5069  -40.1282 H         1 UNK         0.0600 
    166 H166       -0.0355  -16.3136  -38.2275 H         1 UNK         0.0600 
    167 H167        0.7434  -17.8691  -38.4682 H         1 UNK         0.0600 
    168 H168        1.5436  -16.3982  -39.0088 H         1 UNK         0.0600 
    169 H169        0.1222  -14.9248  -40.4131 H         1 UNK         0.3000 
    170 H170       -1.3293  -14.0589  -43.5304 H         1 UNK         0.0600 
    171 H171       -3.2376  -13.7396  -41.9456 H         1 UNK         0.0600 
    172 H172       -2.1302  -13.1233  -40.7237 H         1 UNK         0.0600 
    173 H173       -2.3754  -12.2353  -42.2281 H         1 UNK         0.0600 
    174 H174        0.0626  -12.3994  -41.7745 H         1 UNK         0.3000 
    175 H175        2.4780  -12.4668  -41.4289 H         1 UNK         0.0600 
    176 H176        3.9035  -13.5174  -43.9330 H         1 UNK         0.0600 
    177 H177        4.6537  -12.6101  -42.6209 H         1 UNK         0.0600 
    178 H178        4.0047  -14.2123  -42.3185 H         1 UNK         0.0600 
    179 H179        2.9335  -11.2722  -44.0135 H         1 UNK         0.3000 
    180 H180        0.3657   -9.0837  -44.1326 H         1 UNK         0.0600 
    181 H181        2.9005   -7.9628  -42.8314 H         1 UNK         0.0600 
    182 H182        1.2443   -7.6846  -42.3236 H         1 UNK         0.0600 
    183 H183        1.7998   -7.0482  -43.8630 H         1 UNK         0.0600 
    184 H184        1.4833   -9.5459  -45.9516 H         1 UNK         0.3000 
    185 H185        3.3908   -9.0838  -47.5300 H         1 UNK         0.0600 
    186 H186        5.8156   -9.0442  -46.8898 H         1 UNK         0.0600 
    187 H187        5.7492  -10.7556  -46.4796 H         1 UNK         0.0600 
    188 H188        5.5208  -10.2341  -48.1475 H         1 UNK         0.0600 
    189 H189        2.9020  -11.6844  -46.3340 H         1 UNK         0.3000 
    190 H190       -1.3155  -21.1671  -46.8763 H         1 UNK         0.3000 
    191 H191       -2.6059  -22.3292  -49.0802 H         1 UNK         0.0600 
    192 H192       -3.8647  -21.3174  -46.4737 H         1 UNK         0.0600 
    193 H193       -4.6843  -21.5173  -48.0169 H         1 UNK         0.0600 
    194 H194       -3.4205  -20.3115  -47.8423 H         1 UNK         0.0600 
    195 H195       -2.5619  -23.4196  -45.6464 H         1 UNK         0.3000 
    196 H196       -4.2572  -25.6613  -45.9629 H         1 UNK         0.0600 
    197 H197       -3.2519  -26.4070  -43.8023 H         1 UNK         0.0600 
    198 H198       -3.6752  -24.7020  -43.7572 H         1 UNK         0.0600 
    199 H199       -1.9933  -25.1872  -43.9522 H         1 UNK         0.0600 
    200 H200       -0.6932  -25.3900  -46.2867 H         1 UNK         0.3000 
    201 H201       -0.2003  -28.1470  -46.8450 H         1 UNK         0.0600 
    202 H202        1.5623  -26.5895  -46.0645 H         1 UNK         0.0600 
    203 H203        1.4337  -25.6513  -47.5497 H         1 UNK         0.0600 
    204 H204        2.0239  -27.3079  -47.6009 H         1 UNK         0.0600 
    205 H205       -0.7920  -25.3364  -48.9901 H         1 UNK         0.3000 
    206 H206       -0.4906  -26.8177  -51.4507 H         1 UNK         0.0600 
    207 H207        0.0009  -24.3821  -51.2420 H         1 UNK         0.0600 
    208 H208       -1.2300  -24.6655  -52.4619 H         1 UNK         0.0600 
    209 H209       -1.6920  -24.0540  -50.8769 H         1 UNK         0.0600 
    210 H210       -3.0728  -26.6834  -49.2408 H         1 UNK         0.3000 
    211 H211       -5.2323  -27.1605  -49.1922 H         1 UNK         0.0600 
    212 H212       -4.8835  -28.5983  -51.8789 H         1 UNK         0.0600 
    213 H213       -6.2115  -28.8037  -50.7463 H         1 UNK         0.0600 
    214 H214       -4.5940  -29.3190  -50.2960 H         1 UNK         0.0600 
    215 H215       -4.5018  -24.7051  -49.9468 H         1 UNK         0.3000 
    216 H216       -5.0698  -22.7421  -50.6930 H         1 UNK         0.0600 
    217 H217       -7.4607  -22.2230  -51.1240 H         1 UNK         0.0600 
    218 H218       -7.3047  -23.3067  -49.7526 H         1 UNK         0.0600 
    219 H219       -7.8248  -23.9286  -51.3185 H         1 UNK         0.0600 
    220 H220       -4.4477  -25.0517  -52.8813 H         1 UNK         0.3000 
    221 H221       -5.4623  -23.9468  -55.3148 H         1 UNK         0.0600 
    222 H222       -3.1919  -25.9554  -54.8822 H         1 UNK         0.0600 
    223 H223       -4.9053  -26.3695  -54.9487 H         1 UNK         0.0600 
    224 H224       -4.1023  -25.7092  -56.3651 H         1 UNK         0.0600 
    225 H225       -2.8781  -22.8718  -53.4055 H         1 UNK         0.3000 
    226 H226       -1.0194  -21.9811  -55.4338 H         1 UNK         0.0600 
    227 H227       -0.2099  -22.4985  -53.1976 H         1 UNK         0.0600 
    228 H228       -0.0104  -20.7726  -53.4459 H         1 UNK         0.0600 
    229 H229       -1.3430  -21.3665  -52.4618 H         1 UNK         0.0600 
    230 H230       -2.7315  -21.0484  -56.7860 H         1 UNK         0.3000 
    231 H231       -3.6105  -19.3509  -57.8901 H         1 UNK         0.0600 
    232 H232       -1.4595  -18.1409  -57.4489 H         1 UNK         0.0600 
    233 H233       -2.1722  -17.4089  -56.0114 H         1 UNK         0.0600 
    234 H234       -2.8252  -17.0491  -57.6019 H         1 UNK         0.0600 
    235 H235       -5.0470  -20.6127  -55.8270 H         1 UNK         0.3000 
    236 H236       -7.0627  -20.6758  -54.9212 H         1 UNK         0.0600 
    237 H237       -8.8514  -19.2203  -55.8137 H         1 UNK         0.0600 
    238 H238       -7.6646  -18.1666  -56.5665 H         1 UNK         0.0600 
    239 H239       -7.8345  -19.8350  -57.1073 H         1 UNK         0.0600 
    240 H240       -6.0250  -20.3666  -52.8629 H         1 UNK         0.3000 
    241 H241       -5.9497  -17.8051  -51.5628 H         1 UNK         0.0600 
    242 H242       -9.7439  -19.0865  -50.8869 H         1 UNK         0.3800 
    243 H243       -8.7432  -19.8587  -52.0876 H         1 UNK         0.3800 
    244 H244       -5.4502  -19.0570  -49.4806 H         1 UNK         0.0800 
    245 H245       -5.8774  -20.5545  -50.2476 H         1 UNK         0.0800 
    246 H246       -3.2601  -17.4881  -50.5031 H         1 UNK         0.0800 
    247 H247       -3.1772  -18.4601  -49.0556 H         1 UNK         0.0800 
@<TRIPOS>BOND
     1    1    2 1    
     2    1  127 1    
     3    1  128 1    
     4    1  129 1    
     5    2    3 2    
     6    2    4 am   BACKBONE|DICT|INTERRES
     7    4    5 1    
     8    4  130 1    
     9    5    6 1    
    10    5   65 1    
    11    5  131 1    
    12    6    7 1    
    13    6  132 1    
    14    6  133 1    
    15    7    8 1    
    16    8    9 1    
    17    8  134 1    
    18    8  135 1    
    19    9   10 ar   
    20    9   14 ar   
    21   10   11 ar   
    22   10  136 1    
    23   11   12 ar   
    24   11  126 1    
    25   12   13 ar   
    26   12  137 1    
    27   13   14 ar   
    28   13   15 1    
    29   14  138 1    
    30   15   16 1    
    31   15  139 1    
    32   15  140 1    
    33   16   17 1    
    34   17   18 1    
    35   17  141 1    
    36   17  142 1    
    37   18   19 1    
    38   18   67 1    
    39   18  143 1    
    40   19   20 am   BACKBONE|DICT|INTERRES
    41   19  144 1    
    42   20   21 2    
    43   20   22 1    
    44   22   23 1    
    45   22   24 1    
    46   22  145 1    
    47   23  146 1    
    48   23  147 1    
    49   23  148 1    
    50   24   25 am   BACKBONE|DICT|INTERRES
    51   24  149 1    
    52   25   26 2    
    53   25   27 1    
    54   27   28 1    
    55   27   29 1    
    56   27  150 1    
    57   28  151 1    
    58   28  152 1    
    59   28  153 1    
    60   29   30 am   BACKBONE|DICT|INTERRES
    61   29  154 1    
    62   30   31 2    
    63   30   32 1    
    64   32   33 1    
    65   32   34 1    
    66   32  155 1    
    67   33  156 1    
    68   33  157 1    
    69   33  158 1    
    70   34   35 am   BACKBONE|DICT|INTERRES
    71   34  159 1    
    72   35   36 2    
    73   35   37 1    
    74   37   38 1    
    75   37   39 1    
    76   37  160 1    
    77   38  161 1    
    78   38  162 1    
    79   38  163 1    
    80   39   40 am   BACKBONE|DICT|INTERRES
    81   39  164 1    
    82   40   41 2    
    83   40   42 1    
    84   42   43 1    
    85   42   44 1    
    86   42  165 1    
    87   43  166 1    
    88   43  167 1    
    89   43  168 1    
    90   44   45 am   BACKBONE|DICT|INTERRES
    91   44  169 1    
    92   45   46 2    
    93   45   47 1    
    94   47   48 1    
    95   47   49 1    
    96   47  170 1    
    97   48  171 1    
    98   48  172 1    
    99   48  173 1    
   100   49   50 am   BACKBONE|DICT|INTERRES
   101   49  174 1    
   102   50   51 2    
   103   50   52 1    
   104   52   53 1    
   105   52   54 1    
   106   52  175 1    
   107   53  176 1    
   108   53  177 1    
   109   53  178 1    
   110   54   55 am   BACKBONE|DICT|INTERRES
   111   54  179 1    
   112   55   56 2    
   113   55   57 1    
   114   57   58 1    
   115   57   59 1    
   116   57  180 1    
   117   58  181 1    
   118   58  182 1    
   119   58  183 1    
   120   59   60 am   BACKBONE|DICT|INTERRES
   121   59  184 1    
   122   60   61 2    
   123   60   62 1    
   124   62   63 1    
   125   62   64 1    
   126   62  185 1    
   127   63  186 1    
   128   63  187 1    
   129   63  188 1    
   130   64   65 am   BACKBONE|DICT|INTERRES
   131   64  189 1    
   132   65   66 2    
   133   67   68 2    
   134   67   69 am   BACKBONE|DICT|INTERRES
   135   69   70 1    
   136   69  190 1    
   137   70   71 1    
   138   70   72 1    
   139   70  191 1    
   140   71  192 1    
   141   71  193 1    
   142   71  194 1    
   143   72   73 2    
   144   72   74 am   BACKBONE|DICT|INTERRES
   145   74   75 1    
   146   74  195 1    
   147   75   76 1    
   148   75   77 1    
   149   75  196 1    
   150   76  197 1    
   151   76  198 1    
   152   76  199 1    
   153   77   78 2    
   154   77   79 am   BACKBONE|DICT|INTERRES
   155   79   80 1    
   156   79  200 1    
   157   80   81 1    
   158   80   82 1    
   159   80  201 1    
   160   81  202 1    
   161   81  203 1    
   162   81  204 1    
   163   82   83 2    
   164   82   84 am   BACKBONE|DICT|INTERRES
   165   84   85 1    
   166   84  205 1    
   167   85   86 1    
   168   85   87 1    
   169   85  206 1    
   170   86  207 1    
   171   86  208 1    
   172   86  209 1    
   173   87   88 2    
   174   87   89 am   BACKBONE|DICT|INTERRES
   175   89   90 1    
   176   89  210 1    
   177   90   91 1    
   178   90   92 1    
   179   90  211 1    
   180   91  212 1    
   181   91  213 1    
   182   91  214 1    
   183   92   93 2    
   184   92   94 am   BACKBONE|DICT|INTERRES
   185   94   95 1    
   186   94  215 1    
   187   95   96 1    
   188   95   97 1    
   189   95  216 1    
   190   96  217 1    
   191   96  218 1    
   192   96  219 1    
   193   97   98 2    
   194   97   99 am   BACKBONE|DICT|INTERRES
   195   99  100 1    
   196   99  220 1    
   197  100  101 1    
   198  100  102 1    
   199  100  221 1    
   200  101  222 1    
   201  101  223 1    
   202  101  224 1    
   203  102  103 2    
   204  102  104 am   BACKBONE|DICT|INTERRES
   205  104  105 1    
   206  104  225 1    
   207  105  106 1    
   208  105  107 1    
   209  105  226 1    
   210  106  227 1    
   211  106  228 1    
   212  106  229 1    
   213  107  108 2    
   214  107  109 am   BACKBONE|DICT|INTERRES
   215  109  110 1    
   216  109  230 1    
   217  110  111 1    
   218  110  112 1    
   219  110  231 1    
   220  111  232 1    
   221  111  233 1    
   222  111  234 1    
   223  112  113 2    
   224  112  114 am   BACKBONE|DICT|INTERRES
   225  114  115 1    
   226  114  235 1    
   227  115  116 1    
   228  115  117 1    
   229  115  236 1    
   230  116  237 1    
   231  116  238 1    
   232  116  239 1    
   233  117  118 2    
   234  117  119 am   BACKBONE|DICT|INTERRES
   235  119  120 1    
   236  119  240 1    
   237  120  121 1    
   238  120  124 1    
   239  120  241 1    
   240  121  122 am   BACKBONE|DICT|INTERRES
   241  121  123 2    
   242  122  242 1    
   243  122  243 1    
   244  124  125 1    
   245  124  244 1    
   246  124  245 1    
   247  125  126 1    
   248  126  246 1    
   249  126  247 1    
@<TRIPOS>SUBSTRUCTURE
     1 UNK         1 GROUP             0       ****    0 ROOT    
