@<TRIPOS>MOLECULE
3R540
247   249    1
SMALL
USER_CHARGES


@<TRIPOS>ATOM
      1 CA          0.0788  -14.1139  -44.2495 C.3       0 UNK        -0.1800 
      2 C          -0.3674  -13.5087  -45.5707 C.2       0 UNK         0.5000 
      3 O          -1.1927  -12.5962  -45.5796 O.2       0 UNK        -0.5000 
      4 N           0.1813  -14.0008  -46.6908 N.am      1 UNK        -0.5000 
      5 CA         -0.1422  -13.5364  -48.0484 C.3       1 UNK         0.1400 
      6 C6          0.3187  -14.5381  -49.1358 C.3       23 UNK        -0.0398 
      7 S7          2.1232  -14.8445  -49.1711 S.3       23 UNK        -0.2404 
      8 C8          2.2186  -16.6623  -49.0544 C.3       23 UNK        -0.0205 
      9 C9          1.4493  -17.3822  -50.1559 C.ar      23 UNK        -0.0193 
     10 C10         1.6440  -17.0578  -51.5029 C.ar      23 UNK        -0.1150 
     11 C11         0.9039  -17.6976  -52.5020 C.ar      23 UNK        -0.0193 
     12 C12        -0.0068  -18.6957  -52.1468 C.ar      23 UNK        -0.1150 
     13 C13        -0.1953  -19.0463  -50.8086 C.ar      23 UNK        -0.0193 
     14 C14         0.5337  -18.3828  -49.8186 C.ar      23 UNK        -0.1150 
     15 C15        -1.2047  -20.1247  -50.4451 C.3       23 UNK        -0.0205 
     16 S16        -0.4024  -21.7165  -50.0697 S.3       23 UNK        -0.2404 
     17 C17         0.0516  -21.4661  -48.3186 C.3       23 UNK        -0.0398 
     18 CA         -0.0879  -22.6899  -47.3776 C.3       11 UNK         0.1400 
     19 N           0.1194  -22.2831  -45.9862 N.am      11 UNK        -0.5000 
     20 C           0.2082  -23.1024  -44.9304 C.2       10 UNK         0.5000 
     21 O           0.1848  -24.3297  -45.0093 O.2       10 UNK        -0.5000 
     22 CA          0.2797  -22.4297  -43.5467 C.3       10 UNK         0.1400 
     23 CB          1.6988  -21.9198  -43.2565 C.3       10 UNK        -0.1800 
     24 N          -0.6733  -21.3263  -43.4116 N.am      10 UNK        -0.5000 
     25 C          -2.0056  -21.4588  -43.4857 C.2       9 UNK         0.5000 
     26 O          -2.5803  -22.5356  -43.6332 O.2       9 UNK        -0.5000 
     27 CA         -2.8338  -20.1654  -43.4418 C.3       9 UNK         0.1400 
     28 CB         -3.0279  -19.6816  -41.9968 C.3       9 UNK        -0.1800 
     29 N          -2.2273  -19.1041  -44.2434 N.am      9 UNK        -0.5000 
     30 C          -2.1547  -19.1168  -45.5815 C.2       8 UNK         0.5000 
     31 O          -2.6060  -20.0196  -46.2868 O.2       8 UNK        -0.5000 
     32 CA         -1.4100  -17.9408  -46.2362 C.3       8 UNK         0.1400 
     33 CB         -2.3133  -16.7020  -46.3217 C.3       8 UNK        -0.1800 
     34 N          -0.1671  -17.6039  -45.5365 N.am      8 UNK        -0.5000 
     35 C           0.9042  -18.4080  -45.4711 C.2       7 UNK         0.5000 
     36 O           0.9740  -19.4953  -46.0404 O.2       7 UNK        -0.5000 
     37 CA          2.0812  -17.9425  -44.5929 C.3       7 UNK         0.1400 
     38 CB          3.0700  -17.0991  -45.4110 C.3       7 UNK        -0.1800 
     39 N           1.6838  -17.1908  -43.3997 N.am      7 UNK        -0.5000 
     40 C           0.8864  -17.6451  -42.4216 C.2       6 UNK         0.5000 
     41 O           0.3257  -18.7411  -42.4611 O.2       6 UNK        -0.5000 
     42 CA          0.6924  -16.7199  -41.2061 C.3       6 UNK         0.1400 
     43 CB          0.4030  -17.5018  -39.9120 C.3       6 UNK        -0.1800 
     44 N           1.8710  -15.8721  -41.0086 N.am      6 UNK        -0.5000 
     45 C           1.8539  -14.5517  -40.7920 C.2       5 UNK         0.5000 
     46 O           0.8166  -13.8912  -40.7034 O.2       5 UNK        -0.5000 
     47 CA          3.2246  -13.8603  -40.6043 C.3       5 UNK         0.1400 
     48 CB          4.3892  -14.5805  -41.3239 C.3       5 UNK        -0.1800 
     49 N           3.1942  -12.4366  -40.9600 N.am      5 UNK        -0.5000 
     50 C           2.9588  -11.9095  -42.1696 C.2       4 UNK         0.5000 
     51 O           2.7952  -12.5708  -43.1985 O.2       4 UNK        -0.5000 
     52 CA          2.9559  -10.3709  -42.2420 C.3       4 UNK         0.1400 
     53 CB          4.3607   -9.8472  -42.5781 C.3       4 UNK        -0.1800 
     54 N           2.0216   -9.8839  -43.2530 N.am      4 UNK        -0.5000 
     55 C           0.6882   -9.9183  -43.1571 C.2       3 UNK         0.5000 
     56 O           0.0901  -10.2632  -42.1374 O.2       3 UNK        -0.5000 
     57 CA         -0.1227   -9.5184  -44.4063 C.3       3 UNK         0.1400 
     58 CB         -0.4207   -8.0068  -44.4250 C.3       3 UNK        -0.1800 
     59 N           0.4556   -9.9796  -45.6773 N.am      3 UNK        -0.5000 
     60 C           1.5690   -9.5733  -46.3083 C.2       2 UNK         0.5000 
     61 O           2.2990   -8.6770  -45.8833 O.2       2 UNK        -0.5000 
     62 CA          1.9611  -10.3290  -47.5960 C.3       2 UNK         0.1400 
     63 CB          3.4885  -10.4363  -47.7548 C.3       2 UNK        -0.1800 
     64 N           1.4008  -11.6799  -47.6005 N.am      2 UNK        -0.5000 
     65 C           0.3579  -12.0997  -48.3283 C.2       1 UNK         0.5000 
     66 O          -0.2275  -11.4006  -49.1556 O.2       1 UNK        -0.5000 
     67 C          -1.4172  -23.4596  -47.5435 C.2       11 UNK         0.5000 
     68 O          -1.4047  -24.5759  -48.0625 O.2       11 UNK        -0.5000 
     69 N          -2.5224  -22.8816  -47.0493 N.am      12 UNK        -0.5000 
     70 CA         -3.8559  -23.4859  -47.0903 C.3       12 UNK         0.1400 
     71 CB         -4.8935  -22.4624  -46.6067 C.3       12 UNK        -0.1800 
     72 C          -3.9678  -24.7972  -46.2881 C.2       12 UNK         0.5000 
     73 O          -4.6814  -25.7054  -46.7136 O.2       12 UNK        -0.5000 
     74 N          -3.2553  -24.8844  -45.1565 N.am      13 UNK        -0.5000 
     75 CA         -3.1468  -26.0932  -44.3404 C.3       13 UNK         0.1400 
     76 CB         -2.5427  -25.7418  -42.9724 C.3       13 UNK        -0.1800 
     77 C          -2.3273  -27.1997  -45.0294 C.2       13 UNK         0.5000 
     78 O          -2.6860  -28.3727  -44.9167 O.2       13 UNK        -0.5000 
     79 N          -1.2518  -26.8135  -45.7312 N.am      14 UNK        -0.5000 
     80 CA         -0.3967  -27.7163  -46.5015 C.3       14 UNK         0.1400 
     81 CB          0.9004  -26.9961  -46.9016 C.3       14 UNK        -0.1800 
     82 C          -1.1103  -28.2966  -47.7356 C.2       14 UNK         0.5000 
     83 O          -1.0001  -29.4986  -47.9833 O.2       14 UNK        -0.5000 
     84 N          -1.8447  -27.4513  -48.4691 N.am      15 UNK        -0.5000 
     85 CA         -2.6500  -27.8441  -49.6185 C.3       15 UNK         0.1400 
     86 CB         -1.7682  -27.9629  -50.8751 C.3       15 UNK        -0.1800 
     87 C          -3.7727  -26.8224  -49.8242 C.2       15 UNK         0.5000 
     88 O          -3.4940  -25.6600  -50.1190 O.2       15 UNK        -0.5000 
     89 N          -5.0288  -27.2743  -49.7206 N.am      16 UNK        -0.5000 
     90 CA         -6.2201  -26.4435  -49.9266 C.3       16 UNK         0.1400 
     91 CB         -7.4685  -27.2385  -49.5167 C.3       16 UNK        -0.1800 
     92 C          -6.3574  -25.9228  -51.3715 C.2       16 UNK         0.5000 
     93 O          -6.9242  -24.8513  -51.5809 O.2       16 UNK        -0.5000 
     94 N          -5.8070  -26.6716  -52.3375 N.am      17 UNK        -0.5000 
     95 CA         -5.7370  -26.2925  -53.7484 C.3       17 UNK         0.1400 
     96 CB         -5.3596  -27.5281  -54.5794 C.3       17 UNK        -0.1800 
     97 C          -4.7473  -25.1422  -54.0178 C.2       17 UNK         0.5000 
     98 O          -4.9579  -24.3768  -54.9590 O.2       17 UNK        -0.5000 
     99 N          -3.6962  -25.0238  -53.1912 N.am      18 UNK        -0.5000 
    100 CA        -2.6755  -23.9796  -53.3112 C.3       18 UNK         0.1400 
    101 CB        -1.4251  -24.3755  -52.5130 C.3       18 UNK        -0.1800 
    102 C         -3.1888  -22.5968  -52.8751 C.2       18 UNK         0.5000 
    103 O         -2.6939  -21.5887  -53.3759 O.2       18 UNK        -0.5000 
    104 N         -4.2070  -22.5696  -52.0015 N.am      19 UNK        -0.5000 
    105 CA        -4.8717  -21.3635  -51.4962 C.3       19 UNK         0.1400 
    106 CB        -5.8652  -21.7658  -50.3961 C.3       19 UNK        -0.1800 
    107 C         -5.5740  -20.5164  -52.5798 C.2       19 UNK         0.5000 
    108 O         -5.9044  -19.3599  -52.3170 O.2       19 UNK        -0.5000 
    109 N         -5.7888  -21.0929  -53.7711 N.am      20 UNK        -0.5000 
    110 CA        -6.2953  -20.3989  -54.9536 C.3       20 UNK         0.1400 
    111 CB        -6.7670  -21.4427  -55.9773 C.3       20 UNK        -0.1800 
    112 C         -5.2584  -19.4496  -55.5899 C.2       20 UNK         0.5000 
    113 O         -5.6552  -18.4887  -56.2517 O.2       20 UNK        -0.5000 
    114 N         -3.9596  -19.7217  -55.3934 N.am      21 UNK        -0.5000 
    115 CA        -2.8663  -18.8656  -55.8521 C.3       21 UNK         0.1400 
    116 CB        -1.5804  -19.6988  -55.9645 C.3       21 UNK        -0.1800 
    117 C         -2.6751  -17.6733  -54.8977 C.2       21 UNK         0.5000 
    118 O         -2.9455  -17.7961  -53.7014 O.2       21 UNK        -0.5000 
    119 N         -2.2115  -16.5442  -55.4498 N.am      22 UNK        -0.5000 
    120 CA        -2.0304  -15.2523  -54.7563 C.3       22 UNK         0.1400 
    121 C         -3.3561  -14.5788  -54.2744 C.2       22 UNK         0.5000 
    122 N         -4.5264  -15.0012  -54.7386 N.am      22 UNK        -0.7600 
    123 O         -3.3287  -13.6275  -53.4982 O.2       22 UNK        -0.5000 
    124 C124       -0.9437  -15.2998  -53.6421 C.3       23 UNK        -0.0398 
    125 S125        0.7435  -15.5527  -54.2991 S.3       23 UNK        -0.2404 
    126 C126        1.0738  -17.3156  -53.9664 C.3       23 UNK        -0.0205 
    127 H127        0.1493  -13.3371  -43.4875 H         1 UNK         0.0600 
    128 H128        1.0584  -14.5818  -44.3376 H         1 UNK         0.0600 
    129 H129       -0.6415  -14.8566  -43.9083 H         1 UNK         0.0600 
    130 H130        0.8812  -14.7256  -46.6386 H         1 UNK         0.3000 
    131 H131       -1.2317  -13.4891  -48.1125 H         1 UNK         0.0600 
    132 H132        0.0135  -14.1929  -50.1253 H         1 UNK         0.0800 
    133 H133       -0.2062  -15.4824  -48.9870 H         1 UNK         0.0800 
    134 H134        1.8482  -16.9629  -48.0746 H         1 UNK         0.0800 
    135 H135        3.2651  -16.9663  -49.0980 H         1 UNK         0.0800 
    136 H136        2.3515  -16.2864  -51.7729 H         1 UNK         0.1150 
    137 H137       -0.5825  -19.1968  -52.9117 H         1 UNK         0.1150 
    138 H138        0.3954  -18.6496  -48.7827 H         1 UNK         0.1150 
    139 H139       -1.8296  -19.7979  -49.6127 H         1 UNK         0.0800 
    140 H140       -1.8832  -20.2745  -51.2829 H         1 UNK         0.0800 
    141 H141       -0.5587  -20.6545  -47.9249 H         1 UNK         0.0800 
    142 H142        1.0797  -21.1026  -48.2909 H         1 UNK         0.0800 
    143 H143        0.7130  -23.3880  -47.6298 H         1 UNK         0.0600 
    144 H144        0.2018  -21.2836  -45.8279 H         1 UNK         0.3000 
    145 H145        0.0266  -23.1812  -42.7962 H         1 UNK         0.0600 
    146 H146        1.7623  -21.4716  -42.2647 H         1 UNK         0.0600 
    147 H147        2.4208  -22.7364  -43.2934 H         1 UNK         0.0600 
    148 H148        2.0136  -21.1708  -43.9829 H         1 UNK         0.0600 
    149 H149       -0.2879  -20.4017  -43.2403 H         1 UNK         0.3000 
    150 H150       -3.8187  -20.3854  -43.8595 H         1 UNK         0.0600 
    151 H151       -3.5195  -20.4467  -41.3947 H         1 UNK         0.0600 
    152 H152       -3.6522  -18.7888  -41.9601 H         1 UNK         0.0600 
    153 H153       -2.0786  -19.4477  -41.5149 H         1 UNK         0.0600 
    154 H154       -1.7688  -18.3625  -43.7360 H         1 UNK         0.3000 
    155 H155       -1.1640  -18.2406  -47.2547 H         1 UNK         0.0600 
    156 H156       -2.5283  -16.2853  -45.3371 H         1 UNK         0.0600 
    157 H157       -1.8537  -15.9220  -46.9267 H         1 UNK         0.0600 
    158 H158       -3.2677  -16.9465  -46.7900 H         1 UNK         0.0600 
    159 H159       -0.1547  -16.7457  -45.0099 H         1 UNK         0.3000 
    160 H160        2.6045  -18.8375  -44.2519 H         1 UNK         0.0600 
    161 H161        3.9474  -16.8369  -44.8195 H         1 UNK         0.0600 
    162 H162        2.6180  -16.1726  -45.7661 H         1 UNK         0.0600 
    163 H163        3.4250  -17.6506  -46.2825 H         1 UNK         0.0600 
    164 H164        2.1033  -16.2807  -43.2817 H         1 UNK         0.3000 
    165 H165       -0.1800  -16.1047  -41.4350 H         1 UNK         0.0600 
    166 H166        0.2565  -16.8263  -39.0692 H         1 UNK         0.0600 
    167 H167       -0.5039  -18.1002  -40.0060 H         1 UNK         0.0600 
    168 H168        1.2206  -18.1786  -39.6614 H         1 UNK         0.0600 
    169 H169        2.7639  -16.3443  -41.0482 H         1 UNK         0.3000 
    170 H170        3.4309  -13.8945  -39.5337 H         1 UNK         0.0600 
    171 H171        4.5717  -15.5680  -40.8992 H         1 UNK         0.0600 
    172 H172        4.1961  -14.7079  -42.3897 H         1 UNK         0.0600 
    173 H173        5.3180  -14.0188  -41.2220 H         1 UNK         0.0600 
    174 H174        3.2980  -11.8024  -40.1804 H         1 UNK         0.3000 
    175 H175        2.6545   -9.9690  -41.2724 H         1 UNK         0.0600 
    176 H176        4.7019  -10.2088  -43.5492 H         1 UNK         0.0600 
    177 H177        4.3807   -8.7574  -42.6005 H         1 UNK         0.0600 
    178 H178        5.0883  -10.1704  -41.8327 H         1 UNK         0.0600 
    179 H179        2.4172   -9.5657  -44.1308 H         1 UNK         0.3000 
    180 H180       -1.0811  -10.0338  -44.3257 H         1 UNK         0.0600 
    181 H181        0.4903   -7.4087  -44.4543 H         1 UNK         0.0600 
    182 H182       -0.9715   -7.7112  -43.5314 H         1 UNK         0.0600 
    183 H183       -1.0300   -7.7352  -45.2870 H         1 UNK         0.0600 
    184 H184       -0.0405  -10.7626  -46.0853 H         1 UNK         0.3000 
    185 H185        1.5720   -9.7516  -48.4367 H         1 UNK         0.0600 
    186 H186        3.9477   -9.4501  -47.8330 H         1 UNK         0.0600 
    187 H187        3.9459  -10.9475  -46.9067 H         1 UNK         0.0600 
    188 H188        3.7518  -10.9861  -48.6587 H         1 UNK         0.0600 
    189 H189        1.8040  -12.3283  -46.9391 H         1 UNK         0.3000 
    190 H190       -2.4594  -21.9519  -46.6449 H         1 UNK         0.3000 
    191 H191       -4.0726  -23.7262  -48.1330 H         1 UNK         0.0600 
    192 H192       -4.7129  -22.1676  -45.5723 H         1 UNK         0.0600 
    193 H193       -5.9026  -22.8722  -46.6626 H         1 UNK         0.0600 
    194 H194       -4.8735  -21.5606  -47.2189 H         1 UNK         0.0600 
    195 H195       -2.7617  -24.0622  -44.8215 H         1 UNK         0.3000 
    196 H196       -4.1540  -26.4809  -44.1736 H         1 UNK         0.0600 
    197 H197       -2.4608  -26.6277  -42.3416 H         1 UNK         0.0600 
    198 H198       -3.1644  -25.0210  -42.4412 H         1 UNK         0.0600 
    199 H199       -1.5446  -25.3141  -43.0703 H         1 UNK         0.0600 
    200 H200       -0.9928  -25.8324  -45.7326 H         1 UNK         0.3000 
    201 H201       -0.1255  -28.5523  -45.8534 H         1 UNK         0.0600 
    202 H202        1.4492  -26.6573  -46.0227 H         1 UNK         0.0600 
    203 H203        0.7051  -26.1262  -47.5285 H         1 UNK         0.0600 
    204 H204        1.5596  -27.6615  -47.4602 H         1 UNK         0.0600 
    205 H205       -1.8624  -26.4601  -48.2332 H         1 UNK         0.3000 
    206 H206       -3.1044  -28.8174  -49.4208 H         1 UNK         0.0600 
    207 H207       -1.0439  -28.7713  -50.7754 H         1 UNK         0.0600 
    208 H208       -2.3692  -28.1731  -51.7606 H         1 UNK         0.0600 
    209 H209       -1.2143  -27.0425  -51.0611 H         1 UNK         0.0600 
    210 H210       -5.1894  -28.2389  -49.4688 H         1 UNK         0.3000 
    211 H211       -6.1388  -25.5730  -49.2717 H         1 UNK         0.0600 
    212 H212       -7.5897  -28.1387  -50.1205 H         1 UNK         0.0600 
    213 H213       -8.3709  -26.6375  -49.6373 H         1 UNK         0.0600 
    214 H214       -7.4174  -27.5385  -48.4698 H         1 UNK         0.0600 
    215 H215       -5.3738  -27.5452  -52.0776 H         1 UNK         0.3000 
    216 H216       -6.7275  -25.9575  -54.0637 H         1 UNK         0.0600 
    217 H217       -5.3224  -27.2869  -55.6427 H         1 UNK         0.0600 
    218 H218       -6.0915  -28.3264  -54.4544 H         1 UNK         0.0600 
    219 H219       -4.3817  -27.9205  -54.2975 H         1 UNK         0.0600 
    220 H220       -3.6183  -25.6409  -52.3941 H         1 UNK         0.3000 
    221 H221       -2.3880  -23.9040  -54.3622 H         1 UNK         0.0600 
    222 H222       -1.6247  -24.4291  -51.4426 H         1 UNK         0.0600 
    223 H223       -1.0386  -25.3417  -52.8363 H         1 UNK         0.0600 
    224 H224       -0.6288  -23.6439  -52.6555 H         1 UNK         0.0600 
    225 H225       -4.5577  -23.4527  -51.6583 H         1 UNK         0.3000 
    226 H226       -4.1085  -20.7323  -51.0407 H         1 UNK         0.0600 
    227 H227       -5.3856  -22.3732  -49.6298 H         1 UNK         0.0600 
    228 H228       -6.2771  -20.8850  -49.9021 H         1 UNK         0.0600 
    229 H229       -6.7031  -22.3337  -50.8004 H         1 UNK         0.0600 
    230 H230       -5.4972  -22.0519  -53.8999 H         1 UNK         0.3000 
    231 H231       -7.1575  -19.7976  -54.6577 H         1 UNK         0.0600 
    232 H232       -7.1909  -20.9611  -56.8594 H         1 UNK         0.0600 
    233 H233       -7.5383  -22.0884  -55.5570 H         1 UNK         0.0600 
    234 H234       -5.9449  -22.0766  -56.3122 H         1 UNK         0.0600 
    235 H235       -3.7001  -20.4685  -54.7578 H         1 UNK         0.3000 
    236 H236       -3.1110  -18.4859  -56.8464 H         1 UNK         0.0600 
    237 H237       -1.7257  -20.5625  -56.6134 H         1 UNK         0.0600 
    238 H238       -0.7690  -19.1076  -56.3899 H         1 UNK         0.0600 
    239 H239       -1.2467  -20.0641  -54.9937 H         1 UNK         0.0600 
    240 H240       -2.0124  -16.5319  -56.4399 H         1 UNK         0.3000 
    241 H241       -1.6650  -14.5690  -55.5237 H         1 UNK         0.0600 
    242 H242       -5.3724  -14.5485  -54.4303 H         1 UNK         0.3800 
    243 H243       -4.5793  -15.7793  -55.3769 H         1 UNK         0.3800 
    244 H244       -0.9066  -14.3525  -53.1025 H         1 UNK         0.0800 
    245 H245       -1.1862  -16.0486  -52.8889 H         1 UNK         0.0800 
    246 H246        0.4224  -17.9160  -54.6009 H         1 UNK         0.0800 
    247 H247        2.0948  -17.5456  -54.2731 H         1 UNK         0.0800 
@<TRIPOS>BOND
     1    1    2 1    
     2    1  127 1    
     3    1  128 1    
     4    1  129 1    
     5    2    3 2    
     6    2    4 am   BACKBONE|DICT|INTERRES
     7    4    5 1    
     8    4  130 1    
     9    5    6 1    
    10    5   65 1    
    11    5  131 1    
    12    6    7 1    
    13    6  132 1    
    14    6  133 1    
    15    7    8 1    
    16    8    9 1    
    17    8  134 1    
    18    8  135 1    
    19    9   10 ar   
    20    9   14 ar   
    21   10   11 ar   
    22   10  136 1    
    23   11   12 ar   
    24   11  126 1    
    25   12   13 ar   
    26   12  137 1    
    27   13   14 ar   
    28   13   15 1    
    29   14  138 1    
    30   15   16 1    
    31   15  139 1    
    32   15  140 1    
    33   16   17 1    
    34   17   18 1    
    35   17  141 1    
    36   17  142 1    
    37   18   19 1    
    38   18   67 1    
    39   18  143 1    
    40   19   20 am   BACKBONE|DICT|INTERRES
    41   19  144 1    
    42   20   21 2    
    43   20   22 1    
    44   22   23 1    
    45   22   24 1    
    46   22  145 1    
    47   23  146 1    
    48   23  147 1    
    49   23  148 1    
    50   24   25 am   BACKBONE|DICT|INTERRES
    51   24  149 1    
    52   25   26 2    
    53   25   27 1    
    54   27   28 1    
    55   27   29 1    
    56   27  150 1    
    57   28  151 1    
    58   28  152 1    
    59   28  153 1    
    60   29   30 am   BACKBONE|DICT|INTERRES
    61   29  154 1    
    62   30   31 2    
    63   30   32 1    
    64   32   33 1    
    65   32   34 1    
    66   32  155 1    
    67   33  156 1    
    68   33  157 1    
    69   33  158 1    
    70   34   35 am   BACKBONE|DICT|INTERRES
    71   34  159 1    
    72   35   36 2    
    73   35   37 1    
    74   37   38 1    
    75   37   39 1    
    76   37  160 1    
    77   38  161 1    
    78   38  162 1    
    79   38  163 1    
    80   39   40 am   BACKBONE|DICT|INTERRES
    81   39  164 1    
    82   40   41 2    
    83   40   42 1    
    84   42   43 1    
    85   42   44 1    
    86   42  165 1    
    87   43  166 1    
    88   43  167 1    
    89   43  168 1    
    90   44   45 am   BACKBONE|DICT|INTERRES
    91   44  169 1    
    92   45   46 2    
    93   45   47 1    
    94   47   48 1    
    95   47   49 1    
    96   47  170 1    
    97   48  171 1    
    98   48  172 1    
    99   48  173 1    
   100   49   50 am   BACKBONE|DICT|INTERRES
   101   49  174 1    
   102   50   51 2    
   103   50   52 1    
   104   52   53 1    
   105   52   54 1    
   106   52  175 1    
   107   53  176 1    
   108   53  177 1    
   109   53  178 1    
   110   54   55 am   BACKBONE|DICT|INTERRES
   111   54  179 1    
   112   55   56 2    
   113   55   57 1    
   114   57   58 1    
   115   57   59 1    
   116   57  180 1    
   117   58  181 1    
   118   58  182 1    
   119   58  183 1    
   120   59   60 am   BACKBONE|DICT|INTERRES
   121   59  184 1    
   122   60   61 2    
   123   60   62 1    
   124   62   63 1    
   125   62   64 1    
   126   62  185 1    
   127   63  186 1    
   128   63  187 1    
   129   63  188 1    
   130   64   65 am   BACKBONE|DICT|INTERRES
   131   64  189 1    
   132   65   66 2    
   133   67   68 2    
   134   67   69 am   BACKBONE|DICT|INTERRES
   135   69   70 1    
   136   69  190 1    
   137   70   71 1    
   138   70   72 1    
   139   70  191 1    
   140   71  192 1    
   141   71  193 1    
   142   71  194 1    
   143   72   73 2    
   144   72   74 am   BACKBONE|DICT|INTERRES
   145   74   75 1    
   146   74  195 1    
   147   75   76 1    
   148   75   77 1    
   149   75  196 1    
   150   76  197 1    
   151   76  198 1    
   152   76  199 1    
   153   77   78 2    
   154   77   79 am   BACKBONE|DICT|INTERRES
   155   79   80 1    
   156   79  200 1    
   157   80   81 1    
   158   80   82 1    
   159   80  201 1    
   160   81  202 1    
   161   81  203 1    
   162   81  204 1    
   163   82   83 2    
   164   82   84 am   BACKBONE|DICT|INTERRES
   165   84   85 1    
   166   84  205 1    
   167   85   86 1    
   168   85   87 1    
   169   85  206 1    
   170   86  207 1    
   171   86  208 1    
   172   86  209 1    
   173   87   88 2    
   174   87   89 am   BACKBONE|DICT|INTERRES
   175   89   90 1    
   176   89  210 1    
   177   90   91 1    
   178   90   92 1    
   179   90  211 1    
   180   91  212 1    
   181   91  213 1    
   182   91  214 1    
   183   92   93 2    
   184   92   94 am   BACKBONE|DICT|INTERRES
   185   94   95 1    
   186   94  215 1    
   187   95   96 1    
   188   95   97 1    
   189   95  216 1    
   190   96  217 1    
   191   96  218 1    
   192   96  219 1    
   193   97   98 2    
   194   97   99 am   BACKBONE|DICT|INTERRES
   195   99  100 1    
   196   99  220 1    
   197  100  101 1    
   198  100  102 1    
   199  100  221 1    
   200  101  222 1    
   201  101  223 1    
   202  101  224 1    
   203  102  103 2    
   204  102  104 am   BACKBONE|DICT|INTERRES
   205  104  105 1    
   206  104  225 1    
   207  105  106 1    
   208  105  107 1    
   209  105  226 1    
   210  106  227 1    
   211  106  228 1    
   212  106  229 1    
   213  107  108 2    
   214  107  109 am   BACKBONE|DICT|INTERRES
   215  109  110 1    
   216  109  230 1    
   217  110  111 1    
   218  110  112 1    
   219  110  231 1    
   220  111  232 1    
   221  111  233 1    
   222  111  234 1    
   223  112  113 2    
   224  112  114 am   BACKBONE|DICT|INTERRES
   225  114  115 1    
   226  114  235 1    
   227  115  116 1    
   228  115  117 1    
   229  115  236 1    
   230  116  237 1    
   231  116  238 1    
   232  116  239 1    
   233  117  118 2    
   234  117  119 am   BACKBONE|DICT|INTERRES
   235  119  120 1    
   236  119  240 1    
   237  120  121 1    
   238  120  124 1    
   239  120  241 1    
   240  121  122 am   BACKBONE|DICT|INTERRES
   241  121  123 2    
   242  122  242 1    
   243  122  243 1    
   244  124  125 1    
   245  124  244 1    
   246  124  245 1    
   247  125  126 1    
   248  126  246 1    
   249  126  247 1    
@<TRIPOS>SUBSTRUCTURE
     1 UNK         1 GROUP             0       ****    0 ROOT    
