@<TRIPOS>MOLECULE
3R540
247   249    1
SMALL
USER_CHARGES


@<TRIPOS>ATOM
      1 CA          6.3611  -18.2396  -52.3391 C.3       0 UNK        -0.1800 
      2 C           5.5623  -17.4549  -51.3072 C.2       0 UNK         0.5000 
      3 O           5.8692  -16.2881  -51.0619 O.2       0 UNK        -0.5000 
      4 N           4.5397  -18.0940  -50.7227 N.am      1 UNK        -0.5000 
      5 CA          3.6556  -17.5886  -49.6646 C.3       1 UNK         0.1400 
      6 C6          3.0179  -16.2097  -49.9945 C.3       23 UNK        -0.0398 
      7 S7          1.4083  -15.9590  -49.1726 S.3       23 UNK        -0.2404 
      8 C8          0.2401  -15.9788  -50.5793 C.3       23 UNK        -0.0205 
      9 C9          0.1347  -17.3096  -51.3245 C.ar      23 UNK        -0.0193 
     10 C10        -0.1481  -17.3042  -52.6937 C.ar      23 UNK        -0.1150 
     11 C11        -0.2724  -18.5036  -53.4007 C.ar      23 UNK        -0.0193 
     12 C12        -0.0880  -19.7176  -52.7359 C.ar      23 UNK        -0.1150 
     13 C13         0.1928  -19.7454  -51.3686 C.ar      23 UNK        -0.0193 
     14 C14         0.2793  -18.5380  -50.6700 C.ar      23 UNK        -0.1150 
     15 C15         0.3809  -21.0835  -50.6620 C.3       23 UNK        -0.0205 
     16 S16         1.9173  -21.1668  -49.6807 S.3       23 UNK        -0.2404 
     17 C17         1.2957  -20.7536  -48.0153 C.3       23 UNK        -0.0398 
     18 CA          1.3011  -21.9647  -47.0577 C.3       11 UNK         0.1400 
     19 N           1.2199  -21.5472  -45.6562 N.am      11 UNK        -0.5000 
     20 C           1.3974  -22.3678  -44.6112 C.2       10 UNK         0.5000 
     21 O           1.7092  -23.5534  -44.7159 O.2       10 UNK        -0.5000 
     22 CA          1.1229  -21.7786  -43.2184 C.3       10 UNK         0.1400 
     23 CB          2.3302  -20.9788  -42.7095 C.3       10 UNK        -0.1800 
     24 N          -0.0758  -20.9389  -43.2072 N.am      10 UNK        -0.5000 
     25 C          -1.3211  -21.4163  -43.3439 C.2       9 UNK         0.5000 
     26 O          -1.5814  -22.6136  -43.4651 O.2       9 UNK        -0.5000 
     27 CA         -2.4650  -20.3842  -43.3787 C.3       9 UNK         0.1400 
     28 CB         -2.8950  -20.0221  -41.9492 C.3       9 UNK        -0.1800 
     29 N          -2.1478  -19.1557  -44.1122 N.am      9 UNK        -0.5000 
     30 C          -1.7623  -19.0934  -45.3947 C.2       8 UNK         0.5000 
     31 O          -1.5920  -20.0822  -46.1071 O.2       8 UNK        -0.5000 
     32 CA         -1.5093  -17.6867  -45.9570 C.3       8 UNK         0.1400 
     33 CB         -1.2063  -17.6644  -47.4612 C.3       8 UNK        -0.1800 
     34 N          -2.5509  -16.7327  -45.5843 N.am      8 UNK        -0.5000 
     35 C          -3.8058  -16.6696  -46.0470 C.2       7 UNK         0.5000 
     36 O          -4.2419  -17.3867  -46.9492 O.2       7 UNK        -0.5000 
     37 CA         -4.7067  -15.5818  -45.4237 C.3       7 UNK         0.1400 
     38 CB         -6.2010  -15.9647  -45.4353 C.3       7 UNK        -0.1800 
     39 N          -4.2647  -15.1529  -44.0900 N.am      7 UNK        -0.5000 
     40 C          -4.2422  -15.8773  -42.9600 C.2       6 UNK         0.5000 
     41 O          -4.6569  -17.0336  -42.8882 O.2       6 UNK        -0.5000 
     42 CA         -3.6093  -15.2144  -41.7175 C.3       6 UNK         0.1400 
     43 CB         -2.9177  -16.2462  -40.8068 C.3       6 UNK        -0.1800 
     44 N          -2.6247  -14.2024  -42.1036 N.am      6 UNK        -0.5000 
     45 C          -2.8270  -12.8781  -42.1247 C.2       5 UNK         0.5000 
     46 O          -3.8732  -12.3429  -41.7580 O.2       5 UNK        -0.5000 
     47 CA         -1.6826  -11.9999  -42.6755 C.3       5 UNK         0.1400 
     48 CB         -0.8615  -11.4063  -41.5209 C.3       5 UNK        -0.1800 
     49 N          -0.7763  -12.7059  -43.5864 N.am      5 UNK        -0.5000 
     50 C          -1.1143  -13.2069  -44.7831 C.2       4 UNK         0.5000 
     51 O          -2.2368  -13.0978  -45.2766 O.2       4 UNK        -0.5000 
     52 CA         -0.0353  -14.0219  -45.5255 C.3       4 UNK         0.1400 
     53 CB          0.7657  -13.1148  -46.4702 C.3       4 UNK        -0.1800 
     54 N           0.8969  -14.7506  -44.6539 N.am      4 UNK        -0.5000 
     55 C           0.5612  -15.6303  -43.6981 C.2       3 UNK         0.5000 
     56 O          -0.6062  -15.8709  -43.3795 O.2       3 UNK        -0.5000 
     57 CA          1.7245  -16.3740  -43.0106 C.3       3 UNK         0.1400 
     58 CB          1.2416  -17.5581  -42.1486 C.3       3 UNK        -0.1800 
     59 N           2.7729  -16.7935  -43.9534 N.am      3 UNK        -0.5000 
     60 C           2.6571  -17.6596  -44.9714 C.2       2 UNK         0.5000 
     61 O           1.6348  -18.2939  -45.2440 O.2       2 UNK        -0.5000 
     62 CA          3.9080  -17.8784  -45.8285 C.3       2 UNK         0.1400 
     63 CB          4.5373  -19.2512  -45.5252 C.3       2 UNK        -0.1800 
     64 N           3.5087  -17.7944  -47.2287 N.am      2 UNK        -0.5000 
     65 C           4.3290  -17.6247  -48.2715 C.2       1 UNK         0.5000 
     66 O           5.5519  -17.5132  -48.1561 O.2       1 UNK        -0.5000 
     67 C           0.1919  -22.9788  -47.4064 C.2       11 UNK         0.5000 
     68 O           0.4867  -24.0108  -48.0070 O.2       11 UNK        -0.5000 
     69 N          -1.0426  -22.6951  -46.9662 N.am      12 UNK        -0.5000 
     70 CA         -2.2164  -23.5518  -47.1315 C.3       12 UNK         0.1400 
     71 CB         -3.4529  -22.8499  -46.5503 C.3       12 UNK        -0.1800 
     72 C          -2.0371  -24.9459  -46.5054 C.2       12 UNK         0.5000 
     73 O          -2.4090  -25.9424  -47.1247 O.2       12 UNK        -0.5000 
     74 N          -1.4378  -24.9966  -45.3088 N.am      13 UNK        -0.5000 
     75 CA         -1.0830  -26.2375  -44.6236 C.3       13 UNK         0.1400 
     76 CB         -0.7036  -25.9224  -43.1685 C.3       13 UNK        -0.1800 
     77 C           0.0510  -27.0072  -45.3284 C.2       13 UNK         0.5000 
     78 O          -0.0155  -28.2338  -45.4178 O.2       13 UNK        -0.5000 
     79 N           1.0743  -26.2814  -45.7976 N.am      14 UNK        -0.5000 
     80 CA          2.2825  -26.8515  -46.3900 C.3       14 UNK         0.1400 
     81 CB          3.4199  -25.8208  -46.3101 C.3       14 UNK        -0.1800 
     82 C           2.1068  -27.3329  -47.8411 C.2       14 UNK         0.5000 
     83 O           2.6078  -28.4072  -48.1772 O.2       14 UNK        -0.5000 
     84 N           1.4582  -26.5190  -48.6839 N.am      15 UNK        -0.5000 
     85 CA          1.5101  -26.6448  -50.1435 C.3       15 UNK         0.1400 
     86 CB          2.6007  -25.6924  -50.6711 C.3       15 UNK        -0.1800 
     87 C           0.1598  -26.3933  -50.8400 C.2       15 UNK         0.5000 
     88 O           0.1391  -26.2964  -52.0686 O.2       15 UNK        -0.5000 
     89 N          -0.9354  -26.3063  -50.0703 N.am      16 UNK        -0.5000 
     90 CA         -2.2947  -25.9635  -50.5134 C.3       16 UNK         0.1400 
     91 CB         -2.8318  -26.9907  -51.5361 C.3       16 UNK        -0.1800 
     92 C          -2.4123  -24.5006  -50.9995 C.2       16 UNK         0.5000 
     93 O          -1.4977  -23.7039  -50.7852 O.2       16 UNK        -0.5000 
     94 N          -3.5653  -24.1599  -51.5943 N.am      17 UNK        -0.5000 
     95 CA         -3.9980  -22.8020  -51.9535 C.3       17 UNK         0.1400 
     96 CB         -3.0838  -22.1883  -53.0385 C.3       17 UNK        -0.1800 
     97 C          -4.1757  -21.9043  -50.7065 C.2       17 UNK         0.5000 
     98 O          -4.4203  -22.4254  -49.6169 O.2       17 UNK        -0.5000 
     99 N          -4.0955  -20.5830  -50.8916 N.am      18 UNK        -0.5000 
    100 CA        -4.2724  -19.5357  -49.8886 C.3       18 UNK         0.1400 
    101 CB        -5.6968  -19.5773  -49.2915 C.3       18 UNK        -0.1800 
    102 C         -4.0502  -18.1861  -50.5846 C.2       18 UNK         0.5000 
    103 O         -4.1273  -18.1154  -51.8156 O.2       18 UNK        -0.5000 
    104 N         -3.8773  -17.1174  -49.7956 N.am      19 UNK        -0.5000 
    105 CA        -3.8627  -15.7387  -50.2987 C.3       19 UNK         0.1400 
    106 CB        -3.4555  -14.7695  -49.1786 C.3       19 UNK        -0.1800 
    107 C         -5.2299  -15.3299  -50.8776 C.2       19 UNK         0.5000 
    108 O         -5.2841  -14.6218  -51.8815 O.2       19 UNK        -0.5000 
    109 N         -6.3082  -15.8333  -50.2603 N.am      20 UNK        -0.5000 
    110 CA        -7.6892  -15.6622  -50.7111 C.3       20 UNK         0.1400 
    111 CB        -8.6335  -16.1344  -49.5948 C.3       20 UNK        -0.1800 
    112 C         -7.9978  -16.4027  -52.0284 C.2       20 UNK         0.5000 
    113 O         -8.8985  -15.9830  -52.7558 O.2       20 UNK        -0.5000 
    114 N         -7.2544  -17.4822  -52.3111 N.am      21 UNK        -0.5000 
    115 CA        -7.3607  -18.2535  -53.5475 C.3       21 UNK         0.1400 
    116 CB        -6.8992  -19.6998  -53.3003 C.3       21 UNK        -0.1800 
    117 C         -6.5511  -17.5990  -54.6788 C.2       21 UNK         0.5000 
    118 O         -7.0790  -17.4243  -55.7780 O.2       21 UNK        -0.5000 
    119 N         -5.2902  -17.2511  -54.3900 N.am      22 UNK        -0.5000 
    120 CA        -4.3669  -16.6276  -55.3511 C.3       22 UNK         0.1400 
    121 C         -4.6395  -15.1220  -55.6287 C.2       22 UNK         0.5000 
    122 N         -5.2314  -14.3650  -54.7148 N.am      22 UNK        -0.7600 
    123 O         -4.3150  -14.6313  -56.7068 O.2       22 UNK        -0.5000 
    124 C124       -2.8903  -16.8598  -54.9514 C.3       23 UNK        -0.0398 
    125 S125       -2.4072  -18.6079  -55.1455 S.3       23 UNK        -0.2404 
    126 C126       -0.6105  -18.5001  -54.8818 C.3       23 UNK        -0.0205 
    127 H127        5.9746  -19.2508  -52.4697 H         1 UNK         0.0600 
    128 H128        7.4038  -18.3119  -52.0299 H         1 UNK         0.0600 
    129 H129        6.3248  -17.7352  -53.3047 H         1 UNK         0.0600 
    130 H130        4.3705  -19.0565  -50.9793 H         1 UNK         0.3000 
    131 H131        2.8557  -18.3264  -49.6337 H         1 UNK         0.0600 
    132 H132        3.6852  -15.3908  -49.7208 H         1 UNK         0.0800 
    133 H133        2.8662  -16.1184  -51.0709 H         1 UNK         0.0800 
    134 H134       -0.7501  -15.7241  -50.2049 H         1 UNK         0.0800 
    135 H135        0.5208  -15.1811  -51.2688 H         1 UNK         0.0800 
    136 H136       -0.2836  -16.3646  -53.2104 H         1 UNK         0.1150 
    137 H137       -0.1741  -20.6433  -53.2871 H         1 UNK         0.1150 
    138 H138        0.4840  -18.5589  -49.6149 H         1 UNK         0.1150 
    139 H139       -0.4897  -21.2896  -50.0380 H         1 UNK         0.0800 
    140 H140        0.4194  -21.8907  -51.3949 H         1 UNK         0.0800 
    141 H141        1.9463  -19.9761  -47.6194 H         1 UNK         0.0800 
    142 H142        0.3009  -20.3123  -48.0731 H         1 UNK         0.0800 
    143 H143        2.2588  -22.4775  -47.1726 H         1 UNK         0.0600 
    144 H144        0.9442  -20.5897  -45.4813 H         1 UNK         0.3000 
    145 H145        0.9607  -22.6131  -42.5326 H         1 UNK         0.0600 
    146 H146        2.1686  -20.6289  -41.6899 H         1 UNK         0.0600 
    147 H147        3.2306  -21.5944  -42.7024 H         1 UNK         0.0600 
    148 H148        2.5332  -20.1111  -43.3349 H         1 UNK         0.0600 
    149 H149        0.0582  -19.9414  -43.1418 H         1 UNK         0.3000 
    150 H150       -3.3136  -20.8522  -43.8808 H         1 UNK         0.0600 
    151 H151       -3.1283  -20.9175  -41.3713 H         1 UNK         0.0600 
    152 H152       -3.7896  -19.4001  -41.9515 H         1 UNK         0.0600 
    153 H153       -2.1113  -19.4817  -41.4166 H         1 UNK         0.0600 
    154 H154       -2.2867  -18.2887  -43.6137 H         1 UNK         0.3000 
    155 H155       -0.6103  -17.3326  -45.4697 H         1 UNK         0.0600 
    156 H156       -1.1547  -16.6466  -47.8406 H         1 UNK         0.0600 
    157 H157       -1.9417  -18.2149  -48.0450 H         1 UNK         0.0600 
    158 H158       -0.2345  -18.1200  -47.6317 H         1 UNK         0.0600 
    159 H159       -2.2989  -16.1062  -44.8309 H         1 UNK         0.3000 
    160 H160       -4.5940  -14.7032  -46.0593 H         1 UNK         0.0600 
    161 H161       -6.3874  -16.8924  -44.8940 H         1 UNK         0.0600 
    162 H162       -6.5593  -16.1078  -46.4555 H         1 UNK         0.0600 
    163 H163       -6.8127  -15.1830  -44.9851 H         1 UNK         0.0600 
    164 H164       -3.8625  -14.2246  -44.0566 H         1 UNK         0.3000 
    165 H165       -4.4214  -14.7556  -41.1503 H         1 UNK         0.0600 
    166 H166       -2.1365  -16.7925  -41.3361 H         1 UNK         0.0600 
    167 H167       -2.4609  -15.7642  -39.9424 H         1 UNK         0.0600 
    168 H168       -3.6312  -16.9786  -40.4273 H         1 UNK         0.0600 
    169 H169       -1.7503  -14.5701  -42.4659 H         1 UNK         0.3000 
    170 H170       -2.1401  -11.1776  -43.2295 H         1 UNK         0.0600 
    171 H171       -1.4986  -10.8457  -40.8355 H         1 UNK         0.0600 
    172 H172       -0.3611  -12.1838  -40.9422 H         1 UNK         0.0600 
    173 H173       -0.1004  -10.7185  -41.8900 H         1 UNK         0.0600 
    174 H174        0.1671  -12.8536  -43.2593 H         1 UNK         0.3000 
    175 H175       -0.5531  -14.7630  -46.1363 H         1 UNK         0.0600 
    176 H176        1.3283  -12.3587  -45.9213 H         1 UNK         0.0600 
    177 H177        1.4722  -13.6910  -47.0675 H         1 UNK         0.0600 
    178 H178        0.1054  -12.5944  -47.1655 H         1 UNK         0.0600 
    179 H179        1.8784  -14.6196  -44.8495 H         1 UNK         0.3000 
    180 H180        2.1878  -15.6506  -42.3384 H         1 UNK         0.0600 
    181 H181        0.6887  -18.2859  -42.7398 H         1 UNK         0.0600 
    182 H182        0.5783  -17.2169  -41.3528 H         1 UNK         0.0600 
    183 H183        2.0793  -18.0687  -41.6745 H         1 UNK         0.0600 
    184 H184        3.6687  -16.3459  -43.8163 H         1 UNK         0.3000 
    185 H185        4.6335  -17.0902  -45.6172 H         1 UNK         0.0600 
    186 H186        5.4511  -19.4071  -46.0982 H         1 UNK         0.0600 
    187 H187        4.8003  -19.3355  -44.4701 H         1 UNK         0.0600 
    188 H188        3.8538  -20.0682  -45.7597 H         1 UNK         0.0600 
    189 H189        2.5081  -17.8250  -47.3743 H         1 UNK         0.3000 
    190 H190       -1.2034  -21.7975  -46.5125 H         1 UNK         0.3000 
    191 H191       -2.3730  -23.6830  -48.2017 H         1 UNK         0.0600 
    192 H192       -3.5995  -21.8689  -47.0030 H         1 UNK         0.0600 
    193 H193       -4.3545  -23.4324  -46.7428 H         1 UNK         0.0600 
    194 H194       -3.3735  -22.7136  -45.4727 H         1 UNK         0.0600 
    195 H195       -1.2113  -24.1285  -44.8353 H         1 UNK         0.3000 
    196 H196       -1.9647  -26.8817  -44.6105 H         1 UNK         0.0600 
    197 H197       -0.4492  -26.8328  -42.6244 H         1 UNK         0.0600 
    198 H198       -1.5307  -25.4474  -42.6404 H         1 UNK         0.0600 
    199 H199        0.1557  -25.2532  -43.1116 H         1 UNK         0.0600 
    200 H200        1.0719  -25.2775  -45.6515 H         1 UNK         0.3000 
    201 H201        2.5806  -27.7153  -45.7917 H         1 UNK         0.0600 
    202 H202        3.6326  -25.5488  -45.2761 H         1 UNK         0.0600 
    203 H203        3.1733  -24.9069  -46.8521 H         1 UNK         0.0600 
    204 H204        4.3414  -26.2184  -46.7373 H         1 UNK         0.0600 
    205 H205        1.0801  -25.6377  -48.3331 H         1 UNK         0.3000 
    206 H206        1.7892  -27.6632  -50.4205 H         1 UNK         0.0600 
    207 H207        3.5693  -25.9118  -50.2215 H         1 UNK         0.0600 
    208 H208        2.7206  -25.7822  -51.7513 H         1 UNK         0.0600 
    209 H209        2.3572  -24.6516  -50.4511 H         1 UNK         0.0600 
    210 H210       -0.8122  -26.3695  -49.0691 H         1 UNK         0.3000 
    211 H211       -2.9258  -26.0356  -49.6286 H         1 UNK         0.0600 
    212 H212       -2.3789  -26.8642  -52.5198 H         1 UNK         0.0600 
    213 H213       -3.9108  -26.8979  -51.6610 H         1 UNK         0.0600 
    214 H214       -2.6381  -28.0118  -51.2073 H         1 UNK         0.0600 
    215 H215       -4.2714  -24.8742  -51.6974 H         1 UNK         0.3000 
    216 H216       -4.9927  -22.9108  -52.3878 H         1 UNK         0.0600 
    217 H217       -2.9275  -22.8859  -53.8611 H         1 UNK         0.0600 
    218 H218       -2.1057  -21.9219  -52.6390 H         1 UNK         0.0600 
    219 H219       -3.5210  -21.2856  -53.4668 H         1 UNK         0.0600 
    220 H220       -3.8827  -20.2155  -51.8115 H         1 UNK         0.3000 
    221 H221       -3.5277  -19.6631  -49.1011 H         1 UNK         0.0600 
    222 H222       -6.4605  -19.5503  -50.0695 H         1 UNK         0.0600 
    223 H223       -5.8585  -20.4757  -48.6970 H         1 UNK         0.0600 
    224 H224       -5.8771  -18.7326  -48.6264 H         1 UNK         0.0600 
    225 H225       -3.8830  -17.2410  -48.7850 H         1 UNK         0.3000 
    226 H226       -3.1226  -15.6758  -51.0995 H         1 UNK         0.0600 
    227 H227       -3.3503  -13.7552  -49.5653 H         1 UNK         0.0600 
    228 H228       -4.2029  -14.7376  -48.3870 H         1 UNK         0.0600 
    229 H229       -2.5025  -15.0428  -48.7303 H         1 UNK         0.0600 
    230 H230       -6.1670  -16.4006  -49.4379 H         1 UNK         0.3000 
    231 H231       -7.8624  -14.5975  -50.8818 H         1 UNK         0.0600 
    232 H232       -9.6770  -15.9974  -49.8818 H         1 UNK         0.0600 
    233 H233       -8.4736  -15.5688  -48.6766 H         1 UNK         0.0600 
    234 H234       -8.4914  -17.1918  -49.3676 H         1 UNK         0.0600 
    235 H235       -6.5014  -17.7280  -51.6870 H         1 UNK         0.3000 
    236 H236       -8.4077  -18.2893  -53.8568 H         1 UNK         0.0600 
    237 H237       -7.4753  -20.1679  -52.5020 H         1 UNK         0.0600 
    238 H238       -7.0330  -20.3065  -54.1966 H         1 UNK         0.0600 
    239 H239       -5.8457  -19.7526  -53.0287 H         1 UNK         0.0600 
    240 H240       -4.9097  -17.4630  -53.4727 H         1 UNK         0.3000 
    241 H241       -4.5176  -17.1248  -56.3119 H         1 UNK         0.0600 
    242 H242       -5.4051  -13.3951  -54.9234 H         1 UNK         0.3800 
    243 H243       -5.4112  -14.7054  -53.7748 H         1 UNK         0.3800 
    244 H244       -2.7202  -16.5486  -53.9195 H         1 UNK         0.0800 
    245 H245       -2.2223  -16.2607  -55.5732 H         1 UNK         0.0800 
    246 H246       -0.1340  -19.3522  -55.3688 H         1 UNK         0.0800 
    247 H247       -0.2071  -17.6106  -55.3679 H         1 UNK         0.0800 
@<TRIPOS>BOND
     1    1    2 1    
     2    1  127 1    
     3    1  128 1    
     4    1  129 1    
     5    2    3 2    
     6    2    4 am   BACKBONE|DICT|INTERRES
     7    4    5 1    
     8    4  130 1    
     9    5    6 1    
    10    5   65 1    
    11    5  131 1    
    12    6    7 1    
    13    6  132 1    
    14    6  133 1    
    15    7    8 1    
    16    8    9 1    
    17    8  134 1    
    18    8  135 1    
    19    9   10 ar   
    20    9   14 ar   
    21   10   11 ar   
    22   10  136 1    
    23   11   12 ar   
    24   11  126 1    
    25   12   13 ar   
    26   12  137 1    
    27   13   14 ar   
    28   13   15 1    
    29   14  138 1    
    30   15   16 1    
    31   15  139 1    
    32   15  140 1    
    33   16   17 1    
    34   17   18 1    
    35   17  141 1    
    36   17  142 1    
    37   18   19 1    
    38   18   67 1    
    39   18  143 1    
    40   19   20 am   BACKBONE|DICT|INTERRES
    41   19  144 1    
    42   20   21 2    
    43   20   22 1    
    44   22   23 1    
    45   22   24 1    
    46   22  145 1    
    47   23  146 1    
    48   23  147 1    
    49   23  148 1    
    50   24   25 am   BACKBONE|DICT|INTERRES
    51   24  149 1    
    52   25   26 2    
    53   25   27 1    
    54   27   28 1    
    55   27   29 1    
    56   27  150 1    
    57   28  151 1    
    58   28  152 1    
    59   28  153 1    
    60   29   30 am   BACKBONE|DICT|INTERRES
    61   29  154 1    
    62   30   31 2    
    63   30   32 1    
    64   32   33 1    
    65   32   34 1    
    66   32  155 1    
    67   33  156 1    
    68   33  157 1    
    69   33  158 1    
    70   34   35 am   BACKBONE|DICT|INTERRES
    71   34  159 1    
    72   35   36 2    
    73   35   37 1    
    74   37   38 1    
    75   37   39 1    
    76   37  160 1    
    77   38  161 1    
    78   38  162 1    
    79   38  163 1    
    80   39   40 am   BACKBONE|DICT|INTERRES
    81   39  164 1    
    82   40   41 2    
    83   40   42 1    
    84   42   43 1    
    85   42   44 1    
    86   42  165 1    
    87   43  166 1    
    88   43  167 1    
    89   43  168 1    
    90   44   45 am   BACKBONE|DICT|INTERRES
    91   44  169 1    
    92   45   46 2    
    93   45   47 1    
    94   47   48 1    
    95   47   49 1    
    96   47  170 1    
    97   48  171 1    
    98   48  172 1    
    99   48  173 1    
   100   49   50 am   BACKBONE|DICT|INTERRES
   101   49  174 1    
   102   50   51 2    
   103   50   52 1    
   104   52   53 1    
   105   52   54 1    
   106   52  175 1    
   107   53  176 1    
   108   53  177 1    
   109   53  178 1    
   110   54   55 am   BACKBONE|DICT|INTERRES
   111   54  179 1    
   112   55   56 2    
   113   55   57 1    
   114   57   58 1    
   115   57   59 1    
   116   57  180 1    
   117   58  181 1    
   118   58  182 1    
   119   58  183 1    
   120   59   60 am   BACKBONE|DICT|INTERRES
   121   59  184 1    
   122   60   61 2    
   123   60   62 1    
   124   62   63 1    
   125   62   64 1    
   126   62  185 1    
   127   63  186 1    
   128   63  187 1    
   129   63  188 1    
   130   64   65 am   BACKBONE|DICT|INTERRES
   131   64  189 1    
   132   65   66 2    
   133   67   68 2    
   134   67   69 am   BACKBONE|DICT|INTERRES
   135   69   70 1    
   136   69  190 1    
   137   70   71 1    
   138   70   72 1    
   139   70  191 1    
   140   71  192 1    
   141   71  193 1    
   142   71  194 1    
   143   72   73 2    
   144   72   74 am   BACKBONE|DICT|INTERRES
   145   74   75 1    
   146   74  195 1    
   147   75   76 1    
   148   75   77 1    
   149   75  196 1    
   150   76  197 1    
   151   76  198 1    
   152   76  199 1    
   153   77   78 2    
   154   77   79 am   BACKBONE|DICT|INTERRES
   155   79   80 1    
   156   79  200 1    
   157   80   81 1    
   158   80   82 1    
   159   80  201 1    
   160   81  202 1    
   161   81  203 1    
   162   81  204 1    
   163   82   83 2    
   164   82   84 am   BACKBONE|DICT|INTERRES
   165   84   85 1    
   166   84  205 1    
   167   85   86 1    
   168   85   87 1    
   169   85  206 1    
   170   86  207 1    
   171   86  208 1    
   172   86  209 1    
   173   87   88 2    
   174   87   89 am   BACKBONE|DICT|INTERRES
   175   89   90 1    
   176   89  210 1    
   177   90   91 1    
   178   90   92 1    
   179   90  211 1    
   180   91  212 1    
   181   91  213 1    
   182   91  214 1    
   183   92   93 2    
   184   92   94 am   BACKBONE|DICT|INTERRES
   185   94   95 1    
   186   94  215 1    
   187   95   96 1    
   188   95   97 1    
   189   95  216 1    
   190   96  217 1    
   191   96  218 1    
   192   96  219 1    
   193   97   98 2    
   194   97   99 am   BACKBONE|DICT|INTERRES
   195   99  100 1    
   196   99  220 1    
   197  100  101 1    
   198  100  102 1    
   199  100  221 1    
   200  101  222 1    
   201  101  223 1    
   202  101  224 1    
   203  102  103 2    
   204  102  104 am   BACKBONE|DICT|INTERRES
   205  104  105 1    
   206  104  225 1    
   207  105  106 1    
   208  105  107 1    
   209  105  226 1    
   210  106  227 1    
   211  106  228 1    
   212  106  229 1    
   213  107  108 2    
   214  107  109 am   BACKBONE|DICT|INTERRES
   215  109  110 1    
   216  109  230 1    
   217  110  111 1    
   218  110  112 1    
   219  110  231 1    
   220  111  232 1    
   221  111  233 1    
   222  111  234 1    
   223  112  113 2    
   224  112  114 am   BACKBONE|DICT|INTERRES
   225  114  115 1    
   226  114  235 1    
   227  115  116 1    
   228  115  117 1    
   229  115  236 1    
   230  116  237 1    
   231  116  238 1    
   232  116  239 1    
   233  117  118 2    
   234  117  119 am   BACKBONE|DICT|INTERRES
   235  119  120 1    
   236  119  240 1    
   237  120  121 1    
   238  120  124 1    
   239  120  241 1    
   240  121  122 am   BACKBONE|DICT|INTERRES
   241  121  123 2    
   242  122  242 1    
   243  122  243 1    
   244  124  125 1    
   245  124  244 1    
   246  124  245 1    
   247  125  126 1    
   248  126  246 1    
   249  126  247 1    
@<TRIPOS>SUBSTRUCTURE
     1 UNK         1 GROUP             0       ****    0 ROOT    
