@<TRIPOS>MOLECULE
3R540
247   249    1
SMALL
USER_CHARGES


@<TRIPOS>ATOM
      1 CA          1.1079  -11.8595  -47.5667 C.3       0 UNK        -0.1800 
      2 C           2.5423  -12.3608  -47.4861 C.2       0 UNK         0.5000 
      3 O           3.4661  -11.5538  -47.3886 O.2       0 UNK        -0.5000 
      4 N           2.7308  -13.6871  -47.5169 N.am      1 UNK        -0.5000 
      5 CA          4.0338  -14.3669  -47.5666 C.3       1 UNK         0.1400 
      6 C6          3.8628  -15.8878  -47.8064 C.3       23 UNK        -0.0398 
      7 S7          5.3339  -16.6489  -48.5760 S.3       23 UNK        -0.2404 
      8 C8          4.7695  -16.9417  -50.2854 C.3       23 UNK        -0.0205 
      9 C9          3.6625  -17.9844  -50.3530 C.ar      23 UNK        -0.0193 
     10 C10         2.3858  -17.6351  -50.8052 C.ar      23 UNK        -0.1150 
     11 C11         1.3596  -18.5839  -50.8331 C.ar      23 UNK        -0.0193 
     12 C12         1.6189  -19.8882  -50.4008 C.ar      23 UNK        -0.1150 
     13 C13         2.8931  -20.2517  -49.9554 C.ar      23 UNK        -0.0193 
     14 C14         3.9134  -19.2983  -49.9475 C.ar      23 UNK        -0.1150 
     15 C15         3.1670  -21.6704  -49.4761 C.3       23 UNK        -0.0205 
     16 S16         3.4923  -21.7633  -47.6806 S.3       23 UNK        -0.2404 
     17 C17         1.9615  -21.0824  -46.9506 C.3       23 UNK        -0.0398 
     18 CA          0.9289  -22.1562  -46.5296 C.3       11 UNK         0.1400 
     19 N          -0.1099  -21.5911  -45.6628 N.am      11 UNK        -0.5000 
     20 C          -1.0822  -22.2943  -45.0636 C.2       10 UNK         0.5000 
     21 O          -1.1750  -23.5206  -45.1181 O.2       10 UNK        -0.5000 
     22 CA         -2.1608  -21.4897  -44.3170 C.3       10 UNK         0.1400 
     23 CB         -1.6601  -21.0650  -42.9288 C.3       10 UNK        -0.1800 
     24 N          -2.6065  -20.3139  -45.0670 N.am      10 UNK        -0.5000 
     25 C          -3.2499  -20.3638  -46.2427 C.2       9 UNK         0.5000 
     26 O          -3.5818  -21.4114  -46.7953 O.2       9 UNK        -0.5000 
     27 CA         -3.5338  -19.0250  -46.9470 C.3       9 UNK         0.1400 
     28 CB         -4.7928  -18.3594  -46.3730 C.3       9 UNK        -0.1800 
     29 N          -2.4063  -18.0958  -46.8849 N.am      9 UNK        -0.5000 
     30 C          -1.1994  -18.3313  -47.4191 C.2       8 UNK         0.5000 
     31 O          -0.9122  -19.3585  -48.0320 O.2       8 UNK        -0.5000 
     32 CA         -0.1132  -17.2689  -47.1717 C.3       8 UNK         0.1400 
     33 CB         -0.3159  -16.0416  -48.0730 C.3       8 UNK        -0.1800 
     34 N          -0.0719  -16.8475  -45.7714 N.am      8 UNK        -0.5000 
     35 C           0.2350  -17.6584  -44.7482 C.2       7 UNK         0.5000 
     36 O           0.5798  -18.8325  -44.8811 O.2       7 UNK        -0.5000 
     37 CA          0.0771  -17.0693  -43.3373 C.3       7 UNK         0.1400 
     38 CB          1.3015  -16.2248  -42.9592 C.3       7 UNK        -0.1800 
     39 N          -1.1360  -16.2607  -43.2166 N.am      7 UNK        -0.5000 
     40 C          -2.3796  -16.7628  -43.2427 C.2       6 UNK         0.5000 
     41 O          -2.6301  -17.9628  -43.3419 O.2       6 UNK        -0.5000 
     42 CA         -3.5386  -15.7509  -43.1965 C.3       6 UNK         0.1400 
     43 CB         -3.8769  -15.3829  -41.7444 C.3       6 UNK        -0.1800 
     44 N          -3.2537  -14.5306  -43.9516 N.am      6 UNK        -0.5000 
     45 C          -3.0533  -14.4817  -45.2765 C.2       5 UNK         0.5000 
     46 O          -3.1275  -15.4632  -46.0140 O.2       5 UNK        -0.5000 
     47 CA         -2.6570  -13.1174  -45.8681 C.3       5 UNK         0.1400 
     48 CB         -3.9000  -12.3590  -46.3550 C.3       5 UNK        -0.1800 
     49 N          -1.9174  -12.2808  -44.9191 N.am      5 UNK        -0.5000 
     50 C          -0.6797  -12.5467  -44.4851 C.2       4 UNK         0.5000 
     51 O          -0.0157  -13.5221  -44.8498 O.2       4 UNK        -0.5000 
     52 CA         -0.0925  -11.5773  -43.4556 C.3       4 UNK         0.1400 
     53 CB         -0.1247  -12.1928  -42.0468 C.3       4 UNK        -0.1800 
     54 N           1.2819  -11.2933  -43.8405 N.am      4 UNK        -0.5000 
     55 C           1.9328  -10.1422  -43.6348 C.2       3 UNK         0.5000 
     56 O           1.4381   -9.1793  -43.0460 O.2       3 UNK        -0.5000 
     57 CA          3.3655  -10.0453  -44.2059 C.3       3 UNK         0.1400 
     58 CB          4.2653   -9.0703  -43.4173 C.3       3 UNK        -0.1800 
     59 N           4.0143  -11.3517  -44.3786 N.am      3 UNK        -0.5000 
     60 C           4.3658  -12.2226  -43.4183 C.2       2 UNK         0.5000 
     61 O           4.2350  -12.0021  -42.2137 O.2       2 UNK        -0.5000 
     62 CA          4.9185  -13.5812  -43.8935 C.3       2 UNK         0.1400 
     63 CB          4.7020  -14.6958  -42.8545 C.3       2 UNK        -0.1800 
     64 N           4.2888  -13.9747  -45.1570 N.am      2 UNK        -0.5000 
     65 C           4.9204  -14.0781  -46.3334 C.2       1 UNK         0.5000 
     66 O           6.1323  -13.9124  -46.4777 O.2       1 UNK        -0.5000 
     67 C           0.3111  -22.8628  -47.7527 C.2       11 UNK         0.5000 
     68 O           0.6613  -24.0069  -48.0403 O.2       11 UNK        -0.5000 
     69 N          -0.6253  -22.1819  -48.4249 N.am      12 UNK        -0.5000 
     70 CA         -1.3711  -22.7015  -49.5664 C.3       12 UNK         0.1400 
     71 CB         -2.2265  -21.5791  -50.1553 C.3       12 UNK        -0.1800 
     72 C          -2.2252  -23.9300  -49.2174 C.2       12 UNK         0.5000 
     73 O          -2.1935  -24.9089  -49.9600 O.2       12 UNK        -0.5000 
     74 N          -2.9293  -23.8845  -48.0785 N.am      13 UNK        -0.5000 
     75 CA         -3.7119  -25.0022  -47.5498 C.3       13 UNK         0.1400 
     76 CB         -4.5080  -24.5421  -46.3200 C.3       13 UNK        -0.1800 
     77 C          -2.8444  -26.2319  -47.2196 C.2       13 UNK         0.5000 
     78 O          -3.2265  -27.3497  -47.5665 O.2       13 UNK        -0.5000 
     79 N          -1.6708  -26.0058  -46.6103 N.am      14 UNK        -0.5000 
     80 CA         -0.6674  -27.0372  -46.3284 C.3       14 UNK         0.1400 
     81 CB          0.4279  -26.4553  -45.4222 C.3       14 UNK        -0.1800 
     82 C          -0.0559  -27.6492  -47.6051 C.2       14 UNK         0.5000 
     83 O           0.2187  -28.8492  -47.6331 O.2       14 UNK        -0.5000 
     84 N           0.1050  -26.8260  -48.6495 N.am      15 UNK        -0.5000 
     85 CA          0.5427  -27.2244  -49.9898 C.3       15 UNK         0.1400 
     86 CB          1.1056  -25.9885  -50.7120 C.3       15 UNK        -0.1800 
     87 C          -0.5651  -27.8967  -50.8330 C.2       15 UNK         0.5000 
     88 O          -0.2833  -28.3239  -51.9534 O.2       15 UNK        -0.5000 
     89 N          -1.7915  -27.9762  -50.2943 N.am      16 UNK        -0.5000 
     90 CA         -3.0080  -28.5339  -50.8944 C.3       16 UNK         0.1400 
     91 CB         -2.8414  -30.0343  -51.2155 C.3       16 UNK        -0.1800 
     92 C          -3.5512  -27.7128  -52.0841 C.2       16 UNK         0.5000 
     93 O          -4.2488  -28.2603  -52.9406 O.2       16 UNK        -0.5000 
     94 N          -3.2588  -26.4071  -52.0987 N.am      17 UNK        -0.5000 
     95 CA         -3.8895  -25.4163  -52.9668 C.3       17 UNK         0.1400 
     96 CB         -2.8702  -24.3053  -53.2709 C.3       17 UNK        -0.1800 
     97 C          -5.1499  -24.8506  -52.2828 C.2       17 UNK         0.5000 
     98 O          -5.3916  -25.1138  -51.1012 O.2       17 UNK        -0.5000 
     99 N          -5.9338  -24.0628  -53.0290 N.am      18 UNK        -0.5000 
    100 CA        -7.2206  -23.4849  -52.6184 C.3       18 UNK         0.1400 
    101 CB        -8.0168  -23.1198  -53.8849 C.3       18 UNK        -0.1800 
    102 C         -7.1142  -22.3089  -51.6151 C.2       18 UNK         0.5000 
    103 O         -7.8289  -21.3141  -51.7548 O.2       18 UNK        -0.5000 
    104 N         -6.2384  -22.4553  -50.6113 N.am      19 UNK        -0.5000 
    105 CA        -6.0076  -21.5715  -49.4662 C.3       19 UNK         0.1400 
    106 CB        -7.0950  -21.8169  -48.3984 C.3       19 UNK        -0.1800 
    107 C         -5.8446  -20.0891  -49.8680 C.2       19 UNK         0.5000 
    108 O         -4.8890  -19.7528  -50.5668 O.2       19 UNK        -0.5000 
    109 N         -6.7855  -19.2348  -49.4448 N.am      20 UNK        -0.5000 
    110 CA        -6.8058  -17.7858  -49.6615 C.3       20 UNK         0.1400 
    111 CB        -7.9573  -17.1872  -48.8384 C.3       20 UNK        -0.1800 
    112 C         -6.8872  -17.3290  -51.1350 C.2       20 UNK         0.5000 
    113 O         -6.7039  -16.1395  -51.3959 O.2       20 UNK        -0.5000 
    114 N         -7.1383  -18.2528  -52.0756 N.am      21 UNK        -0.5000 
    115 CA        -7.0421  -18.0037  -53.5174 C.3       21 UNK         0.1400 
    116 CB        -7.6578  -19.1873  -54.2766 C.3       21 UNK        -0.1800 
    117 C         -5.5926  -17.7612  -53.9929 C.2       21 UNK         0.5000 
    118 O         -5.3953  -17.1189  -55.0250 O.2       21 UNK        -0.5000 
    119 N         -4.6116  -18.2756  -53.2394 N.am      22 UNK        -0.5000 
    120 CA        -3.1764  -18.0319  -53.4235 C.3       22 UNK         0.1400 
    121 C         -2.8076  -16.5586  -53.0882 C.2       22 UNK         0.5000 
    122 N         -2.1505  -15.8493  -53.9959 N.am      22 UNK        -0.7600 
    123 O         -3.0828  -16.0668  -51.9966 O.2       22 UNK        -0.5000 
    124 C124       -2.3773  -19.0401  -52.5657 C.3       23 UNK        -0.0398 
    125 S125       -0.5646  -19.0216  -52.8057 S.3       23 UNK        -0.2404 
    126 C126       -0.0438  -18.1910  -51.2695 C.3       23 UNK        -0.0205 
    127 H127        0.9045  -11.1611  -46.7557 H         1 UNK         0.0600 
    128 H128        0.3883  -12.6757  -47.5042 H         1 UNK         0.0600 
    129 H129        0.9486  -11.3379  -48.5102 H         1 UNK         0.0600 
    130 H130        1.9219  -14.2869  -47.5708 H         1 UNK         0.3000 
    131 H131        4.5512  -13.9464  -48.4321 H         1 UNK         0.0600 
    132 H132        3.6352  -16.4145  -46.8776 H         1 UNK         0.0800 
    133 H133        3.0061  -16.0674  -48.4558 H         1 UNK         0.0800 
    134 H134        5.6153  -17.2852  -50.8825 H         1 UNK         0.0800 
    135 H135        4.4469  -15.9962  -50.7243 H         1 UNK         0.0800 
    136 H136        2.1861  -16.6202  -51.1192 H         1 UNK         0.1150 
    137 H137        0.8212  -20.6168  -50.4033 H         1 UNK         0.1150 
    138 H138        4.8984  -19.5719  -49.5956 H         1 UNK         0.1150 
    139 H139        2.3403  -22.3331  -49.7340 H         1 UNK         0.0800 
    140 H140        4.0369  -22.0594  -50.0068 H         1 UNK         0.0800 
    141 H141        1.5156  -20.3414  -47.6130 H         1 UNK         0.0800 
    142 H142        2.2744  -20.5243  -46.0676 H         1 UNK         0.0800 
    143 H143        1.4494  -22.9151  -45.9416 H         1 UNK         0.0600 
    144 H144       -0.0868  -20.5842  -45.5323 H         1 UNK         0.3000 
    145 H145       -3.0245  -22.1432  -44.1788 H         1 UNK         0.0600 
    146 H146       -1.3252  -21.9284  -42.3526 H         1 UNK         0.0600 
    147 H147       -0.8231  -20.3696  -42.9969 H         1 UNK         0.0600 
    148 H148       -2.4514  -20.5803  -42.3569 H         1 UNK         0.0600 
    149 H149       -2.4218  -19.4092  -44.6440 H         1 UNK         0.3000 
    150 H150       -3.7149  -19.2385  -48.0013 H         1 UNK         0.0600 
    151 H151       -5.6577  -19.0179  -46.4615 H         1 UNK         0.0600 
    152 H152       -5.0296  -17.4378  -46.9047 H         1 UNK         0.0600 
    153 H153       -4.6718  -18.1134  -45.3179 H         1 UNK         0.0600 
    154 H154       -2.5768  -17.2025  -46.4294 H         1 UNK         0.3000 
    155 H155        0.8529  -17.7155  -47.4180 H         1 UNK         0.0600 
    156 H156       -1.2813  -15.5653  -47.9043 H         1 UNK         0.0600 
    157 H157        0.4567  -15.2948  -47.9036 H         1 UNK         0.0600 
    158 H158       -0.2721  -16.3185  -49.1251 H         1 UNK         0.0600 
    159 H159       -0.3592  -15.9004  -45.5658 H         1 UNK         0.3000 
    160 H160        0.0062  -17.9004  -42.6324 H         1 UNK         0.0600 
    161 H161        1.4339  -15.3770  -43.6312 H         1 UNK         0.0600 
    162 H162        2.2124  -16.8231  -43.0037 H         1 UNK         0.0600 
    163 H163        1.2162  -15.8378  -41.9437 H         1 UNK         0.0600 
    164 H164       -1.0147  -15.2597  -43.1766 H         1 UNK         0.3000 
    165 H165       -4.4142  -16.2267  -43.6429 H         1 UNK         0.0600 
    166 H166       -4.7468  -14.7276  -41.6961 H         1 UNK         0.0600 
    167 H167       -4.1106  -16.2745  -41.1607 H         1 UNK         0.0600 
    168 H168       -3.0462  -14.8761  -41.2517 H         1 UNK         0.0600 
    169 H169       -3.1819  -13.6738  -43.4238 H         1 UNK         0.3000 
    170 H170       -2.0138  -13.3073  -46.7299 H         1 UNK         0.0600 
    171 H171       -4.4589  -12.9515  -47.0808 H         1 UNK         0.0600 
    172 H172       -4.5769  -12.1227  -45.5330 H         1 UNK         0.0600 
    173 H173       -3.6250  -11.4242  -46.8440 H         1 UNK         0.0600 
    174 H174       -2.3944  -11.4580  -44.5788 H         1 UNK         0.3000 
    175 H175       -0.6773  -10.6549  -43.4624 H         1 UNK         0.0600 
    176 H176        0.4592  -13.1131  -41.9964 H         1 UNK         0.0600 
    177 H177        0.2803  -11.5019  -41.3072 H         1 UNK         0.0600 
    178 H178       -1.1452  -12.4312  -41.7449 H         1 UNK         0.0600 
    179 H179        1.7372  -12.0340  -44.3537 H         1 UNK         0.3000 
    180 H180        3.2528   -9.6374  -45.2114 H         1 UNK         0.0600 
    181 H181        4.3552   -9.3556  -42.3690 H         1 UNK         0.0600 
    182 H182        3.8610   -8.0578  -43.4440 H         1 UNK         0.0600 
    183 H183        5.2682   -9.0280  -43.8419 H         1 UNK         0.0600 
    184 H184        4.1562  -11.6268  -45.3441 H         1 UNK         0.3000 
    185 H185        5.9945  -13.4508  -44.0230 H         1 UNK         0.0600 
    186 H186        5.2765  -14.5007  -41.9483 H         1 UNK         0.0600 
    187 H187        3.6551  -14.7752  -42.5645 H         1 UNK         0.0600 
    188 H188        5.0220  -15.6646  -43.2383 H         1 UNK         0.0600 
    189 H189        3.2875  -14.1048  -45.1386 H         1 UNK         0.3000 
    190 H190       -0.8349  -21.2264  -48.1437 H         1 UNK         0.3000 
    191 H191       -0.6488  -23.0083  -50.3253 H         1 UNK         0.0600 
    192 H192       -2.8587  -21.1197  -49.3979 H         1 UNK         0.0600 
    193 H193       -2.8727  -21.9339  -50.9583 H         1 UNK         0.0600 
    194 H194       -1.5890  -20.7985  -50.5624 H         1 UNK         0.0600 
    195 H195       -2.9410  -23.0235  -47.5374 H         1 UNK         0.3000 
    196 H196       -4.4247  -25.2983  -48.3227 H         1 UNK         0.0600 
    197 H197       -5.1160  -25.3550  -45.9215 H         1 UNK         0.0600 
    198 H198       -5.1827  -23.7239  -46.5715 H         1 UNK         0.0600 
    199 H199       -3.8511  -24.1989  -45.5204 H         1 UNK         0.0600 
    200 H200       -1.4431  -25.0592  -46.3190 H         1 UNK         0.3000 
    201 H201       -1.1635  -27.8427  -45.7832 H         1 UNK         0.0600 
    202 H202        0.0098  -26.0914  -44.4835 H         1 UNK         0.0600 
    203 H203        0.9479  -25.6245  -45.8995 H         1 UNK         0.0600 
    204 H204        1.1738  -27.2117  -45.1752 H         1 UNK         0.0600 
    205 H205       -0.0809  -25.8371  -48.5152 H         1 UNK         0.3000 
    206 H206        1.3516  -27.9502  -49.8859 H         1 UNK         0.0600 
    207 H207        1.9103  -25.5278  -50.1386 H         1 UNK         0.0600 
    208 H208        1.5144  -26.2550  -51.6873 H         1 UNK         0.0600 
    209 H209        0.3368  -25.2336  -50.8751 H         1 UNK         0.0600 
    210 H210       -1.9222  -27.5650  -49.3785 H         1 UNK         0.3000 
    211 H211       -3.7720  -28.4565  -50.1198 H         1 UNK         0.0600 
    212 H212       -2.1582  -30.1992  -52.0488 H         1 UNK         0.0600 
    213 H213       -3.7973  -30.4839  -51.4863 H         1 UNK         0.0600 
    214 H214       -2.4602  -30.5820  -50.3536 H         1 UNK         0.0600 
    215 H215       -2.7504  -26.0212  -51.3051 H         1 UNK         0.3000 
    216 H216       -4.1886  -25.8812  -53.9083 H         1 UNK         0.0600 
    217 H217       -3.2842  -23.5594  -53.9499 H         1 UNK         0.0600 
    218 H218       -1.9779  -24.7136  -53.7458 H         1 UNK         0.0600 
    219 H219       -2.5544  -23.7864  -52.3675 H         1 UNK         0.0600 
    220 H220       -5.6495  -23.8628  -53.9770 H         1 UNK         0.3000 
    221 H221       -7.7841  -24.2641  -52.1012 H         1 UNK         0.0600 
    222 H222       -7.4954  -22.3769  -54.4880 H         1 UNK         0.0600 
    223 H223       -8.1833  -23.9976  -54.5095 H         1 UNK         0.0600 
    224 H224       -8.9988  -22.7152  -53.6362 H         1 UNK         0.0600 
    225 H225       -5.7238  -23.3316  -50.5999 H         1 UNK         0.3000 
    226 H226       -5.0556  -21.8772  -49.0332 H         1 UNK         0.0600 
    227 H227       -7.1002  -22.8616  -48.0872 H         1 UNK         0.0600 
    228 H228       -6.9119  -21.2215  -47.5028 H         1 UNK         0.0600 
    229 H229       -8.0942  -21.5812  -48.7668 H         1 UNK         0.0600 
    230 H230       -7.5614  -19.6126  -48.9212 H         1 UNK         0.3000 
    231 H231       -5.8675  -17.3887  -49.2693 H         1 UNK         0.0600 
    232 H232       -7.9846  -16.1007  -48.9314 H         1 UNK         0.0600 
    233 H233       -7.8456  -17.4159  -47.7783 H         1 UNK         0.0600 
    234 H234       -8.9247  -17.5693  -49.1664 H         1 UNK         0.0600 
    235 H235       -7.3026  -19.2122  -51.7905 H         1 UNK         0.3000 
    236 H236       -7.6237  -17.1089  -53.7487 H         1 UNK         0.0600 
    237 H237       -8.6806  -19.3808  -53.9527 H         1 UNK         0.0600 
    238 H238       -7.6853  -18.9919  -55.3492 H         1 UNK         0.0600 
    239 H239       -7.0779  -20.0972  -54.1242 H         1 UNK         0.0600 
    240 H240       -4.8659  -18.7611  -52.3856 H         1 UNK         0.3000 
    241 H241       -2.9423  -18.2233  -54.4725 H         1 UNK         0.0600 
    242 H242       -1.9087  -16.2373  -54.8946 H         1 UNK         0.3800 
    243 H243       -1.8974  -14.8970  -53.7842 H         1 UNK         0.3800 
    244 H244       -2.6158  -18.8916  -51.5122 H         1 UNK         0.0800 
    245 H245       -2.7126  -20.0518  -52.7988 H         1 UNK         0.0800 
    246 H246       -0.1216  -17.1126  -51.4152 H         1 UNK         0.0800 
    247 H247       -0.7260  -18.4394  -50.4584 H         1 UNK         0.0800 
@<TRIPOS>BOND
     1    1    2 1    
     2    1  127 1    
     3    1  128 1    
     4    1  129 1    
     5    2    3 2    
     6    2    4 am   BACKBONE|DICT|INTERRES
     7    4    5 1    
     8    4  130 1    
     9    5    6 1    
    10    5   65 1    
    11    5  131 1    
    12    6    7 1    
    13    6  132 1    
    14    6  133 1    
    15    7    8 1    
    16    8    9 1    
    17    8  134 1    
    18    8  135 1    
    19    9   10 ar   
    20    9   14 ar   
    21   10   11 ar   
    22   10  136 1    
    23   11   12 ar   
    24   11  126 1    
    25   12   13 ar   
    26   12  137 1    
    27   13   14 ar   
    28   13   15 1    
    29   14  138 1    
    30   15   16 1    
    31   15  139 1    
    32   15  140 1    
    33   16   17 1    
    34   17   18 1    
    35   17  141 1    
    36   17  142 1    
    37   18   19 1    
    38   18   67 1    
    39   18  143 1    
    40   19   20 am   BACKBONE|DICT|INTERRES
    41   19  144 1    
    42   20   21 2    
    43   20   22 1    
    44   22   23 1    
    45   22   24 1    
    46   22  145 1    
    47   23  146 1    
    48   23  147 1    
    49   23  148 1    
    50   24   25 am   BACKBONE|DICT|INTERRES
    51   24  149 1    
    52   25   26 2    
    53   25   27 1    
    54   27   28 1    
    55   27   29 1    
    56   27  150 1    
    57   28  151 1    
    58   28  152 1    
    59   28  153 1    
    60   29   30 am   BACKBONE|DICT|INTERRES
    61   29  154 1    
    62   30   31 2    
    63   30   32 1    
    64   32   33 1    
    65   32   34 1    
    66   32  155 1    
    67   33  156 1    
    68   33  157 1    
    69   33  158 1    
    70   34   35 am   BACKBONE|DICT|INTERRES
    71   34  159 1    
    72   35   36 2    
    73   35   37 1    
    74   37   38 1    
    75   37   39 1    
    76   37  160 1    
    77   38  161 1    
    78   38  162 1    
    79   38  163 1    
    80   39   40 am   BACKBONE|DICT|INTERRES
    81   39  164 1    
    82   40   41 2    
    83   40   42 1    
    84   42   43 1    
    85   42   44 1    
    86   42  165 1    
    87   43  166 1    
    88   43  167 1    
    89   43  168 1    
    90   44   45 am   BACKBONE|DICT|INTERRES
    91   44  169 1    
    92   45   46 2    
    93   45   47 1    
    94   47   48 1    
    95   47   49 1    
    96   47  170 1    
    97   48  171 1    
    98   48  172 1    
    99   48  173 1    
   100   49   50 am   BACKBONE|DICT|INTERRES
   101   49  174 1    
   102   50   51 2    
   103   50   52 1    
   104   52   53 1    
   105   52   54 1    
   106   52  175 1    
   107   53  176 1    
   108   53  177 1    
   109   53  178 1    
   110   54   55 am   BACKBONE|DICT|INTERRES
   111   54  179 1    
   112   55   56 2    
   113   55   57 1    
   114   57   58 1    
   115   57   59 1    
   116   57  180 1    
   117   58  181 1    
   118   58  182 1    
   119   58  183 1    
   120   59   60 am   BACKBONE|DICT|INTERRES
   121   59  184 1    
   122   60   61 2    
   123   60   62 1    
   124   62   63 1    
   125   62   64 1    
   126   62  185 1    
   127   63  186 1    
   128   63  187 1    
   129   63  188 1    
   130   64   65 am   BACKBONE|DICT|INTERRES
   131   64  189 1    
   132   65   66 2    
   133   67   68 2    
   134   67   69 am   BACKBONE|DICT|INTERRES
   135   69   70 1    
   136   69  190 1    
   137   70   71 1    
   138   70   72 1    
   139   70  191 1    
   140   71  192 1    
   141   71  193 1    
   142   71  194 1    
   143   72   73 2    
   144   72   74 am   BACKBONE|DICT|INTERRES
   145   74   75 1    
   146   74  195 1    
   147   75   76 1    
   148   75   77 1    
   149   75  196 1    
   150   76  197 1    
   151   76  198 1    
   152   76  199 1    
   153   77   78 2    
   154   77   79 am   BACKBONE|DICT|INTERRES
   155   79   80 1    
   156   79  200 1    
   157   80   81 1    
   158   80   82 1    
   159   80  201 1    
   160   81  202 1    
   161   81  203 1    
   162   81  204 1    
   163   82   83 2    
   164   82   84 am   BACKBONE|DICT|INTERRES
   165   84   85 1    
   166   84  205 1    
   167   85   86 1    
   168   85   87 1    
   169   85  206 1    
   170   86  207 1    
   171   86  208 1    
   172   86  209 1    
   173   87   88 2    
   174   87   89 am   BACKBONE|DICT|INTERRES
   175   89   90 1    
   176   89  210 1    
   177   90   91 1    
   178   90   92 1    
   179   90  211 1    
   180   91  212 1    
   181   91  213 1    
   182   91  214 1    
   183   92   93 2    
   184   92   94 am   BACKBONE|DICT|INTERRES
   185   94   95 1    
   186   94  215 1    
   187   95   96 1    
   188   95   97 1    
   189   95  216 1    
   190   96  217 1    
   191   96  218 1    
   192   96  219 1    
   193   97   98 2    
   194   97   99 am   BACKBONE|DICT|INTERRES
   195   99  100 1    
   196   99  220 1    
   197  100  101 1    
   198  100  102 1    
   199  100  221 1    
   200  101  222 1    
   201  101  223 1    
   202  101  224 1    
   203  102  103 2    
   204  102  104 am   BACKBONE|DICT|INTERRES
   205  104  105 1    
   206  104  225 1    
   207  105  106 1    
   208  105  107 1    
   209  105  226 1    
   210  106  227 1    
   211  106  228 1    
   212  106  229 1    
   213  107  108 2    
   214  107  109 am   BACKBONE|DICT|INTERRES
   215  109  110 1    
   216  109  230 1    
   217  110  111 1    
   218  110  112 1    
   219  110  231 1    
   220  111  232 1    
   221  111  233 1    
   222  111  234 1    
   223  112  113 2    
   224  112  114 am   BACKBONE|DICT|INTERRES
   225  114  115 1    
   226  114  235 1    
   227  115  116 1    
   228  115  117 1    
   229  115  236 1    
   230  116  237 1    
   231  116  238 1    
   232  116  239 1    
   233  117  118 2    
   234  117  119 am   BACKBONE|DICT|INTERRES
   235  119  120 1    
   236  119  240 1    
   237  120  121 1    
   238  120  124 1    
   239  120  241 1    
   240  121  122 am   BACKBONE|DICT|INTERRES
   241  121  123 2    
   242  122  242 1    
   243  122  243 1    
   244  124  125 1    
   245  124  244 1    
   246  124  245 1    
   247  125  126 1    
   248  126  246 1    
   249  126  247 1    
@<TRIPOS>SUBSTRUCTURE
     1 UNK         1 GROUP             0       ****    0 ROOT    
