@<TRIPOS>MOLECULE
3R540
247   249    1
SMALL
USER_CHARGES


@<TRIPOS>ATOM
      1 CA          1.6089   -8.7587  -50.4858 C.3       0 UNK        -0.1800 
      2 C           1.8145  -10.2156  -50.0948 C.2       0 UNK         0.5000 
      3 O           1.7176  -11.0979  -50.9480 O.2       0 UNK        -0.5000 
      4 N           2.0895  -10.4690  -48.8098 N.am      1 UNK        -0.5000 
      5 CA          2.3565  -11.7961  -48.2490 C.3       1 UNK         0.1400 
      6 C6          2.3871  -11.7713  -46.7018 C.3       23 UNK        -0.0398 
      7 S7          0.7550  -11.3941  -45.9846 S.3       23 UNK        -0.2404 
      8 C8          0.2304  -13.0384  -45.4070 C.3       23 UNK        -0.0205 
      9 C9          0.0046  -14.0071  -46.5589 C.ar      23 UNK        -0.0193 
     10 C10        -1.1459  -13.8963  -47.3431 C.ar      23 UNK        -0.1150 
     11 C11        -1.3842  -14.7843  -48.3959 C.ar      23 UNK        -0.0193 
     12 C12        -0.4352  -15.7724  -48.6786 C.ar      23 UNK        -0.1150 
     13 C13         0.7162  -15.9012  -47.8984 C.ar      23 UNK        -0.0193 
     14 C14         0.9300  -15.0182  -46.8358 C.ar      23 UNK        -0.1150 
     15 C15         1.7260  -16.9949  -48.2091 C.3       23 UNK        -0.0205 
     16 S16         1.4633  -18.4744  -47.1890 S.3       23 UNK        -0.2404 
     17 C17        -0.0657  -19.1553  -47.9177 C.3       23 UNK        -0.0398 
     18 CA         -0.3033  -20.6180  -47.4782 C.3       11 UNK         0.1400 
     19 N          -0.4898  -20.7408  -46.0296 N.am      11 UNK        -0.5000 
     20 C          -0.5352  -21.9026  -45.3639 C.2       10 UNK         0.5000 
     21 O          -0.4012  -23.0045  -45.8949 O.2       10 UNK        -0.5000 
     22 CA         -0.8188  -21.8218  -43.8570 C.3       10 UNK         0.1400 
     23 CB          0.4690  -21.5183  -43.0834 C.3       10 UNK        -0.1800 
     24 N          -1.8314  -20.8125  -43.5509 N.am      10 UNK        -0.5000 
     25 C          -3.1344  -20.9547  -43.8300 C.2       9 UNK         0.5000 
     26 O          -3.6151  -21.9575  -44.3572 O.2       9 UNK        -0.5000 
     27 CA         -4.0477  -19.7598  -43.5045 C.3       9 UNK         0.1400 
     28 CB         -4.3863  -19.7238  -42.0067 C.3       9 UNK        -0.1800 
     29 N          -3.4695  -18.4770  -43.9035 N.am      9 UNK        -0.5000 
     30 C          -3.1900  -18.1324  -45.1679 C.2       8 UNK         0.5000 
     31 O          -3.3908  -18.8608  -46.1376 O.2       8 UNK        -0.5000 
     32 CA         -2.5518  -16.7514  -45.3851 C.3       8 UNK         0.1400 
     33 CB         -3.6492  -15.6800  -45.4805 C.3       8 UNK        -0.1800 
     34 N          -1.5797  -16.3539  -44.3621 N.am      8 UNK        -0.5000 
     35 C          -0.5067  -17.0572  -43.9712 C.2       7 UNK         0.5000 
     36 O          -0.2805  -18.2178  -44.3230 O.2       7 UNK        -0.5000 
     37 CA          0.4671  -16.2990  -43.0475 C.3       7 UNK         0.1400 
     38 CB         -0.1773  -15.9310  -41.6947 C.3       7 UNK        -0.1800 
     39 N           1.7528  -16.9764  -42.8705 N.am      7 UNK        -0.5000 
     40 C           2.0225  -18.0857  -42.1675 C.2       6 UNK         0.5000 
     41 O           1.2065  -18.6976  -41.4777 O.2       6 UNK        -0.5000 
     42 CA          3.4834  -18.5641  -42.2155 C.3       6 UNK         0.1400 
     43 CB          3.7915  -19.2752  -43.5443 C.3       6 UNK        -0.1800 
     44 N           4.4008  -17.4375  -42.0419 N.am      6 UNK        -0.5000 
     45 C           4.7626  -16.9340  -40.8531 C.2       5 UNK         0.5000 
     46 O           4.4262  -17.4219  -39.7735 O.2       5 UNK        -0.5000 
     47 CA          5.6526  -15.6747  -40.8636 C.3       5 UNK         0.1400 
     48 CB          7.1368  -16.0662  -40.7968 C.3       5 UNK        -0.1800 
     49 N           5.4367  -14.8276  -42.0374 N.am      5 UNK        -0.5000 
     50 C           4.3446  -14.0794  -42.2489 C.2       4 UNK         0.5000 
     51 O           3.4242  -13.9669  -41.4396 O.2       4 UNK        -0.5000 
     52 CA          4.2515  -13.3553  -43.6080 C.3       4 UNK         0.1400 
     53 CB          4.7719  -11.9153  -43.4885 C.3       4 UNK        -0.1800 
     54 N           4.9587  -14.0323  -44.7029 N.am      4 UNK        -0.5000 
     55 C           4.6914  -15.2707  -45.1363 C.2       3 UNK         0.5000 
     56 O           3.8036  -15.9783  -44.6583 O.2       3 UNK        -0.5000 
     57 CA          5.5227  -15.7685  -46.3238 C.3       3 UNK         0.1400 
     58 CB          5.5180  -17.3044  -46.4519 C.3       3 UNK        -0.1800 
     59 N           4.9710  -15.1588  -47.5259 N.am      3 UNK        -0.5000 
     60 C           5.6223  -14.9517  -48.6762 C.2       2 UNK         0.5000 
     61 O           6.8045  -15.2451  -48.8565 O.2       2 UNK        -0.5000 
     62 CA          4.8135  -14.3105  -49.8229 C.3       2 UNK         0.1400 
     63 CB          4.3599  -15.3834  -50.8250 C.3       2 UNK        -0.1800 
     64 N           3.6361  -13.5761  -49.3487 N.am      2 UNK        -0.5000 
     65 C           3.6851  -12.3617  -48.7865 C.2       1 UNK         0.5000 
     66 O           4.7228  -11.7105  -48.6481 O.2       1 UNK        -0.5000 
     67 C          -1.4652  -21.2632  -48.2631 C.2       11 UNK         0.5000 
     68 O          -1.2145  -21.9598  -49.2469 O.2       11 UNK        -0.5000 
     69 N          -2.7050  -21.0689  -47.7901 N.am      12 UNK        -0.5000 
     70 CA         -3.8977  -21.7295  -48.3150 C.3       12 UNK         0.1400 
     71 CB         -5.1613  -21.0667  -47.7489 C.3       12 UNK        -0.1800 
     72 C          -3.8974  -23.2408  -48.0324 C.2       12 UNK         0.5000 
     73 O          -4.1827  -24.0156  -48.9423 O.2       12 UNK        -0.5000 
     74 N          -3.5442  -23.6489  -46.8034 N.am      13 UNK        -0.5000 
     75 CA         -3.4577  -25.0561  -46.3955 C.3       13 UNK         0.1400 
     76 CB         -3.1726  -25.1539  -44.8903 C.3       13 UNK        -0.1800 
     77 C          -2.4191  -25.8611  -47.1992 C.2       13 UNK         0.5000 
     78 O          -2.7015  -26.9941  -47.5899 O.2       13 UNK        -0.5000 
     79 N          -1.2664  -25.2431  -47.4925 N.am      14 UNK        -0.5000 
     80 CA         -0.2195  -25.7857  -48.3648 C.3       14 UNK         0.1400 
     81 CB          1.0147  -24.8743  -48.2913 C.3       14 UNK        -0.1800 
     82 C          -0.6715  -25.9650  -49.8300 C.2       14 UNK         0.5000 
     83 O          -0.1282  -26.8153  -50.5352 O.2       14 UNK        -0.5000 
     84 N          -1.6743  -25.1831  -50.2460 N.am      15 UNK        -0.5000 
     85 CA         -2.3336  -25.2351  -51.5496 C.3       15 UNK         0.1400 
     86 CB         -2.5917  -23.7881  -51.9917 C.3       15 UNK        -0.1800 
     87 C          -3.6432  -26.0554  -51.5076 C.2       15 UNK         0.5000 
     88 O          -4.4492  -25.9651  -52.4393 O.2       15 UNK        -0.5000 
     89 N          -3.8544  -26.8076  -50.4134 N.am      16 UNK        -0.5000 
     90 CA         -5.0023  -27.6701  -50.1030 C.3       16 UNK         0.1400 
     91 CB         -5.0525  -28.8597  -51.0840 C.3       16 UNK        -0.1800 
     92 C          -6.3531  -26.9253  -50.0226 C.2       16 UNK         0.5000 
     93 O          -7.4035  -27.5581  -50.1404 O.2       16 UNK        -0.5000 
     94 N          -6.3016  -25.5936  -49.8632 N.am      17 UNK        -0.5000 
     95 CA         -7.3969  -24.6245  -49.9741 C.3       17 UNK         0.1400 
     96 CB         -8.3869  -24.7876  -48.8032 C.3       17 UNK        -0.1800 
     97 C          -8.0926  -24.6387  -51.3561 C.2       17 UNK         0.5000 
     98 O          -9.2354  -24.1906  -51.4669 O.2       17 UNK        -0.5000 
     99 N          -7.4040  -25.1692  -52.3765 N.am      18 UNK        -0.5000 
    100 CA        -7.9402  -25.4333  -53.7080 C.3       18 UNK         0.1400 
    101 CB        -7.8697  -26.9440  -53.9856 C.3       18 UNK        -0.1800 
    102 C         -7.1666  -24.6474  -54.7714 C.2       18 UNK         0.5000 
    103 O         -7.7878  -23.9701  -55.5913 O.2       18 UNK        -0.5000 
    104 N         -5.8288  -24.7326  -54.7370 N.am      19 UNK        -0.5000 
    105 CA        -4.9506  -24.0214  -55.6692 C.3       19 UNK         0.1400 
    106 CB        -3.6227  -24.7843  -55.8045 C.3       19 UNK        -0.1800 
    107 C         -4.7317  -22.5467  -55.2755 C.2       19 UNK         0.5000 
    108 O         -4.3425  -21.7476  -56.1279 O.2       19 UNK        -0.5000 
    109 N         -5.0052  -22.2063  -54.0105 N.am      20 UNK        -0.5000 
    110 CA        -4.9653  -20.8599  -53.4546 C.3       20 UNK         0.1400 
    111 CB        -3.5113  -20.4693  -53.1242 C.3       20 UNK        -0.1800 
    112 C         -5.8403  -20.8634  -52.1854 C.2       20 UNK         0.5000 
    113 O         -5.7348  -21.8239  -51.4228 O.2       20 UNK        -0.5000 
    114 N         -6.6885  -19.8610  -51.9007 N.am      21 UNK        -0.5000 
    115 CA        -7.1005  -18.6877  -52.6843 C.3       21 UNK         0.1400 
    116 CB        -7.9905  -19.1089  -53.8738 C.3       21 UNK        -0.1800 
    117 C         -5.9398  -17.7516  -53.0728 C.2       21 UNK         0.5000 
    118 O         -5.7785  -17.4205  -54.2480 O.2       21 UNK        -0.5000 
    119 N         -5.1214  -17.3855  -52.0789 N.am      22 UNK        -0.5000 
    120 CA        -3.9227  -16.5467  -52.2550 C.3       22 UNK         0.1400 
    121 C         -4.1902  -15.0403  -52.5554 C.2       22 UNK         0.5000 
    122 N         -5.4093  -14.5361  -52.4083 N.am      22 UNK        -0.7600 
    123 O         -3.2739  -14.3195  -52.9405 O.2       22 UNK        -0.5000 
    124 C124       -2.9095  -16.7449  -51.0973 C.3       23 UNK        -0.0398 
    125 S125       -3.5412  -16.2349  -49.4575 S.3       23 UNK        -0.2404 
    126 C126       -2.6637  -14.6512  -49.2161 C.3       23 UNK        -0.0205 
    127 H127        1.7145   -8.0903  -49.6309 H         1 UNK         0.0600 
    128 H128        0.6123   -8.6197  -50.9047 H         1 UNK         0.0600 
    129 H129        2.3405   -8.4657  -51.2389 H         1 UNK         0.0600 
    130 H130        2.1602   -9.7002  -48.1590 H         1 UNK         0.3000 
    131 H131        1.5471  -12.4579  -48.5658 H         1 UNK         0.0600 
    132 H132        3.0973  -11.0230  -46.3461 H         1 UNK         0.0800 
    133 H133        2.7356  -12.7244  -46.3021 H         1 UNK         0.0800 
    134 H134        0.9749  -13.4241  -44.7121 H         1 UNK         0.0800 
    135 H135       -0.6940  -12.9334  -44.8373 H         1 UNK         0.0800 
    136 H136       -1.8617  -13.1164  -47.1239 H         1 UNK         0.1150 
    137 H137       -0.5978  -16.4605  -49.4938 H         1 UNK         0.1150 
    138 H138        1.8117  -15.1260  -46.2213 H         1 UNK         0.1150 
    139 H139        1.6910  -17.2656  -49.2653 H         1 UNK         0.0800 
    140 H140        2.7334  -16.6273  -48.0246 H         1 UNK         0.0800 
    141 H141        0.0156  -19.0936  -49.0043 H         1 UNK         0.0800 
    142 H142       -0.9079  -18.5243  -47.6305 H         1 UNK         0.0800 
    143 H143        0.5937  -21.1878  -47.7315 H         1 UNK         0.0600 
    144 H144       -0.5578  -19.8737  -45.5053 H         1 UNK         0.3000 
    145 H145       -1.1895  -22.7940  -43.5266 H         1 UNK         0.0600 
    146 H146        0.2871  -21.4684  -42.0098 H         1 UNK         0.0600 
    147 H147        1.2202  -22.2903  -43.2545 H         1 UNK         0.0600 
    148 H148        0.8975  -20.5676  -43.3974 H         1 UNK         0.0600 
    149 H149       -1.4960  -19.9252  -43.2005 H         1 UNK         0.3000 
    150 H150       -4.9778  -19.8940  -44.0610 H         1 UNK         0.0600 
    151 H151       -4.8313  -20.6663  -41.6850 H         1 UNK         0.0600 
    152 H152       -5.1040  -18.9341  -41.7836 H         1 UNK         0.0600 
    153 H153       -3.4989  -19.5540  -41.3956 H         1 UNK         0.0600 
    154 H154       -3.2540  -17.8206  -43.1680 H         1 UNK         0.3000 
    155 H155       -2.0198  -16.7832  -46.3370 H         1 UNK         0.0600 
    156 H156       -3.2325  -14.6943  -45.6811 H         1 UNK         0.0600 
    157 H157       -4.2287  -15.6137  -44.5589 H         1 UNK         0.0600 
    158 H158       -4.3437  -15.9071  -46.2906 H         1 UNK         0.0600 
    159 H159       -1.6927  -15.4185  -44.0020 H         1 UNK         0.3000 
    160 H160        0.7153  -15.3694  -43.5564 H         1 UNK         0.0600 
    161 H161       -0.5678  -16.8067  -41.1757 H         1 UNK         0.0600 
    162 H162       -1.0087  -15.2388  -41.8287 H         1 UNK         0.0600 
    163 H163        0.5427  -15.4434  -41.0368 H         1 UNK         0.0600 
    164 H164        2.5047  -16.6062  -43.4460 H         1 UNK         0.3000 
    165 H165        3.6371  -19.2826  -41.4074 H         1 UNK         0.0600 
    166 H166        3.5626  -18.6487  -44.4068 H         1 UNK         0.0600 
    167 H167        4.8418  -19.5599  -43.6062 H         1 UNK         0.0600 
    168 H168        3.2045  -20.1879  -43.6425 H         1 UNK         0.0600 
    169 H169        4.6643  -16.9411  -42.8819 H         1 UNK         0.3000 
    170 H170        5.4131  -15.0925  -39.9711 H         1 UNK         0.0600 
    171 H171        7.3397  -16.6779  -39.9167 H         1 UNK         0.0600 
    172 H172        7.4424  -16.6399  -41.6727 H         1 UNK         0.0600 
    173 H173        7.7750  -15.1847  -40.7320 H         1 UNK         0.0600 
    174 H174        6.1518  -14.8449  -42.7493 H         1 UNK         0.3000 
    175 H175        3.1945  -13.3129  -43.8746 H         1 UNK         0.0600 
    176 H176        5.8327  -11.8912  -43.2361 H         1 UNK         0.0600 
    177 H177        4.6360  -11.3654  -44.4194 H         1 UNK         0.0600 
    178 H178        4.2366  -11.3699  -42.7100 H         1 UNK         0.0600 
    179 H179        5.6927  -13.5061  -45.1558 H         1 UNK         0.3000 
    180 H180        6.5517  -15.4327  -46.1796 H         1 UNK         0.0600 
    181 H181        4.5154  -17.6936  -46.6316 H         1 UNK         0.0600 
    182 H182        5.8935  -17.7726  -45.5414 H         1 UNK         0.0600 
    183 H183        6.1546  -17.6351  -47.2724 H         1 UNK         0.0600 
    184 H184        4.0113  -14.8566  -47.4597 H         1 UNK         0.3000 
    185 H185        5.4747  -13.6160  -50.3458 H         1 UNK         0.0600 
    186 H186        3.8318  -14.9375  -51.6681 H         1 UNK         0.0600 
    187 H187        5.2156  -15.9255  -51.2298 H         1 UNK         0.0600 
    188 H188        3.6980  -16.1160  -50.3632 H         1 UNK         0.0600 
    189 H189        2.7416  -14.0297  -49.4686 H         1 UNK         0.3000 
    190 H190       -2.8483  -20.4259  -47.0149 H         1 UNK         0.3000 
    191 H191       -3.9054  -21.5952  -49.3986 H         1 UNK         0.0600 
    192 H192       -5.1991  -21.1327  -46.6609 H         1 UNK         0.0600 
    193 H193       -6.0603  -21.5433  -48.1423 H         1 UNK         0.0600 
    194 H194       -5.2064  -20.0122  -48.0220 H         1 UNK         0.0600 
    195 H195       -3.3599  -22.9566  -46.0843 H         1 UNK         0.3000 
    196 H196       -4.4340  -25.5085  -46.5818 H         1 UNK         0.0600 
    197 H197       -3.1238  -26.1949  -44.5687 H         1 UNK         0.0600 
    198 H198       -3.9580  -24.6722  -44.3079 H         1 UNK         0.0600 
    199 H199       -2.2240  -24.6855  -44.6294 H         1 UNK         0.0600 
    200 H200       -1.0849  -24.3310  -47.0801 H         1 UNK         0.3000 
    201 H201        0.0575  -26.7705  -47.9835 H         1 UNK         0.0600 
    202 H202        1.3929  -24.8046  -47.2712 H         1 UNK         0.0600 
    203 H203        0.7872  -23.8638  -48.6329 H         1 UNK         0.0600 
    204 H204        1.8243  -25.2584  -48.9131 H         1 UNK         0.0600 
    205 H205       -2.0701  -24.5228  -49.5883 H         1 UNK         0.3000 
    206 H206       -1.6760  -25.7061  -52.2825 H         1 UNK         0.0600 
    207 H207       -1.6746  -23.1991  -51.9706 H         1 UNK         0.0600 
    208 H208       -2.9747  -23.7443  -53.0070 H         1 UNK         0.0600 
    209 H209       -3.3188  -23.2945  -51.3470 H         1 UNK         0.0600 
    210 H210       -3.1579  -26.7630  -49.6793 H         1 UNK         0.3000 
    211 H211       -4.8200  -28.0699  -49.1048 H         1 UNK         0.0600 
    212 H212       -5.3024  -28.5390  -52.0958 H         1 UNK         0.0600 
    213 H213       -5.8022  -29.5905  -50.7787 H         1 UNK         0.0600 
    214 H214       -4.0948  -29.3787  -51.1233 H         1 UNK         0.0600 
    215 H215       -5.3873  -25.1691  -49.7168 H         1 UNK         0.3000 
    216 H216       -6.9363  -23.6410  -49.8777 H         1 UNK         0.0600 
    217 H217       -7.8681  -24.7669  -47.8447 H         1 UNK         0.0600 
    218 H218       -8.9389  -25.7256  -48.8671 H         1 UNK         0.0600 
    219 H219       -9.1175  -23.9782  -48.7922 H         1 UNK         0.0600 
    220 H220       -6.4568  -25.4855  -52.2006 H         1 UNK         0.3000 
    221 H221       -8.9869  -25.1287  -53.7711 H         1 UNK         0.0600 
    222 H222       -6.8477  -27.3209  -53.9264 H         1 UNK         0.0600 
    223 H223       -8.4699  -27.5015  -53.2662 H         1 UNK         0.0600 
    224 H224       -8.2515  -27.1780  -54.9802 H         1 UNK         0.0600 
    225 H225       -5.3755  -25.2946  -54.0220 H         1 UNK         0.3000 
    226 H226       -5.4176  -24.0137  -56.6566 H         1 UNK         0.0600 
    227 H227       -3.7816  -25.7561  -56.2720 H         1 UNK         0.0600 
    228 H228       -2.9154  -24.2377  -56.4296 H         1 UNK         0.0600 
    229 H229       -3.1456  -24.9608  -54.8425 H         1 UNK         0.0600 
    230 H230       -5.3382  -22.9132  -53.3677 H         1 UNK         0.3000 
    231 H231       -5.3550  -20.1775  -54.2059 H         1 UNK         0.0600 
    232 H232       -3.4446  -19.4310  -52.8076 H         1 UNK         0.0600 
    233 H233       -2.8587  -20.5807  -53.9899 H         1 UNK         0.0600 
    234 H234       -3.1014  -21.0745  -52.3165 H         1 UNK         0.0600 
    235 H235       -7.1790  -19.9435  -51.0223 H         1 UNK         0.3000 
    236 H236       -7.7323  -18.0974  -52.0187 H         1 UNK         0.0600 
    237 H237       -8.8508  -19.6840  -53.5314 H         1 UNK         0.0600 
    238 H238       -8.3798  -18.2339  -54.3959 H         1 UNK         0.0600 
    239 H239       -7.4632  -19.7142  -54.6094 H         1 UNK         0.0600 
    240 H240       -5.3171  -17.6880  -51.1353 H         1 UNK         0.3000 
    241 H241       -3.4228  -16.9158  -53.1529 H         1 UNK         0.0600 
    242 H242       -6.1681  -15.1139  -52.0854 H         1 UNK         0.3800 
    243 H243       -5.5717  -13.5626  -52.6121 H         1 UNK         0.3800 
    244 H244       -2.6356  -17.7984  -51.0302 H         1 UNK         0.0800 
    245 H245       -1.9795  -16.2210  -51.3222 H         1 UNK         0.0800 
    246 H246       -3.3556  -13.9706  -48.7178 H         1 UNK         0.0800 
    247 H247       -2.4292  -14.1894  -50.1756 H         1 UNK         0.0800 
@<TRIPOS>BOND
     1    1    2 1    
     2    1  127 1    
     3    1  128 1    
     4    1  129 1    
     5    2    3 2    
     6    2    4 am   BACKBONE|DICT|INTERRES
     7    4    5 1    
     8    4  130 1    
     9    5    6 1    
    10    5   65 1    
    11    5  131 1    
    12    6    7 1    
    13    6  132 1    
    14    6  133 1    
    15    7    8 1    
    16    8    9 1    
    17    8  134 1    
    18    8  135 1    
    19    9   10 ar   
    20    9   14 ar   
    21   10   11 ar   
    22   10  136 1    
    23   11   12 ar   
    24   11  126 1    
    25   12   13 ar   
    26   12  137 1    
    27   13   14 ar   
    28   13   15 1    
    29   14  138 1    
    30   15   16 1    
    31   15  139 1    
    32   15  140 1    
    33   16   17 1    
    34   17   18 1    
    35   17  141 1    
    36   17  142 1    
    37   18   19 1    
    38   18   67 1    
    39   18  143 1    
    40   19   20 am   BACKBONE|DICT|INTERRES
    41   19  144 1    
    42   20   21 2    
    43   20   22 1    
    44   22   23 1    
    45   22   24 1    
    46   22  145 1    
    47   23  146 1    
    48   23  147 1    
    49   23  148 1    
    50   24   25 am   BACKBONE|DICT|INTERRES
    51   24  149 1    
    52   25   26 2    
    53   25   27 1    
    54   27   28 1    
    55   27   29 1    
    56   27  150 1    
    57   28  151 1    
    58   28  152 1    
    59   28  153 1    
    60   29   30 am   BACKBONE|DICT|INTERRES
    61   29  154 1    
    62   30   31 2    
    63   30   32 1    
    64   32   33 1    
    65   32   34 1    
    66   32  155 1    
    67   33  156 1    
    68   33  157 1    
    69   33  158 1    
    70   34   35 am   BACKBONE|DICT|INTERRES
    71   34  159 1    
    72   35   36 2    
    73   35   37 1    
    74   37   38 1    
    75   37   39 1    
    76   37  160 1    
    77   38  161 1    
    78   38  162 1    
    79   38  163 1    
    80   39   40 am   BACKBONE|DICT|INTERRES
    81   39  164 1    
    82   40   41 2    
    83   40   42 1    
    84   42   43 1    
    85   42   44 1    
    86   42  165 1    
    87   43  166 1    
    88   43  167 1    
    89   43  168 1    
    90   44   45 am   BACKBONE|DICT|INTERRES
    91   44  169 1    
    92   45   46 2    
    93   45   47 1    
    94   47   48 1    
    95   47   49 1    
    96   47  170 1    
    97   48  171 1    
    98   48  172 1    
    99   48  173 1    
   100   49   50 am   BACKBONE|DICT|INTERRES
   101   49  174 1    
   102   50   51 2    
   103   50   52 1    
   104   52   53 1    
   105   52   54 1    
   106   52  175 1    
   107   53  176 1    
   108   53  177 1    
   109   53  178 1    
   110   54   55 am   BACKBONE|DICT|INTERRES
   111   54  179 1    
   112   55   56 2    
   113   55   57 1    
   114   57   58 1    
   115   57   59 1    
   116   57  180 1    
   117   58  181 1    
   118   58  182 1    
   119   58  183 1    
   120   59   60 am   BACKBONE|DICT|INTERRES
   121   59  184 1    
   122   60   61 2    
   123   60   62 1    
   124   62   63 1    
   125   62   64 1    
   126   62  185 1    
   127   63  186 1    
   128   63  187 1    
   129   63  188 1    
   130   64   65 am   BACKBONE|DICT|INTERRES
   131   64  189 1    
   132   65   66 2    
   133   67   68 2    
   134   67   69 am   BACKBONE|DICT|INTERRES
   135   69   70 1    
   136   69  190 1    
   137   70   71 1    
   138   70   72 1    
   139   70  191 1    
   140   71  192 1    
   141   71  193 1    
   142   71  194 1    
   143   72   73 2    
   144   72   74 am   BACKBONE|DICT|INTERRES
   145   74   75 1    
   146   74  195 1    
   147   75   76 1    
   148   75   77 1    
   149   75  196 1    
   150   76  197 1    
   151   76  198 1    
   152   76  199 1    
   153   77   78 2    
   154   77   79 am   BACKBONE|DICT|INTERRES
   155   79   80 1    
   156   79  200 1    
   157   80   81 1    
   158   80   82 1    
   159   80  201 1    
   160   81  202 1    
   161   81  203 1    
   162   81  204 1    
   163   82   83 2    
   164   82   84 am   BACKBONE|DICT|INTERRES
   165   84   85 1    
   166   84  205 1    
   167   85   86 1    
   168   85   87 1    
   169   85  206 1    
   170   86  207 1    
   171   86  208 1    
   172   86  209 1    
   173   87   88 2    
   174   87   89 am   BACKBONE|DICT|INTERRES
   175   89   90 1    
   176   89  210 1    
   177   90   91 1    
   178   90   92 1    
   179   90  211 1    
   180   91  212 1    
   181   91  213 1    
   182   91  214 1    
   183   92   93 2    
   184   92   94 am   BACKBONE|DICT|INTERRES
   185   94   95 1    
   186   94  215 1    
   187   95   96 1    
   188   95   97 1    
   189   95  216 1    
   190   96  217 1    
   191   96  218 1    
   192   96  219 1    
   193   97   98 2    
   194   97   99 am   BACKBONE|DICT|INTERRES
   195   99  100 1    
   196   99  220 1    
   197  100  101 1    
   198  100  102 1    
   199  100  221 1    
   200  101  222 1    
   201  101  223 1    
   202  101  224 1    
   203  102  103 2    
   204  102  104 am   BACKBONE|DICT|INTERRES
   205  104  105 1    
   206  104  225 1    
   207  105  106 1    
   208  105  107 1    
   209  105  226 1    
   210  106  227 1    
   211  106  228 1    
   212  106  229 1    
   213  107  108 2    
   214  107  109 am   BACKBONE|DICT|INTERRES
   215  109  110 1    
   216  109  230 1    
   217  110  111 1    
   218  110  112 1    
   219  110  231 1    
   220  111  232 1    
   221  111  233 1    
   222  111  234 1    
   223  112  113 2    
   224  112  114 am   BACKBONE|DICT|INTERRES
   225  114  115 1    
   226  114  235 1    
   227  115  116 1    
   228  115  117 1    
   229  115  236 1    
   230  116  237 1    
   231  116  238 1    
   232  116  239 1    
   233  117  118 2    
   234  117  119 am   BACKBONE|DICT|INTERRES
   235  119  120 1    
   236  119  240 1    
   237  120  121 1    
   238  120  124 1    
   239  120  241 1    
   240  121  122 am   BACKBONE|DICT|INTERRES
   241  121  123 2    
   242  122  242 1    
   243  122  243 1    
   244  124  125 1    
   245  124  244 1    
   246  124  245 1    
   247  125  126 1    
   248  126  246 1    
   249  126  247 1    
@<TRIPOS>SUBSTRUCTURE
     1 UNK         1 GROUP             0       ****    0 ROOT    
