@<TRIPOS>MOLECULE
3R540
247   249    1
SMALL
USER_CHARGES


@<TRIPOS>ATOM
      1 CA         -1.8600  -16.4377  -50.8098 C.3       0 UNK        -0.1800 
      2 C          -1.4577  -15.9223  -49.4402 C.2       0 UNK         0.5000 
      3 O          -2.1105  -15.0313  -48.8969 O.2       0 UNK        -0.5000 
      4 N          -0.4047  -16.5067  -48.8590 N.am      1 UNK        -0.5000 
      5 CA          0.1507  -16.1742  -47.5399 C.3       1 UNK         0.1400 
      6 C6          1.6449  -16.5718  -47.4346 C.3       23 UNK        -0.0398 
      7 S7          2.6951  -15.6967  -48.6459 S.3       23 UNK        -0.2404 
      8 C8          3.3879  -17.0625  -49.6323 C.3       23 UNK        -0.0205 
      9 C9          2.3514  -17.6973  -50.5463 C.ar      23 UNK        -0.0193 
     10 C10         2.0564  -17.1172  -51.7841 C.ar      23 UNK        -0.1150 
     11 C11         1.1183  -17.7033  -52.6397 C.ar      23 UNK        -0.0193 
     12 C12         0.4703  -18.8756  -52.2402 C.ar      23 UNK        -0.1150 
     13 C13         0.7453  -19.4574  -50.9995 C.ar      23 UNK        -0.0193 
     14 C14         1.6980  -18.8717  -50.1625 C.ar      23 UNK        -0.1150 
     15 C15         0.0074  -20.7146  -50.5695 C.3       23 UNK        -0.0205 
     16 S16        -1.4310  -20.3082  -49.5326 S.3       23 UNK        -0.2404 
     17 C17        -0.7557  -20.4868  -47.8467 C.3       23 UNK        -0.0398 
     18 CA         -1.0601  -21.8703  -47.2181 C.3       11 UNK         0.1400 
     19 N          -0.1813  -22.1323  -46.0743 N.am      11 UNK        -0.5000 
     20 C          -0.1679  -23.2570  -45.3404 C.2       10 UNK         0.5000 
     21 O          -0.8335  -24.2548  -45.6107 O.2       10 UNK        -0.5000 
     22 CA          0.6738  -23.2525  -44.0474 C.3       10 UNK         0.1400 
     23 CB          2.0291  -23.9313  -44.2909 C.3       10 UNK        -0.1800 
     24 N           0.9019  -21.9188  -43.4901 N.am      10 UNK        -0.5000 
     25 C          -0.0376  -21.0119  -43.1848 C.2       9 UNK         0.5000 
     26 O          -1.2470  -21.2429  -43.2308 O.2       9 UNK        -0.5000 
     27 CA          0.4511  -19.5930  -42.8365 C.3       9 UNK         0.1400 
     28 CB          0.3125  -19.3380  -41.3296 C.3       9 UNK        -0.1800 
     29 N           1.8319  -19.3012  -43.2408 N.am      9 UNK        -0.5000 
     30 C           2.3464  -19.3453  -44.4791 C.2       8 UNK         0.5000 
     31 O           1.7157  -19.7248  -45.4694 O.2       8 UNK        -0.5000 
     32 CA          3.8319  -18.9400  -44.6048 C.3       8 UNK         0.1400 
     33 CB          4.3272  -18.8802  -46.0597 C.3       8 UNK        -0.1800 
     34 N           4.1321  -17.6630  -43.9529 N.am      8 UNK        -0.5000 
     35 C           4.3092  -17.4662  -42.6422 C.2       7 UNK         0.5000 
     36 O           4.1843  -18.3599  -41.8037 O.2       7 UNK        -0.5000 
     37 CA          4.6676  -16.0419  -42.1807 C.3       7 UNK         0.1400 
     38 CB          6.1340  -15.6989  -42.5051 C.3       7 UNK        -0.1800 
     39 N           3.7514  -14.9977  -42.6534 N.am      7 UNK        -0.5000 
     40 C           3.5384  -14.5436  -43.8989 C.2       6 UNK         0.5000 
     41 O           4.1056  -14.9956  -44.8945 O.2       6 UNK        -0.5000 
     42 CA          2.5219  -13.3938  -44.0699 C.3       6 UNK         0.1400 
     43 CB          1.4421  -13.7483  -45.1034 C.3       6 UNK        -0.1800 
     44 N           1.8616  -13.0463  -42.8113 N.am      6 UNK        -0.5000 
     45 C           2.2446  -12.0638  -41.9837 C.2       5 UNK         0.5000 
     46 O           3.1750  -11.2935  -42.2222 O.2       5 UNK        -0.5000 
     47 CA          1.4740  -11.9267  -40.6537 C.3       5 UNK         0.1400 
     48 CB          0.4212  -10.8126  -40.7578 C.3       5 UNK        -0.1800 
     49 N           0.8117  -13.1626  -40.2288 N.am      5 UNK        -0.5000 
     50 C           1.4371  -14.2939  -39.8730 C.2       4 UNK         0.5000 
     51 O           2.6613  -14.4091  -39.8198 O.2       4 UNK        -0.5000 
     52 CA          0.5438  -15.5189  -39.5982 C.3       4 UNK         0.1400 
     53 CB          0.1895  -15.6072  -38.1067 C.3       4 UNK        -0.1800 
     54 N          -0.6912  -15.5226  -40.3916 N.am      4 UNK        -0.5000 
     55 C          -0.7372  -15.5949  -41.7285 C.2       3 UNK         0.5000 
     56 O           0.2628  -15.6852  -42.4435 O.2       3 UNK        -0.5000 
     57 CA         -2.1222  -15.4719  -42.3718 C.3       3 UNK         0.1400 
     58 CB         -2.4699  -13.9892  -42.6024 C.3       3 UNK        -0.1800 
     59 N          -2.1283  -16.1902  -43.6412 N.am      3 UNK        -0.5000 
     60 C          -3.2171  -16.6123  -44.2919 C.2       2 UNK         0.5000 
     61 O          -4.3616  -16.4244  -43.8755 O.2       2 UNK        -0.5000 
     62 CA         -2.9975  -17.3658  -45.6242 C.3       2 UNK         0.1400 
     63 CB         -4.2985  -17.5446  -46.4272 C.3       2 UNK        -0.1800 
     64 N          -2.0186  -16.7310  -46.5061 N.am      2 UNK        -0.5000 
     65 C          -0.6884  -16.7800  -46.3884 C.2       1 UNK         0.5000 
     66 O          -0.1338  -17.2890  -45.4175 O.2       1 UNK        -0.5000 
     67 C          -2.5602  -22.0189  -46.8639 C.2       11 UNK         0.5000 
     68 O          -3.3233  -22.5633  -47.6648 O.2       11 UNK        -0.5000 
     69 N          -2.9496  -21.5742  -45.6590 N.am      12 UNK        -0.5000 
     70 CA         -4.3057  -21.7334  -45.1369 C.3       12 UNK         0.1400 
     71 CB         -4.5451  -20.7378  -43.9906 C.3       12 UNK        -0.1800 
     72 C          -4.5601  -23.1718  -44.6581 C.2       12 UNK         0.5000 
     73 O          -5.6055  -23.7390  -44.9735 O.2       12 UNK        -0.5000 
     74 N          -3.5947  -23.7375  -43.9182 N.am      13 UNK        -0.5000 
     75 CA         -3.6801  -25.0671  -43.3056 C.3       13 UNK         0.1400 
     76 CB         -2.4861  -25.2748  -42.3624 C.3       13 UNK        -0.1800 
     77 C          -3.7628  -26.2124  -44.3315 C.2       13 UNK         0.5000 
     78 O          -4.5340  -27.1518  -44.1345 O.2       13 UNK        -0.5000 
     79 N          -2.9887  -26.1001  -45.4185 N.am      14 UNK        -0.5000 
     80 CA         -2.9846  -27.0390  -46.5420 C.3       14 UNK         0.1400 
     81 CB         -1.6489  -26.9005  -47.2911 C.3       14 UNK        -0.1800 
     82 C          -4.1619  -26.8270  -47.5150 C.2       14 UNK         0.5000 
     83 O          -4.3501  -27.6496  -48.4117 O.2       14 UNK        -0.5000 
     84 N          -4.9015  -25.7186  -47.3490 N.am      15 UNK        -0.5000 
     85 CA         -5.9807  -25.2224  -48.2110 C.3       15 UNK         0.1400 
     86 CB         -7.1762  -26.1968  -48.2319 C.3       15 UNK        -0.1800 
     87 C          -5.5003  -24.8295  -49.6251 C.2       15 UNK         0.5000 
     88 O          -6.3043  -24.7718  -50.5570 O.2       15 UNK        -0.5000 
     89 N          -4.2014  -24.5218  -49.7536 N.am      16 UNK        -0.5000 
     90 CA         -3.5638  -24.0299  -50.9752 C.3       16 UNK         0.1400 
     91 CB         -2.0392  -24.0673  -50.7995 C.3       16 UNK        -0.1800 
     92 C          -4.0342  -22.6137  -51.3493 C.2       16 UNK         0.5000 
     93 O          -4.0318  -22.2696  -52.5301 O.2       16 UNK        -0.5000 
     94 N          -4.4827  -21.8480  -50.3430 N.am      17 UNK        -0.5000 
     95 CA         -5.0560  -20.5035  -50.4364 C.3       17 UNK         0.1400 
     96 CB         -5.5143  -20.0776  -49.0344 C.3       17 UNK        -0.1800 
     97 C          -6.2175  -20.3682  -51.4425 C.2       17 UNK         0.5000 
     98 O          -6.3996  -19.2952  -52.0169 O.2       17 UNK        -0.5000 
     99 N          -6.9588  -21.4624  -51.6660 N.am      18 UNK        -0.5000 
    100 CA        -8.0445  -21.5573  -52.6426 C.3       18 UNK         0.1400 
    101 CB        -8.8501  -22.8336  -52.3541 C.3       18 UNK        -0.1800 
    102 C         -7.5701  -21.5422  -54.1120 C.2       18 UNK         0.5000 
    103 O         -8.3789  -21.2541  -54.9951 O.2       18 UNK        -0.5000 
    104 N         -6.2900  -21.8553  -54.3540 N.am      19 UNK        -0.5000 
    105 CA        -5.6683  -21.9363  -55.6780 C.3       19 UNK         0.1400 
    106 CB        -5.3327  -23.4100  -55.9672 C.3       19 UNK        -0.1800 
    107 C         -4.4164  -21.0420  -55.7780 C.2       19 UNK         0.5000 
    108 O         -3.6309  -21.1937  -56.7161 O.2       19 UNK        -0.5000 
    109 N         -4.2363  -20.1282  -54.8157 N.am      20 UNK        -0.5000 
    110 CA        -3.0644  -19.2692  -54.6501 C.3       20 UNK         0.1400 
    111 CB        -2.9950  -18.8207  -53.1834 C.3       20 UNK        -0.1800 
    112 C         -3.0346  -18.0805  -55.6322 C.2       20 UNK         0.5000 
    113 O         -2.9936  -16.9238  -55.2087 O.2       20 UNK        -0.5000 
    114 N         -3.0573  -18.3841  -56.9347 N.am      21 UNK        -0.5000 
    115 CA        -2.9069  -17.4074  -58.0121 C.3       21 UNK         0.1400 
    116 CB        -3.3362  -18.0427  -59.3438 C.3       21 UNK        -0.1800 
    117 C         -1.4662  -16.8700  -58.0921 C.2       21 UNK         0.5000 
    118 O         -1.2743  -15.6567  -58.1776 O.2       21 UNK        -0.5000 
    119 N         -0.4897  -17.7896  -58.0431 N.am      22 UNK        -0.5000 
    120 CA         0.9631  -17.5284  -58.0701 C.3       22 UNK         0.1400 
    121 C          1.4817  -16.7863  -59.3442 C.2       22 UNK         0.5000 
    122 N          0.7792  -16.8441  -60.4692 N.am      22 UNK        -0.7600 
    123 O          2.5491  -16.1785  -59.3329 O.2       22 UNK        -0.5000 
    124 C124        1.4785  -16.9072  -56.7396 C.3       23 UNK        -0.0398 
    125 S125        1.4082  -18.1022  -55.3600 S.3       23 UNK        -0.2404 
    126 C126        0.8033  -17.0700  -53.9893 C.3       23 UNK        -0.0205 
    127 H127       -2.9283  -16.2992  -50.9769 H         1 UNK         0.0600 
    128 H128       -1.6438  -17.5019  -50.8896 H         1 UNK         0.0600 
    129 H129       -1.3149  -15.9095  -51.5919 H         1 UNK         0.0600 
    130 H130        0.0853  -17.2340  -49.3622 H         1 UNK         0.3000 
    131 H131        0.0920  -15.0912  -47.4151 H         1 UNK         0.0600 
    132 H132        1.7552  -17.6508  -47.5443 H         1 UNK         0.0800 
    133 H133        2.0397  -16.3343  -46.4455 H         1 UNK         0.0800 
    134 H134        3.8302  -17.8103  -48.9734 H         1 UNK         0.0800 
    135 H135        4.2092  -16.6731  -50.2356 H         1 UNK         0.0800 
    136 H136        2.5635  -16.2098  -52.0810 H         1 UNK         0.1150 
    137 H137       -0.2467  -19.3395  -52.9010 H         1 UNK         0.1150 
    138 H138        1.9311  -19.3292  -49.2121 H         1 UNK         0.1150 
    139 H139        0.6800  -21.3945  -50.0447 H         1 UNK         0.0800 
    140 H140       -0.3443  -21.2576  -51.4481 H         1 UNK         0.0800 
    141 H141       -1.1503  -19.6823  -47.2242 H         1 UNK         0.0800 
    142 H142        0.3210  -20.3222  -47.8836 H         1 UNK         0.0800 
    143 H143       -0.8254  -22.6393  -47.9557 H         1 UNK         0.0600 
    144 H144        0.4156  -21.3647  -45.7834 H         1 UNK         0.3000 
    145 H145        0.1308  -23.8269  -43.2968 H         1 UNK         0.0600 
    146 H146        1.8956  -24.9408  -44.6825 H         1 UNK         0.0600 
    147 H147        2.6006  -24.0164  -43.3665 H         1 UNK         0.0600 
    148 H148        2.6325  -23.3766  -45.0107 H         1 UNK         0.0600 
    149 H149        1.8641  -21.6227  -43.4243 H         1 UNK         0.3000 
    150 H150       -0.2000  -18.8926  -43.3610 H         1 UNK         0.0600 
    151 H151        0.9463  -20.0087  -40.7481 H         1 UNK         0.0600 
    152 H152       -0.7166  -19.4844  -40.9988 H         1 UNK         0.0600 
    153 H153        0.5903  -18.3155  -41.0804 H         1 UNK         0.0600 
    154 H154        2.4591  -18.9983  -42.5027 H         1 UNK         0.3000 
    155 H155        4.4037  -19.7244  -44.1047 H         1 UNK         0.0600 
    156 H156        5.4091  -18.7530  -46.0976 H         1 UNK         0.0600 
    157 H157        3.8808  -18.0471  -46.5979 H         1 UNK         0.0600 
    158 H158        4.0917  -19.7962  -46.6031 H         1 UNK         0.0600 
    159 H159        4.1935  -16.8432  -44.5517 H         1 UNK         0.3000 
    160 H160        4.5716  -16.0377  -41.0938 H         1 UNK         0.0600 
    161 H161        6.3270  -15.6895  -43.5781 H         1 UNK         0.0600 
    162 H162        6.8104  -16.4300  -42.0607 H         1 UNK         0.0600 
    163 H163        6.4060  -14.7212  -42.1072 H         1 UNK         0.0600 
    164 H164        3.2094  -14.5688  -41.9135 H         1 UNK         0.3000 
    165 H165        3.0744  -12.5319  -44.4490 H         1 UNK         0.0600 
    166 H166        0.7070  -12.9491  -45.1989 H         1 UNK         0.0600 
    167 H167        1.8846  -13.8971  -46.0884 H         1 UNK         0.0600 
    168 H168        0.9120  -14.6609  -44.8320 H         1 UNK         0.0600 
    169 H169        1.1161  -13.6683  -42.5245 H         1 UNK         0.3000 
    170 H170        2.1958  -11.6483  -39.8830 H         1 UNK         0.0600 
    171 H171       -0.0789  -10.6511  -39.8027 H         1 UNK         0.0600 
    172 H172       -0.3411  -11.0478  -41.5019 H         1 UNK         0.0600 
    173 H173        0.8805   -9.8661  -41.0462 H         1 UNK         0.0600 
    174 H174       -0.1973  -13.1602  -40.2415 H         1 UNK         0.3000 
    175 H175        1.1223  -16.4053  -39.8638 H         1 UNK         0.0600 
    176 H176        1.0904  -15.6264  -37.4918 H         1 UNK         0.0600 
    177 H177       -0.4108  -14.7559  -37.7834 H         1 UNK         0.0600 
    178 H178       -0.3705  -16.5166  -37.8878 H         1 UNK         0.0600 
    179 H179       -1.5548  -15.4394  -39.8743 H         1 UNK         0.3000 
    180 H180       -2.8575  -15.9234  -41.7025 H         1 UNK         0.0600 
    181 H181       -1.7623  -13.5135  -43.2831 H         1 UNK         0.0600 
    182 H182       -2.4536  -13.4297  -41.6664 H         1 UNK         0.0600 
    183 H183       -3.4676  -13.8752  -43.0264 H         1 UNK         0.0600 
    184 H184       -1.2095  -16.4158  -44.0172 H         1 UNK         0.3000 
    185 H185       -2.6258  -18.3595  -45.3662 H         1 UNK         0.0600 
    186 H186       -4.1118  -18.0912  -47.3503 H         1 UNK         0.0600 
    187 H187       -5.0475  -18.1019  -45.8645 H         1 UNK         0.0600 
    188 H188       -4.7377  -16.5829  -46.6950 H         1 UNK         0.0600 
    189 H189       -2.3894  -16.2218  -47.3012 H         1 UNK         0.3000 
    190 H190       -2.2549  -21.2215  -45.0100 H         1 UNK         0.3000 
    191 H191       -5.0174  -21.5076  -45.9343 H         1 UNK         0.0600 
    192 H192       -4.3715  -19.7123  -44.3087 H         1 UNK         0.0600 
    193 H193       -5.5749  -20.7963  -43.6361 H         1 UNK         0.0600 
    194 H194       -3.8961  -20.9335  -43.1367 H         1 UNK         0.0600 
    195 H195       -2.7660  -23.1951  -43.7178 H         1 UNK         0.3000 
    196 H196       -4.5926  -25.0922  -42.7062 H         1 UNK         0.0600 
    197 H197       -2.5966  -26.2014  -41.7976 H         1 UNK         0.0600 
    198 H198       -2.4002  -24.4621  -41.6408 H         1 UNK         0.0600 
    199 H199       -1.5479  -25.3420  -42.9123 H         1 UNK         0.0600 
    200 H200       -2.3366  -25.3203  -45.4821 H         1 UNK         0.3000 
    201 H201       -3.0556  -28.0570  -46.1535 H         1 UNK         0.0600 
    202 H202       -1.5738  -27.6286  -48.0997 H         1 UNK         0.0600 
    203 H203       -0.8030  -27.0681  -46.6241 H         1 UNK         0.0600 
    204 H204       -1.5361  -25.9087  -47.7313 H         1 UNK         0.0600 
    205 H205       -4.6783  -25.1238  -46.5615 H         1 UNK         0.3000 
    206 H206       -6.3241  -24.2958  -47.7489 H         1 UNK         0.0600 
    207 H207       -7.4909  -26.4553  -47.2208 H         1 UNK         0.0600 
    208 H208       -8.0354  -25.7497  -48.7333 H         1 UNK         0.0600 
    209 H209       -6.9388  -27.1217  -48.7578 H         1 UNK         0.0600 
    210 H210       -3.6358  -24.5135  -48.9161 H         1 UNK         0.3000 
    211 H211       -3.8345  -24.6981  -51.7953 H         1 UNK         0.0600 
    212 H212       -1.7142  -23.4169  -49.9883 H         1 UNK         0.0600 
    213 H213       -1.5338  -23.7359  -51.7075 H         1 UNK         0.0600 
    214 H214       -1.6906  -25.0770  -50.5816 H         1 UNK         0.0600 
    215 H215       -4.3613  -22.2114  -49.4038 H         1 UNK         0.3000 
    216 H216       -4.2611  -19.8281  -50.7516 H         1 UNK         0.0600 
    217 H217       -5.8856  -19.0520  -49.0372 H         1 UNK         0.0600 
    218 H218       -4.6904  -20.1262  -48.3230 H         1 UNK         0.0600 
    219 H219       -6.3137  -20.7186  -48.6606 H         1 UNK         0.0600 
    220 H220       -6.7251  -22.3114  -51.1693 H         1 UNK         0.3000 
    221 H221       -8.7037  -20.6980  -52.5032 H         1 UNK         0.0600 
    222 H222       -8.2366  -23.7287  -52.4660 H         1 UNK         0.0600 
    223 H223       -9.2515  -22.8272  -51.3406 H         1 UNK         0.0600 
    224 H224       -9.6955  -22.9269  -53.0371 H         1 UNK         0.0600 
    225 H225       -5.6705  -22.0575  -53.5735 H         1 UNK         0.3000 
    226 H226       -6.3569  -21.5845  -56.4484 H         1 UNK         0.0600 
    227 H227       -4.9105  -23.5321  -56.9654 H         1 UNK         0.0600 
    228 H228       -4.6088  -23.8018  -55.2514 H         1 UNK         0.0600 
    229 H229       -6.2253  -24.0338  -55.9164 H         1 UNK         0.0600 
    230 H230       -4.9487  -20.0474  -54.1046 H         1 UNK         0.3000 
    231 H231       -2.1686  -19.8607  -54.8510 H         1 UNK         0.0600 
    232 H232       -3.9170  -18.3356  -52.8621 H         1 UNK         0.0600 
    233 H233       -2.1867  -18.1073  -53.0370 H         1 UNK         0.0600 
    234 H234       -2.8013  -19.6676  -52.5259 H         1 UNK         0.0600 
    235 H235       -3.1321  -19.3643  -57.1902 H         1 UNK         0.3000 
    236 H236       -3.5708  -16.5639  -57.8104 H         1 UNK         0.0600 
    237 H237       -2.7339  -18.9180  -59.5899 H         1 UNK         0.0600 
    238 H238       -4.3801  -18.3551  -59.3106 H         1 UNK         0.0600 
    239 H239       -3.2364  -17.3319  -60.1652 H         1 UNK         0.0600 
    240 H240       -0.7545  -18.7607  -57.9684 H         1 UNK         0.3000 
    241 H241        1.4260  -18.5120  -58.1573 H         1 UNK         0.0600 
    242 H242        1.1216  -16.3735  -61.2925 H         1 UNK         0.3800 
    243 H243       -0.0921  -17.3483  -60.5061 H         1 UNK         0.3800 
    244 H244        0.9155  -16.0059  -56.4943 H         1 UNK         0.0800 
    245 H245        2.5216  -16.5990  -56.8229 H         1 UNK         0.0800 
    246 H246        1.2567  -16.0797  -54.0540 H         1 UNK         0.0800 
    247 H247       -0.2731  -16.9253  -54.0903 H         1 UNK         0.0800 
@<TRIPOS>BOND
     1    1    2 1    
     2    1  127 1    
     3    1  128 1    
     4    1  129 1    
     5    2    3 2    
     6    2    4 am   BACKBONE|DICT|INTERRES
     7    4    5 1    
     8    4  130 1    
     9    5    6 1    
    10    5   65 1    
    11    5  131 1    
    12    6    7 1    
    13    6  132 1    
    14    6  133 1    
    15    7    8 1    
    16    8    9 1    
    17    8  134 1    
    18    8  135 1    
    19    9   10 ar   
    20    9   14 ar   
    21   10   11 ar   
    22   10  136 1    
    23   11   12 ar   
    24   11  126 1    
    25   12   13 ar   
    26   12  137 1    
    27   13   14 ar   
    28   13   15 1    
    29   14  138 1    
    30   15   16 1    
    31   15  139 1    
    32   15  140 1    
    33   16   17 1    
    34   17   18 1    
    35   17  141 1    
    36   17  142 1    
    37   18   19 1    
    38   18   67 1    
    39   18  143 1    
    40   19   20 am   BACKBONE|DICT|INTERRES
    41   19  144 1    
    42   20   21 2    
    43   20   22 1    
    44   22   23 1    
    45   22   24 1    
    46   22  145 1    
    47   23  146 1    
    48   23  147 1    
    49   23  148 1    
    50   24   25 am   BACKBONE|DICT|INTERRES
    51   24  149 1    
    52   25   26 2    
    53   25   27 1    
    54   27   28 1    
    55   27   29 1    
    56   27  150 1    
    57   28  151 1    
    58   28  152 1    
    59   28  153 1    
    60   29   30 am   BACKBONE|DICT|INTERRES
    61   29  154 1    
    62   30   31 2    
    63   30   32 1    
    64   32   33 1    
    65   32   34 1    
    66   32  155 1    
    67   33  156 1    
    68   33  157 1    
    69   33  158 1    
    70   34   35 am   BACKBONE|DICT|INTERRES
    71   34  159 1    
    72   35   36 2    
    73   35   37 1    
    74   37   38 1    
    75   37   39 1    
    76   37  160 1    
    77   38  161 1    
    78   38  162 1    
    79   38  163 1    
    80   39   40 am   BACKBONE|DICT|INTERRES
    81   39  164 1    
    82   40   41 2    
    83   40   42 1    
    84   42   43 1    
    85   42   44 1    
    86   42  165 1    
    87   43  166 1    
    88   43  167 1    
    89   43  168 1    
    90   44   45 am   BACKBONE|DICT|INTERRES
    91   44  169 1    
    92   45   46 2    
    93   45   47 1    
    94   47   48 1    
    95   47   49 1    
    96   47  170 1    
    97   48  171 1    
    98   48  172 1    
    99   48  173 1    
   100   49   50 am   BACKBONE|DICT|INTERRES
   101   49  174 1    
   102   50   51 2    
   103   50   52 1    
   104   52   53 1    
   105   52   54 1    
   106   52  175 1    
   107   53  176 1    
   108   53  177 1    
   109   53  178 1    
   110   54   55 am   BACKBONE|DICT|INTERRES
   111   54  179 1    
   112   55   56 2    
   113   55   57 1    
   114   57   58 1    
   115   57   59 1    
   116   57  180 1    
   117   58  181 1    
   118   58  182 1    
   119   58  183 1    
   120   59   60 am   BACKBONE|DICT|INTERRES
   121   59  184 1    
   122   60   61 2    
   123   60   62 1    
   124   62   63 1    
   125   62   64 1    
   126   62  185 1    
   127   63  186 1    
   128   63  187 1    
   129   63  188 1    
   130   64   65 am   BACKBONE|DICT|INTERRES
   131   64  189 1    
   132   65   66 2    
   133   67   68 2    
   134   67   69 am   BACKBONE|DICT|INTERRES
   135   69   70 1    
   136   69  190 1    
   137   70   71 1    
   138   70   72 1    
   139   70  191 1    
   140   71  192 1    
   141   71  193 1    
   142   71  194 1    
   143   72   73 2    
   144   72   74 am   BACKBONE|DICT|INTERRES
   145   74   75 1    
   146   74  195 1    
   147   75   76 1    
   148   75   77 1    
   149   75  196 1    
   150   76  197 1    
   151   76  198 1    
   152   76  199 1    
   153   77   78 2    
   154   77   79 am   BACKBONE|DICT|INTERRES
   155   79   80 1    
   156   79  200 1    
   157   80   81 1    
   158   80   82 1    
   159   80  201 1    
   160   81  202 1    
   161   81  203 1    
   162   81  204 1    
   163   82   83 2    
   164   82   84 am   BACKBONE|DICT|INTERRES
   165   84   85 1    
   166   84  205 1    
   167   85   86 1    
   168   85   87 1    
   169   85  206 1    
   170   86  207 1    
   171   86  208 1    
   172   86  209 1    
   173   87   88 2    
   174   87   89 am   BACKBONE|DICT|INTERRES
   175   89   90 1    
   176   89  210 1    
   177   90   91 1    
   178   90   92 1    
   179   90  211 1    
   180   91  212 1    
   181   91  213 1    
   182   91  214 1    
   183   92   93 2    
   184   92   94 am   BACKBONE|DICT|INTERRES
   185   94   95 1    
   186   94  215 1    
   187   95   96 1    
   188   95   97 1    
   189   95  216 1    
   190   96  217 1    
   191   96  218 1    
   192   96  219 1    
   193   97   98 2    
   194   97   99 am   BACKBONE|DICT|INTERRES
   195   99  100 1    
   196   99  220 1    
   197  100  101 1    
   198  100  102 1    
   199  100  221 1    
   200  101  222 1    
   201  101  223 1    
   202  101  224 1    
   203  102  103 2    
   204  102  104 am   BACKBONE|DICT|INTERRES
   205  104  105 1    
   206  104  225 1    
   207  105  106 1    
   208  105  107 1    
   209  105  226 1    
   210  106  227 1    
   211  106  228 1    
   212  106  229 1    
   213  107  108 2    
   214  107  109 am   BACKBONE|DICT|INTERRES
   215  109  110 1    
   216  109  230 1    
   217  110  111 1    
   218  110  112 1    
   219  110  231 1    
   220  111  232 1    
   221  111  233 1    
   222  111  234 1    
   223  112  113 2    
   224  112  114 am   BACKBONE|DICT|INTERRES
   225  114  115 1    
   226  114  235 1    
   227  115  116 1    
   228  115  117 1    
   229  115  236 1    
   230  116  237 1    
   231  116  238 1    
   232  116  239 1    
   233  117  118 2    
   234  117  119 am   BACKBONE|DICT|INTERRES
   235  119  120 1    
   236  119  240 1    
   237  120  121 1    
   238  120  124 1    
   239  120  241 1    
   240  121  122 am   BACKBONE|DICT|INTERRES
   241  121  123 2    
   242  122  242 1    
   243  122  243 1    
   244  124  125 1    
   245  124  244 1    
   246  124  245 1    
   247  125  126 1    
   248  126  246 1    
   249  126  247 1    
@<TRIPOS>SUBSTRUCTURE
     1 UNK         1 GROUP             0       ****    0 ROOT    
