@<TRIPOS>MOLECULE
3R540
247   249    1
SMALL
USER_CHARGES


@<TRIPOS>ATOM
      1 CA          5.7500  -12.8004  -51.3616 C.3       0 UNK        -0.1800 
      2 C           4.9528  -12.3774  -50.1357 C.2       0 UNK         0.5000 
      3 O           4.7859  -11.1805  -49.9015 O.2       0 UNK        -0.5000 
      4 N           4.4680  -13.3570  -49.3591 N.am      1 UNK        -0.5000 
      5 CA          3.6675  -13.1918  -48.1360 C.3       1 UNK         0.1400 
      6 C6          2.2645  -12.5676  -48.3747 C.3       23 UNK        -0.0398 
      7 S7          1.2638  -13.5137  -49.5691 S.3       23 UNK        -0.2404 
      8 C8          0.3465  -14.6082  -48.4451 C.3       23 UNK        -0.0205 
      9 C9         -0.5468  -15.5611  -49.2211 C.ar      23 UNK        -0.0193 
     10 C10        -1.9161  -15.3115  -49.3417 C.ar      23 UNK        -0.1150 
     11 C11        -2.7503  -16.1943  -50.0354 C.ar      23 UNK        -0.0193 
     12 C12        -2.1869  -17.3372  -50.6211 C.ar      23 UNK        -0.1150 
     13 C13        -0.8145  -17.5896  -50.5222 C.ar      23 UNK        -0.0193 
     14 C14        -0.0028  -16.7030  -49.8111 C.ar      23 UNK        -0.1150 
     15 C15        -0.1949  -18.8052  -51.1995 C.3       23 UNK        -0.0205 
     16 S16        -0.7361  -20.3861  -50.4798 S.3       23 UNK        -0.2404 
     17 C17        -0.4137  -20.1421  -48.7007 C.3       23 UNK        -0.0398 
     18 CA         -0.4568  -21.4557  -47.8830 C.3       11 UNK         0.1400 
     19 N          -0.0472  -21.2375  -46.4944 N.am      11 UNK        -0.5000 
     20 C           0.1149  -22.1992  -45.5742 C.2       10 UNK         0.5000 
     21 O          -0.0214  -23.4009  -45.8036 O.2       10 UNK        -0.5000 
     22 CA          0.4169  -21.7347  -44.1397 C.3       10 UNK         0.1400 
     23 CB          1.8844  -21.3047  -43.9978 C.3       10 UNK        -0.1800 
     24 N          -0.4670  -20.6478  -43.7165 N.am      10 UNK        -0.5000 
     25 C          -1.7971  -20.7654  -43.5855 C.2       9 UNK         0.5000 
     26 O          -2.4089  -21.8224  -43.7442 O.2       9 UNK        -0.5000 
     27 CA         -2.5815  -19.4821  -43.2572 C.3       9 UNK         0.1400 
     28 CB         -2.5185  -19.1784  -41.7532 C.3       9 UNK        -0.1800 
     29 N          -2.1203  -18.3182  -44.0169 N.am      9 UNK        -0.5000 
     30 C          -2.1858  -18.2049  -45.3516 C.2       8 UNK         0.5000 
     31 O          -2.6665  -19.0651  -46.0865 O.2       8 UNK        -0.5000 
     32 CA         -1.5617  -16.9465  -45.9799 C.3       8 UNK         0.1400 
     33 CB         -2.4928  -15.7340  -45.8332 C.3       8 UNK        -0.1800 
     34 N          -0.2470  -16.6366  -45.4187 N.am      8 UNK        -0.5000 
     35 C           0.8207  -17.4431  -45.5074 C.2       7 UNK         0.5000 
     36 O           0.8295  -18.5066  -46.1266 O.2       7 UNK        -0.5000 
     37 CA          2.0715  -17.0162  -44.7226 C.3       7 UNK         0.1400 
     38 CB          2.8975  -15.9901  -45.5148 C.3       7 UNK        -0.1800 
     39 N           1.7212  -16.4871  -43.4029 N.am      7 UNK        -0.5000 
     40 C           1.2375  -17.2405  -42.4030 C.2       6 UNK         0.5000 
     41 O           1.1104  -18.4626  -42.4710 O.2       6 UNK        -0.5000 
     42 CA          0.7614  -16.5057  -41.1377 C.3       6 UNK         0.1400 
     43 CB          1.9052  -16.3364  -40.1293 C.3       6 UNK        -0.1800 
     44 N           0.1684  -15.2039  -41.4469 N.am      6 UNK        -0.5000 
     45 C          -1.0354  -15.0632  -42.0214 C.2       5 UNK         0.5000 
     46 O          -1.7613  -16.0129  -42.3115 O.2       5 UNK        -0.5000 
     47 CA         -1.4974  -13.6368  -42.3703 C.3       5 UNK         0.1400 
     48 CB         -2.2943  -13.0306  -41.2061 C.3       5 UNK        -0.1800 
     49 N          -0.4032  -12.7342  -42.7258 N.am      5 UNK        -0.5000 
     50 C           0.4298  -12.8974  -43.7618 C.2       4 UNK         0.5000 
     51 O           0.3670  -13.8495  -44.5423 O.2       4 UNK        -0.5000 
     52 CA          1.5368  -11.8395  -43.9475 C.3       4 UNK         0.1400 
     53 CB          1.3652  -10.5826  -43.0654 C.3       4 UNK        -0.1800 
     54 N           2.8797  -12.3971  -43.7638 N.am      4 UNK        -0.5000 
     55 C           3.3535  -13.0628  -42.6977 C.2       3 UNK         0.5000 
     56 O           2.6617  -13.3572  -41.7219 O.2       3 UNK        -0.5000 
     57 CA          4.8421  -13.4762  -42.7182 C.3       3 UNK         0.1400 
     58 CB          5.0420  -14.9281  -42.2505 C.3       3 UNK        -0.1800 
     59 N           5.4486  -13.3148  -44.0428 N.am      3 UNK        -0.5000 
     60 C           6.2171  -12.2824  -44.4153 C.2       2 UNK         0.5000 
     61 O           6.5491  -11.3659  -43.6629 O.2       2 UNK        -0.5000 
     62 CA          6.6691  -12.2515  -45.8900 C.3       2 UNK         0.1400 
     63 CB          8.0382  -12.9306  -46.0461 C.3       2 UNK        -0.1800 
     64 N           5.7222  -12.8629  -46.8308 N.am      2 UNK        -0.5000 
     65 C           4.4575  -12.4606  -47.0274 C.2       1 UNK         0.5000 
     66 O           3.9250  -11.5634  -46.3726 O.2       1 UNK        -0.5000 
     67 C          -1.8317  -22.1523  -47.9660 C.2       11 UNK         0.5000 
     68 O          -1.9576  -23.1526  -48.6713 O.2       11 UNK        -0.5000 
     69 N          -2.8195  -21.6507  -47.2114 N.am      12 UNK        -0.5000 
     70 CA         -4.1796  -22.1887  -47.1456 C.3       12 UNK         0.1400 
     71 CB         -5.0553  -21.2786  -46.2729 C.3       12 UNK        -0.1800 
     72 C          -4.2667  -23.6498  -46.6746 C.2       12 UNK         0.5000 
     73 O          -5.2046  -24.3415  -47.0665 O.2       12 UNK        -0.5000 
     74 N          -3.2914  -24.1001  -45.8770 N.am      13 UNK        -0.5000 
     75 CA         -3.1239  -25.5003  -45.5068 C.3       13 UNK         0.1400 
     76 CB         -2.4074  -25.5852  -44.1492 C.3       13 UNK        -0.1800 
     77 C          -2.3567  -26.2781  -46.5920 C.2       13 UNK         0.5000 
     78 O          -2.8446  -27.3057  -47.0640 O.2       13 UNK        -0.5000 
     79 N          -1.1600  -25.7901  -46.9461 N.am      14 UNK        -0.5000 
     80 CA         -0.1821  -26.5037  -47.7675 C.3       14 UNK         0.1400 
     81 CB          1.1855  -25.8166  -47.6316 C.3       14 UNK        -0.1800 
     82 C          -0.5593  -26.6402  -49.2521 C.2       14 UNK         0.5000 
     83 O          -0.3327  -27.7021  -49.8354 O.2       14 UNK        -0.5000 
     84 N          -1.0990  -25.5735  -49.8541 N.am      15 UNK        -0.5000 
     85 CA         -1.3786  -25.4934  -51.2871 C.3       15 UNK         0.1400 
     86 CB         -1.2585  -24.0348  -51.7500 C.3       15 UNK        -0.1800 
     87 C          -2.7459  -26.1150  -51.6142 C.2       15 UNK         0.5000 
     88 O          -3.7207  -25.3967  -51.8549 O.2       15 UNK        -0.5000 
     89 N          -2.7872  -27.4547  -51.5698 N.am      16 UNK        -0.5000 
     90 CA         -3.9137  -28.3357  -51.9098 C.3       16 UNK         0.1400 
     91 CB         -4.2063  -28.2557  -53.4229 C.3       16 UNK        -0.1800 
     92 C          -5.1810  -28.0999  -51.0596 C.2       16 UNK         0.5000 
     93 O          -6.2843  -28.4177  -51.5061 O.2       16 UNK        -0.5000 
     94 N          -4.9991  -27.5183  -49.8640 N.am      17 UNK        -0.5000 
     95 CA         -6.0323  -27.0260  -48.9466 C.3       17 UNK         0.1400 
     96 CB         -6.8621  -28.1948  -48.3753 C.3       17 UNK        -0.1800 
     97 C          -6.9147  -25.9048  -49.5515 C.2       17 UNK         0.5000 
     98 O          -8.0405  -25.7041  -49.0914 O.2       17 UNK        -0.5000 
     99 N          -6.4070  -25.2113  -50.5821 N.am      18 UNK        -0.5000 
    100 CA        -7.1503  -24.2448  -51.3945 C.3       18 UNK         0.1400 
    101 CB        -7.4474  -24.8934  -52.7581 C.3       18 UNK        -0.1800 
    102 C         -6.4004  -22.9129  -51.5776 C.2       18 UNK         0.5000 
    103 O         -6.8882  -22.0468  -52.3066 O.2       18 UNK        -0.5000 
    104 N         -5.2147  -22.7751  -50.9628 N.am      19 UNK        -0.5000 
    105 CA        -4.3113  -21.6155  -51.0323 C.3       19 UNK         0.1400 
    106 CB        -4.9785  -20.3726  -50.4031 C.3       19 UNK        -0.1800 
    107 C         -3.7911  -21.3127  -52.4561 C.2       19 UNK         0.5000 
    108 O         -3.3646  -20.1883  -52.7170 O.2       19 UNK        -0.5000 
    109 N         -3.9054  -22.2858  -53.3767 N.am      20 UNK        -0.5000 
    110 CA        -3.7320  -22.1465  -54.8314 C.3       20 UNK         0.1400 
    111 CB        -2.2397  -21.9742  -55.1841 C.3       20 UNK        -0.1800 
    112 C         -4.6155  -21.0315  -55.4467 C.2       20 UNK         0.5000 
    113 O         -4.2214  -20.4066  -56.4337 O.2       20 UNK        -0.5000 
    114 N         -5.7660  -20.7566  -54.8070 N.am      21 UNK        -0.5000 
    115 CA        -6.6711  -19.6232  -55.0381 C.3       21 UNK         0.1400 
    116 CB        -7.3577  -19.7460  -56.4140 C.3       21 UNK        -0.1800 
    117 C         -6.0155  -18.2360  -54.8238 C.2       21 UNK         0.5000 
    118 O         -6.5588  -17.2313  -55.2863 O.2       21 UNK        -0.5000 
    119 N         -4.8671  -18.2015  -54.1318 N.am      22 UNK        -0.5000 
    120 CA        -4.0210  -17.0266  -53.8641 C.3       22 UNK         0.1400 
    121 C         -3.4029  -16.3747  -55.1391 C.2       22 UNK         0.5000 
    122 N         -3.2890  -17.0911  -56.2524 N.am      22 UNK        -0.7600 
    123 O         -2.9931  -15.2170  -55.1195 O.2       22 UNK        -0.5000 
    124 C124       -4.6838  -16.0009  -52.9019 C.3       23 UNK        -0.0398 
    125 S125       -5.2365  -16.7663  -51.3353 S.3       23 UNK        -0.2404 
    126 C126       -4.2477  -15.8786  -50.0813 C.3       23 UNK        -0.0205 
    127 H127        5.8177  -13.8852  -51.4480 H         1 UNK         0.0600 
    128 H128        6.7622  -12.3998  -51.3074 H         1 UNK         0.0600 
    129 H129        5.2780  -12.4167  -52.2661 H         1 UNK         0.0600 
    130 H130        4.6420  -14.3150  -49.6292 H         1 UNK         0.3000 
    131 H131        3.5064  -14.2002  -47.7552 H         1 UNK         0.0600 
    132 H132        2.3574  -11.5452  -48.7438 H         1 UNK         0.0800 
    133 H133        1.7082  -12.4977  -47.4381 H         1 UNK         0.0800 
    134 H134        1.0482  -15.1811  -47.8383 H         1 UNK         0.0800 
    135 H135       -0.2440  -14.0082  -47.7510 H         1 UNK         0.0800 
    136 H136       -2.3377  -14.4295  -48.8801 H         1 UNK         0.1150 
    137 H137       -2.8055  -18.0442  -51.1528 H         1 UNK         0.1150 
    138 H138        1.0578  -16.8928  -49.7237 H         1 UNK         0.1150 
    139 H139       -0.4639  -18.7961  -52.2568 H         1 UNK         0.0800 
    140 H140        0.8943  -18.7572  -51.1607 H         1 UNK         0.0800 
    141 H141        0.5684  -19.6786  -48.5974 H         1 UNK         0.0800 
    142 H142       -1.1332  -19.4209  -48.3103 H         1 UNK         0.0800 
    143 H143        0.2746  -22.1399  -48.3186 H         1 UNK         0.0600 
    144 H144        0.1137  -20.2708  -46.2230 H         1 UNK         0.3000 
    145 H145        0.2469  -22.5830  -43.4733 H         1 UNK         0.0600 
    146 H146        2.1230  -21.0572  -42.9633 H         1 UNK         0.0600 
    147 H147        2.5576  -22.1065  -44.3037 H         1 UNK         0.0600 
    148 H148        2.1120  -20.4322  -44.6104 H         1 UNK         0.0600 
    149 H149       -0.0273  -19.7560  -43.5132 H         1 UNK         0.3000 
    150 H150       -3.6260  -19.6563  -43.5228 H         1 UNK         0.0600 
    151 H151       -2.8774  -20.0260  -41.1680 H         1 UNK         0.0600 
    152 H152       -3.1409  -18.3207  -41.4978 H         1 UNK         0.0600 
    153 H153       -1.5005  -18.9624  -41.4288 H         1 UNK         0.0600 
    154 H154       -1.7649  -17.5358  -43.4746 H         1 UNK         0.3000 
    155 H155       -1.4270  -17.1457  -47.0442 H         1 UNK         0.0600 
    156 H156       -3.4374  -15.9087  -46.3495 H         1 UNK         0.0600 
    157 H157       -2.0480  -14.8367  -46.2624 H         1 UNK         0.0600 
    158 H158       -2.7245  -15.5245  -44.7896 H         1 UNK         0.0600 
    159 H159       -0.1509  -15.7545  -44.9262 H         1 UNK         0.3000 
    160 H160        2.6905  -17.9048  -44.5815 H         1 UNK         0.0600 
    161 H161        2.3776  -15.0393  -45.6235 H         1 UNK         0.0600 
    162 H162        3.1139  -16.3621  -46.5171 H         1 UNK         0.0600 
    163 H163        3.8549  -15.7977  -45.0347 H         1 UNK         0.0600 
    164 H164        1.7257  -15.4833  -43.2921 H         1 UNK         0.3000 
    165 H165       -0.0029  -17.1262  -40.6651 H         1 UNK         0.0600 
    166 H166        1.5520  -15.8757  -39.2067 H         1 UNK         0.0600 
    167 H167        2.3392  -17.3019  -39.8662 H         1 UNK         0.0600 
    168 H168        2.7050  -15.7158  -40.5276 H         1 UNK         0.0600 
    169 H169        0.7435  -14.3852  -41.2853 H         1 UNK         0.3000 
    170 H170       -2.1593  -13.7084  -43.2354 H         1 UNK         0.0600 
    171 H171       -3.1343  -13.6708  -40.9329 H         1 UNK         0.0600 
    172 H172       -1.6750  -12.9041  -40.3171 H         1 UNK         0.0600 
    173 H173       -2.7038  -12.0562  -41.4727 H         1 UNK         0.0600 
    174 H174       -0.2608  -11.9388  -42.1206 H         1 UNK         0.3000 
    175 H175        1.4734  -11.5205  -44.9885 H         1 UNK         0.0600 
    176 H176        1.4584  -10.8071  -42.0022 H         1 UNK         0.0600 
    177 H177        2.1216   -9.8361  -43.3083 H         1 UNK         0.0600 
    178 H178        0.3937  -10.1138  -43.2276 H         1 UNK         0.0600 
    179 H179        3.5168  -12.2029  -44.5287 H         1 UNK         0.3000 
    180 H180        5.3516  -12.8323  -41.9988 H         1 UNK         0.0600 
    181 H181        4.4166  -15.6297  -42.8004 H         1 UNK         0.0600 
    182 H182        4.7985  -15.0288  -41.1931 H         1 UNK         0.0600 
    183 H183        6.0797  -15.2414  -42.3662 H         1 UNK         0.0600 
    184 H184        5.2341  -14.0213  -44.7305 H         1 UNK         0.3000 
    185 H185        6.7763  -11.2022  -46.1725 H         1 UNK         0.0600 
    186 H186        8.7757  -12.4823  -45.3788 H         1 UNK         0.0600 
    187 H187        7.9885  -13.9949  -45.8127 H         1 UNK         0.0600 
    188 H188        8.4175  -12.8261  -47.0629 H         1 UNK         0.0600 
    189 H189        6.0880  -13.5967  -47.4203 H         1 UNK         0.3000 
    190 H190       -2.6502  -20.7982  -46.6807 H         1 UNK         0.3000 
    191 H191       -4.5807  -22.1753  -48.1573 H         1 UNK         0.0600 
    192 H192       -5.0977  -20.2673  -46.6776 H         1 UNK         0.0600 
    193 H193       -6.0795  -21.6504  -46.2224 H         1 UNK         0.0600 
    194 H194       -4.6763  -21.2174  -45.2527 H         1 UNK         0.0600 
    195 H195       -2.5693  -23.4550  -45.5837 H         1 UNK         0.3000 
    196 H196       -4.1056  -25.9649  -45.3911 H         1 UNK         0.0600 
    197 H197       -2.2653  -26.6234  -43.8470 H         1 UNK         0.0600 
    198 H198       -2.9898  -25.0952  -43.3686 H         1 UNK         0.0600 
    199 H199       -1.4252  -25.1122  -44.1744 H         1 UNK         0.0600 
    200 H200       -0.8395  -24.9190  -46.5294 H         1 UNK         0.3000 
    201 H201       -0.0872  -27.5139  -47.3634 H         1 UNK         0.0600 
    202 H202        1.5156  -25.7973  -46.5928 H         1 UNK         0.0600 
    203 H203        1.1542  -24.7871  -47.9911 H         1 UNK         0.0600 
    204 H204        1.9489  -26.3432  -48.2058 H         1 UNK         0.0600 
    205 H205       -1.3259  -24.7460  -49.3045 H         1 UNK         0.3000 
    206 H206       -0.6215  -26.0595  -51.8344 H         1 UNK         0.0600 
    207 H207       -0.2670  -23.6324  -51.5427 H         1 UNK         0.0600 
    208 H208       -1.4261  -23.9567  -52.8231 H         1 UNK         0.0600 
    209 H209       -1.9854  -23.3955  -51.2569 H         1 UNK         0.0600 
    210 H210       -1.9410  -27.9259  -51.2687 H         1 UNK         0.3000 
    211 H211       -3.5857  -29.3519  -51.6873 H         1 UNK         0.0600 
    212 H212       -4.6052  -27.2807  -53.7053 H         1 UNK         0.0600 
    213 H213       -4.9370  -29.0075  -53.7234 H         1 UNK         0.0600 
    214 H214       -3.3045  -28.4319  -54.0092 H         1 UNK         0.0600 
    215 H215       -4.0482  -27.3165  -49.5871 H         1 UNK         0.3000 
    216 H216       -5.4920  -26.5844  -48.1119 H         1 UNK         0.0600 
    217 H217       -7.5113  -27.8543  -47.5679 H         1 UNK         0.0600 
    218 H218       -6.2173  -28.9714  -47.9638 H         1 UNK         0.0600 
    219 H219       -7.4981  -28.6516  -49.1338 H         1 UNK         0.0600 
    220 H220       -5.4797  -25.4500  -50.9214 H         1 UNK         0.3000 
    221 H221       -8.0999  -23.9939  -50.9185 H         1 UNK         0.0600 
    222 H222       -6.5286  -25.1391  -53.2924 H         1 UNK         0.0600 
    223 H223       -8.0185  -25.8144  -52.6384 H         1 UNK         0.0600 
    224 H224       -8.0339  -24.2301  -53.3951 H         1 UNK         0.0600 
    225 H225       -4.8767  -23.5598  -50.4237 H         1 UNK         0.3000 
    226 H226       -3.4427  -21.8630  -50.4272 H         1 UNK         0.0600 
    227 H227       -5.5025  -20.6082  -49.4785 H         1 UNK         0.0600 
    228 H228       -4.2332  -19.6138  -50.1655 H         1 UNK         0.0600 
    229 H229       -5.7025  -19.9175  -51.0801 H         1 UNK         0.0600 
    230 H230       -4.2424  -23.1848  -53.0585 H         1 UNK         0.3000 
    231 H231       -4.0735  -23.0827  -55.2749 H         1 UNK         0.0600 
    232 H232       -1.8328  -21.0461  -54.7815 H         1 UNK         0.0600 
    233 H233       -2.0898  -21.9554  -56.2641 H         1 UNK         0.0600 
    234 H234       -1.6427  -22.7980  -54.7968 H         1 UNK         0.0600 
    235 H235       -5.9981  -21.3146  -53.9906 H         1 UNK         0.3000 
    236 H236       -7.4465  -19.7051  -54.2751 H         1 UNK         0.0600 
    237 H237       -7.8179  -20.7261  -56.5389 H         1 UNK         0.0600 
    238 H238       -8.1478  -19.0026  -56.5254 H         1 UNK         0.0600 
    239 H239       -6.6539  -19.5979  -57.2333 H         1 UNK         0.0600 
    240 H240       -4.4896  -19.0708  -53.7658 H         1 UNK         0.3000 
    241 H241       -3.1516  -17.4268  -53.3443 H         1 UNK         0.0600 
    242 H242       -2.8816  -16.6725  -57.0736 H         1 UNK         0.3800 
    243 H243       -3.6118  -18.0485  -56.2827 H         1 UNK         0.3800 
    244 H244       -3.9874  -15.1934  -52.6708 H         1 UNK         0.0800 
    245 H245       -5.5443  -15.5313  -53.3798 H         1 UNK         0.0800 
    246 H246       -4.3927  -14.8068  -50.2262 H         1 UNK         0.0800 
    247 H247       -4.6659  -16.1125  -49.1015 H         1 UNK         0.0800 
@<TRIPOS>BOND
     1    1    2 1    
     2    1  127 1    
     3    1  128 1    
     4    1  129 1    
     5    2    3 2    
     6    2    4 am   BACKBONE|DICT|INTERRES
     7    4    5 1    
     8    4  130 1    
     9    5    6 1    
    10    5   65 1    
    11    5  131 1    
    12    6    7 1    
    13    6  132 1    
    14    6  133 1    
    15    7    8 1    
    16    8    9 1    
    17    8  134 1    
    18    8  135 1    
    19    9   10 ar   
    20    9   14 ar   
    21   10   11 ar   
    22   10  136 1    
    23   11   12 ar   
    24   11  126 1    
    25   12   13 ar   
    26   12  137 1    
    27   13   14 ar   
    28   13   15 1    
    29   14  138 1    
    30   15   16 1    
    31   15  139 1    
    32   15  140 1    
    33   16   17 1    
    34   17   18 1    
    35   17  141 1    
    36   17  142 1    
    37   18   19 1    
    38   18   67 1    
    39   18  143 1    
    40   19   20 am   BACKBONE|DICT|INTERRES
    41   19  144 1    
    42   20   21 2    
    43   20   22 1    
    44   22   23 1    
    45   22   24 1    
    46   22  145 1    
    47   23  146 1    
    48   23  147 1    
    49   23  148 1    
    50   24   25 am   BACKBONE|DICT|INTERRES
    51   24  149 1    
    52   25   26 2    
    53   25   27 1    
    54   27   28 1    
    55   27   29 1    
    56   27  150 1    
    57   28  151 1    
    58   28  152 1    
    59   28  153 1    
    60   29   30 am   BACKBONE|DICT|INTERRES
    61   29  154 1    
    62   30   31 2    
    63   30   32 1    
    64   32   33 1    
    65   32   34 1    
    66   32  155 1    
    67   33  156 1    
    68   33  157 1    
    69   33  158 1    
    70   34   35 am   BACKBONE|DICT|INTERRES
    71   34  159 1    
    72   35   36 2    
    73   35   37 1    
    74   37   38 1    
    75   37   39 1    
    76   37  160 1    
    77   38  161 1    
    78   38  162 1    
    79   38  163 1    
    80   39   40 am   BACKBONE|DICT|INTERRES
    81   39  164 1    
    82   40   41 2    
    83   40   42 1    
    84   42   43 1    
    85   42   44 1    
    86   42  165 1    
    87   43  166 1    
    88   43  167 1    
    89   43  168 1    
    90   44   45 am   BACKBONE|DICT|INTERRES
    91   44  169 1    
    92   45   46 2    
    93   45   47 1    
    94   47   48 1    
    95   47   49 1    
    96   47  170 1    
    97   48  171 1    
    98   48  172 1    
    99   48  173 1    
   100   49   50 am   BACKBONE|DICT|INTERRES
   101   49  174 1    
   102   50   51 2    
   103   50   52 1    
   104   52   53 1    
   105   52   54 1    
   106   52  175 1    
   107   53  176 1    
   108   53  177 1    
   109   53  178 1    
   110   54   55 am   BACKBONE|DICT|INTERRES
   111   54  179 1    
   112   55   56 2    
   113   55   57 1    
   114   57   58 1    
   115   57   59 1    
   116   57  180 1    
   117   58  181 1    
   118   58  182 1    
   119   58  183 1    
   120   59   60 am   BACKBONE|DICT|INTERRES
   121   59  184 1    
   122   60   61 2    
   123   60   62 1    
   124   62   63 1    
   125   62   64 1    
   126   62  185 1    
   127   63  186 1    
   128   63  187 1    
   129   63  188 1    
   130   64   65 am   BACKBONE|DICT|INTERRES
   131   64  189 1    
   132   65   66 2    
   133   67   68 2    
   134   67   69 am   BACKBONE|DICT|INTERRES
   135   69   70 1    
   136   69  190 1    
   137   70   71 1    
   138   70   72 1    
   139   70  191 1    
   140   71  192 1    
   141   71  193 1    
   142   71  194 1    
   143   72   73 2    
   144   72   74 am   BACKBONE|DICT|INTERRES
   145   74   75 1    
   146   74  195 1    
   147   75   76 1    
   148   75   77 1    
   149   75  196 1    
   150   76  197 1    
   151   76  198 1    
   152   76  199 1    
   153   77   78 2    
   154   77   79 am   BACKBONE|DICT|INTERRES
   155   79   80 1    
   156   79  200 1    
   157   80   81 1    
   158   80   82 1    
   159   80  201 1    
   160   81  202 1    
   161   81  203 1    
   162   81  204 1    
   163   82   83 2    
   164   82   84 am   BACKBONE|DICT|INTERRES
   165   84   85 1    
   166   84  205 1    
   167   85   86 1    
   168   85   87 1    
   169   85  206 1    
   170   86  207 1    
   171   86  208 1    
   172   86  209 1    
   173   87   88 2    
   174   87   89 am   BACKBONE|DICT|INTERRES
   175   89   90 1    
   176   89  210 1    
   177   90   91 1    
   178   90   92 1    
   179   90  211 1    
   180   91  212 1    
   181   91  213 1    
   182   91  214 1    
   183   92   93 2    
   184   92   94 am   BACKBONE|DICT|INTERRES
   185   94   95 1    
   186   94  215 1    
   187   95   96 1    
   188   95   97 1    
   189   95  216 1    
   190   96  217 1    
   191   96  218 1    
   192   96  219 1    
   193   97   98 2    
   194   97   99 am   BACKBONE|DICT|INTERRES
   195   99  100 1    
   196   99  220 1    
   197  100  101 1    
   198  100  102 1    
   199  100  221 1    
   200  101  222 1    
   201  101  223 1    
   202  101  224 1    
   203  102  103 2    
   204  102  104 am   BACKBONE|DICT|INTERRES
   205  104  105 1    
   206  104  225 1    
   207  105  106 1    
   208  105  107 1    
   209  105  226 1    
   210  106  227 1    
   211  106  228 1    
   212  106  229 1    
   213  107  108 2    
   214  107  109 am   BACKBONE|DICT|INTERRES
   215  109  110 1    
   216  109  230 1    
   217  110  111 1    
   218  110  112 1    
   219  110  231 1    
   220  111  232 1    
   221  111  233 1    
   222  111  234 1    
   223  112  113 2    
   224  112  114 am   BACKBONE|DICT|INTERRES
   225  114  115 1    
   226  114  235 1    
   227  115  116 1    
   228  115  117 1    
   229  115  236 1    
   230  116  237 1    
   231  116  238 1    
   232  116  239 1    
   233  117  118 2    
   234  117  119 am   BACKBONE|DICT|INTERRES
   235  119  120 1    
   236  119  240 1    
   237  120  121 1    
   238  120  124 1    
   239  120  241 1    
   240  121  122 am   BACKBONE|DICT|INTERRES
   241  121  123 2    
   242  122  242 1    
   243  122  243 1    
   244  124  125 1    
   245  124  244 1    
   246  124  245 1    
   247  125  126 1    
   248  126  246 1    
   249  126  247 1    
@<TRIPOS>SUBSTRUCTURE
     1 UNK         1 GROUP             0       ****    0 ROOT    
