@<TRIPOS>MOLECULE
3R540
247   249    1
SMALL
USER_CHARGES


@<TRIPOS>ATOM
      1 CA         -0.1440  -11.5630  -51.3605 C.3       0 UNK        -0.1800 
      2 C           0.6487  -11.8108  -50.0857 C.2       0 UNK         0.5000 
      3 O           0.5192  -11.0502  -49.1264 O.2       0 UNK        -0.5000 
      4 N           1.4685  -12.8710  -50.0703 N.am      1 UNK        -0.5000 
      5 CA          2.3857  -13.2293  -48.9770 C.3       1 UNK         0.1400 
      6 C6          3.3539  -14.3945  -49.3312 C.3       23 UNK        -0.0398 
      7 S7          3.8930  -14.4111  -51.0826 S.3       23 UNK        -0.2404 
      8 C8          3.3010  -16.0284  -51.6989 C.3       23 UNK        -0.0205 
      9 C9          1.8699  -16.3575  -51.2883 C.ar      23 UNK        -0.0193 
     10 C10         0.7909  -15.6330  -51.8025 C.ar      23 UNK        -0.1150 
     11 C11        -0.5160  -15.9184  -51.3913 C.ar      23 UNK        -0.0193 
     12 C12        -0.7397  -16.9553  -50.4792 C.ar      23 UNK        -0.1150 
     13 C13         0.3301  -17.6895  -49.9601 C.ar      23 UNK        -0.0193 
     14 C14         1.6303  -17.3839  -50.3700 C.ar      23 UNK        -0.1150 
     15 C15         0.1003  -18.7553  -48.8969 C.3       23 UNK        -0.0205 
     16 S16         0.6937  -20.4033  -49.4112 S.3       23 UNK        -0.2404 
     17 C17         1.0328  -21.1719  -47.7823 C.3       23 UNK        -0.0398 
     18 CA          0.2054  -22.4245  -47.3804 C.3       11 UNK         0.1400 
     19 N           0.4856  -22.7625  -45.9756 N.am      11 UNK        -0.5000 
     20 C          -0.1938  -23.5362  -45.1152 C.2       10 UNK         0.5000 
     21 O          -1.2739  -24.0685  -45.3603 O.2       10 UNK        -0.5000 
     22 CA          0.4528  -23.7760  -43.7345 C.3       10 UNK         0.1400 
     23 CB          0.9115  -25.2384  -43.6259 C.3       10 UNK        -0.1800 
     24 N           1.6122  -22.9092  -43.4896 N.am      10 UNK        -0.5000 
     25 C           1.6318  -21.6437  -43.0448 C.2       9 UNK         0.5000 
     26 O           2.6883  -21.0158  -42.9927 O.2       9 UNK        -0.5000 
     27 CA          0.3419  -20.9583  -42.5445 C.3       9 UNK         0.1400 
     28 CB          0.3061  -20.9372  -41.0091 C.3       9 UNK        -0.1800 
     29 N           0.2913  -19.5856  -43.0357 N.am      9 UNK        -0.5000 
     30 C          -0.2293  -19.2398  -44.2186 C.2       8 UNK         0.5000 
     31 O          -0.7950  -20.0278  -44.9744 O.2       8 UNK        -0.5000 
     32 CA         -0.0895  -17.7684  -44.6342 C.3       8 UNK         0.1400 
     33 CB         -1.1179  -16.9165  -43.8752 C.3       8 UNK        -0.1800 
     34 N           1.2582  -17.2443  -44.4090 N.am      8 UNK        -0.5000 
     35 C           2.3713  -17.6888  -45.0144 C.2       7 UNK         0.5000 
     36 O           2.3763  -18.5674  -45.8755 O.2       7 UNK        -0.5000 
     37 CA          3.7068  -17.0532  -44.5914 C.3       7 UNK         0.1400 
     38 CB          4.0329  -15.8406  -45.4726 C.3       7 UNK        -0.1800 
     39 N           3.6787  -16.6344  -43.1910 N.am      7 UNK        -0.5000 
     40 C           4.1520  -17.3649  -42.1721 C.2       6 UNK         0.5000 
     41 O           4.7698  -18.4197  -42.3152 O.2       6 UNK        -0.5000 
     42 CA          3.9060  -16.8327  -40.7457 C.3       6 UNK         0.1400 
     43 CB          5.1638  -16.1307  -40.2106 C.3       6 UNK        -0.1800 
     44 N           2.7748  -15.9093  -40.6470 N.am      6 UNK        -0.5000 
     45 C           1.4876  -16.2428  -40.8139 C.2       5 UNK         0.5000 
     46 O           1.0988  -17.3859  -41.0577 O.2       5 UNK        -0.5000 
     47 CA          0.4730  -15.0837  -40.7515 C.3       5 UNK         0.1400 
     48 CB         -0.0126  -14.8714  -39.3105 C.3       5 UNK        -0.1800 
     49 N           0.9901  -13.8151  -41.2814 N.am      5 UNK        -0.5000 
     50 C           1.4030  -13.6291  -42.5420 C.2       4 UNK         0.5000 
     51 O           1.4458  -14.5309  -43.3824 O.2       4 UNK        -0.5000 
     52 CA          1.8780  -12.2190  -42.9225 C.3       4 UNK         0.1400 
     53 CB          3.3768  -12.2277  -43.2616 C.3       4 UNK        -0.1800 
     54 N           1.1245  -11.7776  -44.0904 N.am      4 UNK        -0.5000 
     55 C           0.0095  -11.0333  -44.0422 C.2       3 UNK         0.5000 
     56 O          -0.4062  -10.4918  -43.0170 O.2       3 UNK        -0.5000 
     57 CA         -0.8037  -10.8979  -45.3491 C.3       3 UNK         0.1400 
     58 CB         -0.3812   -9.6392  -46.1205 C.3       3 UNK        -0.1800 
     59 N          -0.6617  -12.0651  -46.2209 N.am      3 UNK        -0.5000 
     60 C          -1.0440  -13.3070  -45.8892 C.2       2 UNK         0.5000 
     61 O          -1.7820  -13.5433  -44.9326 O.2       2 UNK        -0.5000 
     62 CA         -0.4881  -14.4858  -46.7200 C.3       2 UNK         0.1400 
     63 CB         -1.6217  -15.3451  -47.3033 C.3       2 UNK        -0.1800 
     64 N           0.4321  -14.1198  -47.7991 N.am      2 UNK        -0.5000 
     65 C           1.6350  -13.5400  -47.6664 C.2       1 UNK         0.5000 
     66 O           2.1206  -13.2042  -46.5869 O.2       1 UNK        -0.5000 
     67 C          -1.2922  -22.2997  -47.7375 C.2       11 UNK         0.5000 
     68 O          -1.7574  -23.0008  -48.6360 O.2       11 UNK        -0.5000 
     69 N          -2.0206  -21.4375  -47.0175 N.am      12 UNK        -0.5000 
     70 CA         -3.4328  -21.1417  -47.2570 C.3       12 UNK         0.1400 
     71 CB         -3.8661  -19.9719  -46.3613 C.3       12 UNK        -0.1800 
     72 C          -4.3641  -22.3543  -47.0707 C.2       12 UNK         0.5000 
     73 O          -5.3262  -22.5010  -47.8262 O.2       12 UNK        -0.5000 
     74 N          -4.0459  -23.2041  -46.0858 N.am      13 UNK        -0.5000 
     75 CA         -4.7616  -24.4442  -45.7978 C.3       13 UNK         0.1400 
     76 CB         -4.5630  -24.8157  -44.3201 C.3       13 UNK        -0.1800 
     77 C          -4.2955  -25.5879  -46.7141 C.2       13 UNK         0.5000 
     78 O          -5.1265  -26.3468  -47.2131 O.2       13 UNK        -0.5000 
     79 N          -2.9752  -25.6880  -46.9156 N.am      14 UNK        -0.5000 
     80 CA         -2.3163  -26.7337  -47.6953 C.3       14 UNK         0.1400 
     81 CB         -0.7963  -26.6317  -47.4929 C.3       14 UNK        -0.1800 
     82 C          -2.6682  -26.6895  -49.1911 C.2       14 UNK         0.5000 
     83 O          -2.9190  -27.7378  -49.7890 O.2       14 UNK        -0.5000 
     84 N          -2.6958  -25.4830  -49.7708 N.am      15 UNK        -0.5000 
     85 CA         -2.9932  -25.2495  -51.1800 C.3       15 UNK         0.1400 
     86 CB         -2.2938  -23.9617  -51.6326 C.3       15 UNK        -0.1800 
     87 C          -4.5129  -25.2322  -51.4272 C.2       15 UNK         0.5000 
     88 O          -5.1065  -24.1673  -51.6254 O.2       15 UNK        -0.5000 
     89 N          -5.1069  -26.4330  -51.3815 N.am      16 UNK        -0.5000 
     90 CA         -6.5057  -26.7670  -51.6829 C.3       16 UNK         0.1400 
     91 CB         -6.8105  -26.4788  -53.1680 C.3       16 UNK        -0.1800 
     92 C          -7.5421  -26.1122  -50.7446 C.2       16 UNK         0.5000 
     93 O          -8.7189  -26.0379  -51.1012 O.2       16 UNK        -0.5000 
     94 N          -7.0890  -25.6339  -49.5756 N.am      17 UNK        -0.5000 
     95 CA         -7.8375  -24.8564  -48.5802 C.3       17 UNK         0.1400 
     96 CB         -8.9130  -25.7279  -47.8996 C.3       17 UNK        -0.1800 
     97 C          -8.3979  -23.5238  -49.1253 C.2       17 UNK         0.5000 
     98 O          -9.3671  -22.9969  -48.5762 O.2       17 UNK        -0.5000 
     99 N          -7.7848  -23.0088  -50.1982 N.am      18 UNK        -0.5000 
    100 CA        -8.2207  -21.8216  -50.9306 C.3       18 UNK         0.1400 
    101 CB        -8.9692  -22.2797  -52.1965 C.3       18 UNK        -0.1800 
    102 C         -7.0431  -20.8933  -51.2783 C.2       18 UNK         0.5000 
    103 O         -7.2417  -19.9334  -52.0247 O.2       18 UNK        -0.5000 
    104 N         -5.8444  -21.1957  -50.7537 N.am      19 UNK        -0.5000 
    105 CA        -4.5683  -20.5316  -51.0368 C.3       19 UNK         0.1400 
    106 CB        -4.5448  -19.1084  -50.4398 C.3       19 UNK        -0.1800 
    107 C         -4.2057  -20.5616  -52.5361 C.2       19 UNK         0.5000 
    108 O         -3.7631  -19.5531  -53.0868 O.2       19 UNK        -0.5000 
    109 N         -4.3923  -21.7275  -53.1748 N.am      20 UNK        -0.5000 
    110 CA        -4.1853  -21.9479  -54.6128 C.3       20 UNK         0.1400 
    111 CB        -4.6042  -23.3828  -54.9675 C.3       20 UNK        -0.1800 
    112 C         -2.7531  -21.6531  -55.1103 C.2       20 UNK         0.5000 
    113 O         -2.5712  -21.3185  -56.2819 O.2       20 UNK        -0.5000 
    114 N         -1.7728  -21.7195  -54.1980 N.am      21 UNK        -0.5000 
    115 CA        -0.3731  -21.3383  -54.3992 C.3       21 UNK         0.1400 
    116 CB         0.4218  -21.7126  -53.1393 C.3       21 UNK        -0.1800 
    117 C         -0.1730  -19.8461  -54.7399 C.2       21 UNK         0.5000 
    118 O          0.8637  -19.4937  -55.3036 O.2       21 UNK        -0.5000 
    119 N         -1.1678  -19.0061  -54.4226 N.am      22 UNK        -0.5000 
    120 CA        -1.2468  -17.5995  -54.8390 C.3       22 UNK         0.1400 
    121 C         -1.4890  -17.3990  -56.3680 C.2       22 UNK         0.5000 
    122 N         -1.9102  -18.4122  -57.1190 N.am      22 UNK        -0.7600 
    123 O         -1.2795  -16.3075  -56.8894 O.2       22 UNK        -0.5000 
    124 C124       -2.3026  -16.8379  -53.9945 C.3       23 UNK        -0.0398 
    125 S125       -1.8588  -15.0941  -53.6995 S.3       23 UNK        -0.2404 
    126 C126       -1.6843  -15.0757  -51.8872 C.3       23 UNK        -0.0205 
    127 H127       -1.2125  -11.6136  -51.1547 H         1 UNK         0.0600 
    128 H128        0.0804  -10.5715  -51.7519 H         1 UNK         0.0600 
    129 H129        0.0926  -12.2927  -52.1350 H         1 UNK         0.0600 
    130 H130        1.5490  -13.4522  -50.8926 H         1 UNK         0.3000 
    131 H131        2.9965  -12.3433  -48.7908 H         1 UNK         0.0600 
    132 H132        2.9207  -15.3611  -49.0763 H         1 UNK         0.0800 
    133 H133        4.2477  -14.3190  -48.7099 H         1 UNK         0.0800 
    134 H134        3.3702  -16.0371  -52.7875 H         1 UNK         0.0800 
    135 H135        3.9849  -16.8027  -51.3479 H         1 UNK         0.0800 
    136 H136        0.9690  -14.8364  -52.5112 H         1 UNK         0.1150 
    137 H137       -1.7453  -17.1687  -50.1469 H         1 UNK         0.1150 
    138 H138        2.4596  -17.9397  -49.9550 H         1 UNK         0.1150 
    139 H139        0.6256  -18.4312  -47.9982 H         1 UNK         0.0800 
    140 H140       -0.9552  -18.8275  -48.6296 H         1 UNK         0.0800 
    141 H141        0.9082  -20.4116  -47.0117 H         1 UNK         0.0800 
    142 H142        2.0948  -21.4221  -47.7609 H         1 UNK         0.0800 
    143 H143        0.5837  -23.2620  -47.9692 H         1 UNK         0.0600 
    144 H144        1.3496  -22.3800  -45.6221 H         1 UNK         0.3000 
    145 H145       -0.3068  -23.6229  -42.9673 H         1 UNK         0.0600 
    146 H146        1.3380  -25.4465  -42.6445 H         1 UNK         0.0600 
    147 H147        0.0739  -25.9236  -43.7646 H         1 UNK         0.0600 
    148 H148        1.6628  -25.4837  -44.3777 H         1 UNK         0.0600 
    149 H149        2.4995  -23.3167  -43.7465 H         1 UNK         0.3000 
    150 H150       -0.5489  -21.4783  -42.8944 H         1 UNK         0.0600 
    151 H151        0.3212  -21.9499  -40.6044 H         1 UNK         0.0600 
    152 H152       -0.5991  -20.4525  -40.6430 H         1 UNK         0.0600 
    153 H153        1.1613  -20.4022  -40.5935 H         1 UNK         0.0600 
    154 H154        0.7540  -18.8799  -42.4717 H         1 UNK         0.3000 
    155 H155       -0.2986  -17.6935  -45.7028 H         1 UNK         0.0600 
    156 H156       -2.1309  -17.1508  -44.2044 H         1 UNK         0.0600 
    157 H157       -0.9592  -15.8526  -44.0352 H         1 UNK         0.0600 
    158 H158       -1.0778  -17.0947  -42.8007 H         1 UNK         0.0600 
    159 H159        1.3353  -16.4533  -43.7793 H         1 UNK         0.3000 
    160 H160        4.4893  -17.7984  -44.7483 H         1 UNK         0.0600 
    161 H161        5.0230  -15.4442  -45.2480 H         1 UNK         0.0600 
    162 H162        3.3115  -15.0407  -45.3191 H         1 UNK         0.0600 
    163 H163        4.0165  -16.1045  -46.5307 H         1 UNK         0.0600 
    164 H164        3.1657  -15.7863  -42.9885 H         1 UNK         0.3000 
    165 H165        3.6951  -17.6939  -40.1082 H         1 UNK         0.0600 
    166 H166        5.0306  -15.8164  -39.1754 H         1 UNK         0.0600 
    167 H167        6.0256  -16.7988  -40.2373 H         1 UNK         0.0600 
    168 H168        5.4140  -15.2485  -40.8011 H         1 UNK         0.0600 
    169 H169        2.9955  -14.9430  -40.4558 H         1 UNK         0.3000 
    170 H170       -0.3878  -15.3656  -41.3593 H         1 UNK         0.0600 
    171 H171       -0.4237  -15.7937  -38.8974 H         1 UNK         0.0600 
    172 H172        0.7976  -14.5500  -38.6548 H         1 UNK         0.0600 
    173 H173       -0.7999  -14.1187  -39.2661 H         1 UNK         0.0600 
    174 H174        0.9853  -13.0292  -40.6466 H         1 UNK         0.3000 
    175 H175        1.7201  -11.5385  -42.0831 H         1 UNK         0.0600 
    176 H176        3.7263  -11.2273  -43.5173 H         1 UNK         0.0600 
    177 H177        3.9687  -12.5730  -42.4132 H         1 UNK         0.0600 
    178 H178        3.5979  -12.8825  -44.1057 H         1 UNK         0.0600 
    179 H179        1.3741  -12.2310  -44.9647 H         1 UNK         0.3000 
    180 H180       -1.8573  -10.8009  -45.0796 H         1 UNK         0.0600 
    181 H181        0.6625   -9.6920  -46.4337 H         1 UNK         0.0600 
    182 H182       -0.4965   -8.7457  -45.5055 H         1 UNK         0.0600 
    183 H183       -0.9910   -9.5010  -47.0135 H         1 UNK         0.0600 
    184 H184       -0.0830  -11.9427  -47.0420 H         1 UNK         0.3000 
    185 H185        0.0804  -15.1026  -46.0230 H         1 UNK         0.0600 
    186 H186       -1.2307  -16.2636  -47.7380 H         1 UNK         0.0600 
    187 H187       -2.3356  -15.6389  -46.5329 H         1 UNK         0.0600 
    188 H188       -2.1738  -14.8111  -48.0773 H         1 UNK         0.0600 
    189 H189        0.1155  -14.3186  -48.7368 H         1 UNK         0.3000 
    190 H190       -1.5661  -20.9262  -46.2603 H         1 UNK         0.3000 
    191 H191       -3.5204  -20.8193  -48.2930 H         1 UNK         0.0600 
    192 H192       -3.7598  -20.2162  -45.3034 H         1 UNK         0.0600 
    193 H193       -4.9103  -19.7094  -46.5372 H         1 UNK         0.0600 
    194 H194       -3.2686  -19.0815  -46.5603 H         1 UNK         0.0600 
    195 H195       -3.1817  -23.0532  -45.5806 H         1 UNK         0.3000 
    196 H196       -5.8293  -24.2862  -45.9564 H         1 UNK         0.0600 
    197 H197       -3.5127  -24.9856  -44.0804 H         1 UNK         0.0600 
    198 H198       -5.1077  -25.7279  -44.0719 H         1 UNK         0.0600 
    199 H199       -4.9325  -24.0277  -43.6634 H         1 UNK         0.0600 
    200 H200       -2.3647  -25.0261  -46.4407 H         1 UNK         0.3000 
    201 H201       -2.6479  -27.6984  -47.3057 H         1 UNK         0.0600 
    202 H202       -0.4100  -25.6690  -47.8299 H         1 UNK         0.0600 
    203 H203       -0.2735  -27.4105  -48.0496 H         1 UNK         0.0600 
    204 H204       -0.5303  -26.7480  -46.4422 H         1 UNK         0.0600 
    205 H205       -2.4751  -24.6582  -49.2166 H         1 UNK         0.3000 
    206 H206       -2.5710  -26.0641  -51.7727 H         1 UNK         0.0600 
    207 H207       -1.2254  -23.9986  -51.4194 H         1 UNK         0.0600 
    208 H208       -2.4055  -23.8357  -52.7066 H         1 UNK         0.0600 
    209 H209       -2.7001  -23.0812  -51.1379 H         1 UNK         0.0600 
    210 H210       -4.5216  -27.2182  -51.1173 H         1 UNK         0.3000 
    211 H211       -6.5993  -27.8426  -51.5282 H         1 UNK         0.0600 
    212 H212       -6.8197  -25.4088  -53.3774 H         1 UNK         0.0600 
    213 H213       -7.7856  -26.8749  -53.4539 H         1 UNK         0.0600 
    214 H214       -6.0712  -26.9421  -53.8213 H         1 UNK         0.0600 
    215 H215       -6.1115  -25.7763  -49.3592 H         1 UNK         0.3000 
    216 H216       -7.1165  -24.5743  -47.8163 H         1 UNK         0.0600 
    217 H217       -8.4815  -26.6497  -47.5100 H         1 UNK         0.0600 
    218 H218       -9.3671  -25.2044  -47.0578 H         1 UNK         0.0600 
    219 H219       -9.7144  -25.9957  -48.5884 H         1 UNK         0.0600 
    220 H220       -6.9999  -23.5139  -50.5929 H         1 UNK         0.3000 
    221 H221       -8.9031  -21.2284  -50.3179 H         1 UNK         0.0600 
    222 H222       -8.3172  -22.8483  -52.8623 H         1 UNK         0.0600 
    223 H223       -9.8208  -22.9127  -51.9429 H         1 UNK         0.0600 
    224 H224       -9.3558  -21.4291  -52.7589 H         1 UNK         0.0600 
    225 H225       -5.7956  -21.9800  -50.1155 H         1 UNK         0.3000 
    226 H226       -3.7998  -21.1155  -50.5321 H         1 UNK         0.0600 
    227 H227       -4.8261  -19.1120  -49.3868 H         1 UNK         0.0600 
    228 H228       -3.5462  -18.6766  -50.5096 H         1 UNK         0.0600 
    229 H229       -5.2272  -18.4383  -50.9637 H         1 UNK         0.0600 
    230 H230       -4.7549  -22.5156  -52.6452 H         1 UNK         0.3000 
    231 H231       -4.8510  -21.2623  -55.1405 H         1 UNK         0.0600 
    232 H232       -5.6448  -23.5657  -54.6994 H         1 UNK         0.0600 
    233 H233       -3.9924  -24.1243  -54.4544 H         1 UNK         0.0600 
    234 H234       -4.5091  -23.5642  -56.0388 H         1 UNK         0.0600 
    235 H235       -2.0293  -21.9828  -53.2592 H         1 UNK         0.3000 
    236 H236        0.0144  -21.9187  -55.2386 H         1 UNK         0.0600 
    237 H237        1.4727  -21.4389  -53.2409 H         1 UNK         0.0600 
    238 H238        0.0341  -21.2021  -52.2574 H         1 UNK         0.0600 
    239 H239        0.3845  -22.7856  -52.9517 H         1 UNK         0.0600 
    240 H240       -1.9946  -19.3724  -53.9617 H         1 UNK         0.3000 
    241 H241       -0.2672  -17.1675  -54.6250 H         1 UNK         0.0600 
    242 H242       -2.0546  -18.2652  -58.1054 H         1 UNK         0.3800 
    243 H243       -2.0801  -19.3289  -56.7225 H         1 UNK         0.3800 
    244 H244       -3.2922  -16.8866  -54.4518 H         1 UNK         0.0800 
    245 H245       -2.4175  -17.3164  -53.0216 H         1 UNK         0.0800 
    246 H246       -2.6228  -15.4068  -51.4393 H         1 UNK         0.0800 
    247 H247       -1.5423  -14.0480  -51.5568 H         1 UNK         0.0800 
@<TRIPOS>BOND
     1    1    2 1    
     2    1  127 1    
     3    1  128 1    
     4    1  129 1    
     5    2    3 2    
     6    2    4 am   BACKBONE|DICT|INTERRES
     7    4    5 1    
     8    4  130 1    
     9    5    6 1    
    10    5   65 1    
    11    5  131 1    
    12    6    7 1    
    13    6  132 1    
    14    6  133 1    
    15    7    8 1    
    16    8    9 1    
    17    8  134 1    
    18    8  135 1    
    19    9   10 ar   
    20    9   14 ar   
    21   10   11 ar   
    22   10  136 1    
    23   11   12 ar   
    24   11  126 1    
    25   12   13 ar   
    26   12  137 1    
    27   13   14 ar   
    28   13   15 1    
    29   14  138 1    
    30   15   16 1    
    31   15  139 1    
    32   15  140 1    
    33   16   17 1    
    34   17   18 1    
    35   17  141 1    
    36   17  142 1    
    37   18   19 1    
    38   18   67 1    
    39   18  143 1    
    40   19   20 am   BACKBONE|DICT|INTERRES
    41   19  144 1    
    42   20   21 2    
    43   20   22 1    
    44   22   23 1    
    45   22   24 1    
    46   22  145 1    
    47   23  146 1    
    48   23  147 1    
    49   23  148 1    
    50   24   25 am   BACKBONE|DICT|INTERRES
    51   24  149 1    
    52   25   26 2    
    53   25   27 1    
    54   27   28 1    
    55   27   29 1    
    56   27  150 1    
    57   28  151 1    
    58   28  152 1    
    59   28  153 1    
    60   29   30 am   BACKBONE|DICT|INTERRES
    61   29  154 1    
    62   30   31 2    
    63   30   32 1    
    64   32   33 1    
    65   32   34 1    
    66   32  155 1    
    67   33  156 1    
    68   33  157 1    
    69   33  158 1    
    70   34   35 am   BACKBONE|DICT|INTERRES
    71   34  159 1    
    72   35   36 2    
    73   35   37 1    
    74   37   38 1    
    75   37   39 1    
    76   37  160 1    
    77   38  161 1    
    78   38  162 1    
    79   38  163 1    
    80   39   40 am   BACKBONE|DICT|INTERRES
    81   39  164 1    
    82   40   41 2    
    83   40   42 1    
    84   42   43 1    
    85   42   44 1    
    86   42  165 1    
    87   43  166 1    
    88   43  167 1    
    89   43  168 1    
    90   44   45 am   BACKBONE|DICT|INTERRES
    91   44  169 1    
    92   45   46 2    
    93   45   47 1    
    94   47   48 1    
    95   47   49 1    
    96   47  170 1    
    97   48  171 1    
    98   48  172 1    
    99   48  173 1    
   100   49   50 am   BACKBONE|DICT|INTERRES
   101   49  174 1    
   102   50   51 2    
   103   50   52 1    
   104   52   53 1    
   105   52   54 1    
   106   52  175 1    
   107   53  176 1    
   108   53  177 1    
   109   53  178 1    
   110   54   55 am   BACKBONE|DICT|INTERRES
   111   54  179 1    
   112   55   56 2    
   113   55   57 1    
   114   57   58 1    
   115   57   59 1    
   116   57  180 1    
   117   58  181 1    
   118   58  182 1    
   119   58  183 1    
   120   59   60 am   BACKBONE|DICT|INTERRES
   121   59  184 1    
   122   60   61 2    
   123   60   62 1    
   124   62   63 1    
   125   62   64 1    
   126   62  185 1    
   127   63  186 1    
   128   63  187 1    
   129   63  188 1    
   130   64   65 am   BACKBONE|DICT|INTERRES
   131   64  189 1    
   132   65   66 2    
   133   67   68 2    
   134   67   69 am   BACKBONE|DICT|INTERRES
   135   69   70 1    
   136   69  190 1    
   137   70   71 1    
   138   70   72 1    
   139   70  191 1    
   140   71  192 1    
   141   71  193 1    
   142   71  194 1    
   143   72   73 2    
   144   72   74 am   BACKBONE|DICT|INTERRES
   145   74   75 1    
   146   74  195 1    
   147   75   76 1    
   148   75   77 1    
   149   75  196 1    
   150   76  197 1    
   151   76  198 1    
   152   76  199 1    
   153   77   78 2    
   154   77   79 am   BACKBONE|DICT|INTERRES
   155   79   80 1    
   156   79  200 1    
   157   80   81 1    
   158   80   82 1    
   159   80  201 1    
   160   81  202 1    
   161   81  203 1    
   162   81  204 1    
   163   82   83 2    
   164   82   84 am   BACKBONE|DICT|INTERRES
   165   84   85 1    
   166   84  205 1    
   167   85   86 1    
   168   85   87 1    
   169   85  206 1    
   170   86  207 1    
   171   86  208 1    
   172   86  209 1    
   173   87   88 2    
   174   87   89 am   BACKBONE|DICT|INTERRES
   175   89   90 1    
   176   89  210 1    
   177   90   91 1    
   178   90   92 1    
   179   90  211 1    
   180   91  212 1    
   181   91  213 1    
   182   91  214 1    
   183   92   93 2    
   184   92   94 am   BACKBONE|DICT|INTERRES
   185   94   95 1    
   186   94  215 1    
   187   95   96 1    
   188   95   97 1    
   189   95  216 1    
   190   96  217 1    
   191   96  218 1    
   192   96  219 1    
   193   97   98 2    
   194   97   99 am   BACKBONE|DICT|INTERRES
   195   99  100 1    
   196   99  220 1    
   197  100  101 1    
   198  100  102 1    
   199  100  221 1    
   200  101  222 1    
   201  101  223 1    
   202  101  224 1    
   203  102  103 2    
   204  102  104 am   BACKBONE|DICT|INTERRES
   205  104  105 1    
   206  104  225 1    
   207  105  106 1    
   208  105  107 1    
   209  105  226 1    
   210  106  227 1    
   211  106  228 1    
   212  106  229 1    
   213  107  108 2    
   214  107  109 am   BACKBONE|DICT|INTERRES
   215  109  110 1    
   216  109  230 1    
   217  110  111 1    
   218  110  112 1    
   219  110  231 1    
   220  111  232 1    
   221  111  233 1    
   222  111  234 1    
   223  112  113 2    
   224  112  114 am   BACKBONE|DICT|INTERRES
   225  114  115 1    
   226  114  235 1    
   227  115  116 1    
   228  115  117 1    
   229  115  236 1    
   230  116  237 1    
   231  116  238 1    
   232  116  239 1    
   233  117  118 2    
   234  117  119 am   BACKBONE|DICT|INTERRES
   235  119  120 1    
   236  119  240 1    
   237  120  121 1    
   238  120  124 1    
   239  120  241 1    
   240  121  122 am   BACKBONE|DICT|INTERRES
   241  121  123 2    
   242  122  242 1    
   243  122  243 1    
   244  124  125 1    
   245  124  244 1    
   246  124  245 1    
   247  125  126 1    
   248  126  246 1    
   249  126  247 1    
@<TRIPOS>SUBSTRUCTURE
     1 UNK         1 GROUP             0       ****    0 ROOT    
