@<TRIPOS>MOLECULE
3R540
247   249    1
SMALL
USER_CHARGES


@<TRIPOS>ATOM
      1 CA         -2.2167  -13.2504  -49.8915 C.3       0 UNK        -0.1800 
      2 C          -1.9804  -14.3969  -48.9197 C.2       0 UNK         0.5000 
      3 O          -0.8391  -14.6423  -48.5342 O.2       0 UNK        -0.5000 
      4 N          -3.0537  -15.0874  -48.5118 N.am      1 UNK        -0.5000 
      5 CA         -3.0158  -16.2229  -47.5762 C.3       1 UNK         0.1400 
      6 C6         -4.3066  -17.0801  -47.6237 C.3       23 UNK        -0.0398 
      7 S7         -4.8120  -17.5719  -49.3070 S.3       23 UNK        -0.2404 
      8 C8         -3.8819  -19.1236  -49.5421 C.3       23 UNK        -0.0205 
      9 C9         -2.3808  -18.9398  -49.7400 C.ar      23 UNK        -0.0193 
     10 C10        -1.8781  -17.8845  -50.5047 C.ar      23 UNK        -0.1150 
     11 C11        -0.5090  -17.7524  -50.7377 C.ar      23 UNK        -0.0193 
     12 C12         0.3735  -18.6911  -50.1957 C.ar      23 UNK        -0.1150 
     13 C13        -0.1129  -19.7567  -49.4323 C.ar      23 UNK        -0.0193 
     14 C14        -1.4877  -19.8712  -49.2047 C.ar      23 UNK        -0.1150 
     15 C15         0.8322  -20.8161  -48.8917 C.3       23 UNK        -0.0205 
     16 S16         1.2526  -20.5257  -47.1468 S.3       23 UNK        -0.2404 
     17 C17         1.7303  -22.2160  -46.6397 C.3       23 UNK        -0.0398 
     18 CA          0.7071  -22.9104  -45.7074 C.3       11 UNK         0.1400 
     19 N           0.5658  -22.2063  -44.4291 N.am      11 UNK        -0.5000 
     20 C          -0.0418  -22.6928  -43.3369 C.2       10 UNK         0.5000 
     21 O          -0.6895  -23.7411  -43.3308 O.2       10 UNK        -0.5000 
     22 CA          0.1177  -21.8647  -42.0449 C.3       10 UNK         0.1400 
     23 CB         -0.1435  -22.6825  -40.7640 C.3       10 UNK        -0.1800 
     24 N           1.4153  -21.1844  -41.9814 N.am      10 UNK        -0.5000 
     25 C           2.6386  -21.7366  -41.9722 C.2       9 UNK         0.5000 
     26 O           2.8540  -22.9481  -41.9265 O.2       9 UNK        -0.5000 
     27 CA          3.8288  -20.7622  -42.0603 C.3       9 UNK         0.1400 
     28 CB          4.2504  -20.5789  -43.5270 C.3       9 UNK        -0.1800 
     29 N           3.5358  -19.4510  -41.4794 N.am      9 UNK        -0.5000 
     30 C           3.3748  -19.2238  -40.1683 C.2       8 UNK         0.5000 
     31 O           3.5401  -20.0806  -39.2989 O.2       8 UNK        -0.5000 
     32 CA          2.9276  -17.8089  -39.7618 C.3       8 UNK         0.1400 
     33 CB          4.1331  -16.8594  -39.6899 C.3       8 UNK        -0.1800 
     34 N           1.9118  -17.2529  -40.6590 N.am      8 UNK        -0.5000 
     35 C           0.6660  -17.7321  -40.7931 C.2       7 UNK         0.5000 
     36 O           0.2291  -18.6920  -40.1583 O.2       7 UNK        -0.5000 
     37 CA         -0.2410  -17.0374  -41.8248 C.3       7 UNK         0.1400 
     38 CB         -0.7851  -15.7168  -41.2585 C.3       7 UNK        -0.1800 
     39 N           0.4367  -16.7914  -43.0971 N.am      7 UNK        -0.5000 
     40 C           0.8898  -17.7450  -43.9233 C.2       6 UNK         0.5000 
     41 O           0.7247  -18.9514  -43.7365 O.2       6 UNK        -0.5000 
     42 CA          1.7438  -17.2756  -45.1155 C.3       6 UNK         0.1400 
     43 CB          0.8892  -16.9370  -46.3469 C.3       6 UNK        -0.1800 
     44 N           2.6061  -16.1423  -44.7677 N.am      6 UNK        -0.5000 
     45 C           3.6580  -16.2412  -43.9419 C.2       5 UNK         0.5000 
     46 O           3.9941  -17.2889  -43.3896 O.2       5 UNK        -0.5000 
     47 CA          4.4605  -14.9584  -43.6678 C.3       5 UNK         0.1400 
     48 CB          5.3672  -14.6175  -44.8599 C.3       5 UNK        -0.1800 
     49 N           3.6287  -13.8002  -43.3476 N.am      5 UNK        -0.5000 
     50 C           2.8416  -13.6755  -42.2726 C.2       4 UNK         0.5000 
     51 O           2.6607  -14.5764  -41.4555 O.2       4 UNK        -0.5000 
     52 CA          2.1310  -12.3210  -42.0738 C.3       4 UNK         0.1400 
     53 CB          3.1245  -11.2063  -41.6939 C.3       4 UNK        -0.1800 
     54 N           1.2836  -11.9367  -43.2073 N.am      4 UNK        -0.5000 
     55 C           1.6361  -11.6725  -44.4733 C.2       3 UNK         0.5000 
     56 O           2.8055  -11.5469  -44.8427 O.2       3 UNK        -0.5000 
     57 CA          0.4932  -11.5672  -45.5094 C.3       3 UNK         0.1400 
     58 CB          0.9161  -12.1366  -46.8793 C.3       3 UNK        -0.1800 
     59 N          -0.7906  -12.1672  -45.1073 N.am      3 UNK        -0.5000 
     60 C          -1.0233  -13.4298  -44.7119 C.2       2 UNK         0.5000 
     61 O          -0.1358  -14.2456  -44.4621 O.2       2 UNK        -0.5000 
     62 CA         -2.4981  -13.8540  -44.5824 C.3       2 UNK         0.1400 
     63 CB         -3.4561  -12.6856  -44.2791 C.3       2 UNK        -0.1800 
     64 N          -2.9060  -14.4971  -45.8252 N.am      2 UNK        -0.5000 
     65 C          -2.7211  -15.7909  -46.1226 C.2       1 UNK         0.5000 
     66 O          -2.3461  -16.6337  -45.3076 O.2       1 UNK        -0.5000 
     67 C          -0.6411  -23.1871  -46.4062 C.2       11 UNK         0.5000 
     68 O          -0.7587  -24.1777  -47.1280 O.2       11 UNK        -0.5000 
     69 N          -1.6485  -22.3450  -46.1336 N.am      12 UNK        -0.5000 
     70 CA         -3.0268  -22.4598  -46.6151 C.3       12 UNK         0.1400 
     71 CB         -3.8212  -21.2398  -46.1272 C.3       12 UNK        -0.1800 
     72 C          -3.7337  -23.7670  -46.2071 C.2       12 UNK         0.5000 
     73 O          -4.6579  -24.1865  -46.9019 O.2       12 UNK        -0.5000 
     74 N          -3.2695  -24.4174  -45.1292 N.am      13 UNK        -0.5000 
     75 CA         -3.7439  -25.7333  -44.6954 C.3       13 UNK         0.1400 
     76 CB         -3.1596  -26.0485  -43.3103 C.3       13 UNK        -0.1800 
     77 C          -3.4077  -26.8628  -45.6919 C.2       13 UNK         0.5000 
     78 O          -4.1296  -27.8599  -45.7326 O.2       13 UNK        -0.5000 
     79 N          -2.3343  -26.6857  -46.4748 N.am      14 UNK        -0.5000 
     80 CA         -1.8989  -27.6119  -47.5184 C.3       14 UNK         0.1400 
     81 CB         -0.3920  -27.8703  -47.3597 C.3       14 UNK        -0.1800 
     82 C          -2.2020  -27.0553  -48.9193 C.2       14 UNK         0.5000 
     83 O          -2.6519  -27.8055  -49.7859 O.2       14 UNK        -0.5000 
     84 N          -1.9408  -25.7570  -49.1231 N.am      15 UNK        -0.5000 
     85 CA         -2.0428  -25.0795  -50.4159 C.3       15 UNK         0.1400 
     86 CB         -1.1942  -23.7998  -50.3667 C.3       15 UNK        -0.1800 
     87 C          -3.4813  -24.7349  -50.8382 C.2       15 UNK         0.5000 
     88 O          -3.7000  -24.4652  -52.0203 O.2       15 UNK        -0.5000 
     89 N          -4.4238  -24.7054  -49.8835 N.am      16 UNK        -0.5000 
     90 CA         -5.8086  -24.2499  -50.0377 C.3       16 UNK         0.1400 
     91 CB         -6.6136  -25.2131  -50.9401 C.3       16 UNK        -0.1800 
     92 C          -5.8411  -22.7740  -50.4853 C.2       16 UNK         0.5000 
     93 O          -5.4556  -21.9076  -49.7020 O.2       16 UNK        -0.5000 
     94 N          -6.2555  -22.5177  -51.7326 N.am      17 UNK        -0.5000 
     95 CA         -6.2585  -21.1976  -52.3691 C.3       17 UNK         0.1400 
     96 CB         -7.4221  -21.1481  -53.3744 C.3       17 UNK        -0.1800 
     97 C          -4.9259  -20.8562  -53.0714 C.2       17 UNK         0.5000 
     98 O          -4.8465  -19.8124  -53.7229 O.2       17 UNK        -0.5000 
     99 N          -3.9263  -21.7494  -52.9873 N.am      18 UNK        -0.5000 
    100 CA        -2.6266  -21.6881  -53.6675 C.3       18 UNK         0.1400 
    101 CB        -1.7718  -20.5216  -53.1310 C.3       18 UNK        -0.1800 
    102 C         -2.7992  -21.6707  -55.1976 C.2       18 UNK         0.5000 
    103 O         -2.2717  -20.7915  -55.8789 O.2       18 UNK        -0.5000 
    104 N         -3.6260  -22.6056  -55.6937 N.am      19 UNK        -0.5000 
    105 CA        -4.0752  -22.7474  -57.0876 C.3       19 UNK         0.1400 
    106 CB        -2.8945  -23.1449  -57.9980 C.3       19 UNK        -0.1800 
    107 C         -4.8414  -21.5140  -57.6221 C.2       19 UNK         0.5000 
    108 O         -4.9127  -21.3157  -58.8357 O.2       19 UNK        -0.5000 
    109 N         -5.3779  -20.7004  -56.6986 N.am      20 UNK        -0.5000 
    110 CA        -6.0070  -19.3920  -56.8999 C.3       20 UNK         0.1400 
    111 CB        -7.2800  -19.5088  -57.7639 C.3       20 UNK        -0.1800 
    112 C         -5.0296  -18.3087  -57.4094 C.2       20 UNK         0.5000 
    113 O         -5.4805  -17.2807  -57.9179 O.2       20 UNK        -0.5000 
    114 N         -3.7145  -18.5344  -57.2589 N.am      21 UNK        -0.5000 
    115 CA        -2.6694  -17.5955  -57.6686 C.3       21 UNK         0.1400 
    116 CB        -1.3395  -18.3460  -57.8354 C.3       21 UNK        -0.1800 
    117 C         -2.5066  -16.4286  -56.6795 C.2       21 UNK         0.5000 
    118 O         -2.1305  -15.3334  -57.1005 O.2       21 UNK        -0.5000 
    119 N         -2.7930  -16.6736  -55.3949 N.am      22 UNK        -0.5000 
    120 CA        -2.6792  -15.6789  -54.3185 C.3       22 UNK         0.1400 
    121 C         -3.6379  -15.8973  -53.1154 C.2       22 UNK         0.5000 
    122 N         -4.3968  -16.9831  -53.0185 N.am      22 UNK        -0.7600 
    123 O         -3.7215  -15.0348  -52.2468 O.2       22 UNK        -0.5000 
    124 C124       -1.2070  -15.4153  -53.8891 C.3       23 UNK        -0.0398 
    125 S125       -0.2900  -16.9091  -53.3587 S.3       23 UNK        -0.2404 
    126 C126       -0.0012  -16.5984  -51.5853 C.3       23 UNK        -0.0205 
    127 H127       -1.8590  -12.3142  -49.4630 H         1 UNK         0.0600 
    128 H128       -1.6771  -13.4300  -50.8211 H         1 UNK         0.0600 
    129 H129       -3.2740  -13.1344  -50.1312 H         1 UNK         0.0600 
    130 H130       -3.9609  -14.8714  -48.9007 H         1 UNK         0.3000 
    131 H131       -2.1813  -16.8614  -47.8714 H         1 UNK         0.0600 
    132 H132       -5.1411  -16.5284  -47.1870 H         1 UNK         0.0800 
    133 H133       -4.1905  -17.9786  -47.0153 H         1 UNK         0.0800 
    134 H134       -4.2702  -19.6181  -50.4313 H         1 UNK         0.0800 
    135 H135       -4.0856  -19.7917  -48.7054 H         1 UNK         0.0800 
    136 H136       -2.5551  -17.1608  -50.9280 H         1 UNK         0.1150 
    137 H137        1.4347  -18.6014  -50.3800 H         1 UNK         0.1150 
    138 H138       -1.8608  -20.7017  -48.6265 H         1 UNK         0.1150 
    139 H139        0.3628  -21.7933  -48.9996 H         1 UNK         0.0800 
    140 H140        1.7493  -20.8511  -49.4816 H         1 UNK         0.0800 
    141 H141        2.6923  -22.1468  -46.1301 H         1 UNK         0.0800 
    142 H142        1.9186  -22.8329  -47.5201 H         1 UNK         0.0800 
    143 H143        1.1200  -23.8925  -45.4668 H         1 UNK         0.0600 
    144 H144        1.0157  -21.3026  -44.3611 H         1 UNK         0.3000 
    145 H145       -0.6347  -21.0764  -42.0935 H         1 UNK         0.0600 
    146 H146       -0.0196  -22.0660  -39.8734 H         1 UNK         0.0600 
    147 H147       -1.1623  -23.0715  -40.7502 H         1 UNK         0.0600 
    148 H148        0.5318  -23.5343  -40.6804 H         1 UNK         0.0600 
    149 H149        1.3647  -20.1773  -42.0786 H         1 UNK         0.3000 
    150 H150        4.6649  -21.2032  -41.5138 H         1 UNK         0.0600 
    151 H151        4.4961  -21.5368  -43.9873 H         1 UNK         0.0600 
    152 H152        5.1327  -19.9437  -43.6069 H         1 UNK         0.0600 
    153 H153        3.4562  -20.1231  -44.1199 H         1 UNK         0.0600 
    154 H154        3.4559  -18.6718  -42.1272 H         1 UNK         0.3000 
    155 H155        2.4902  -17.8749  -38.7635 H         1 UNK         0.0600 
    156 H156        4.5850  -16.7074  -40.6706 H         1 UNK         0.0600 
    157 H157        4.9051  -17.2553  -39.0289 H         1 UNK         0.0600 
    158 H158        3.8423  -15.8836  -39.3007 H         1 UNK         0.0600 
    159 H159        2.1761  -16.4187  -41.1761 H         1 UNK         0.3000 
    160 H160       -1.0881  -17.6978  -42.0218 H         1 UNK         0.0600 
    161 H161       -1.5385  -15.2883  -41.9151 H         1 UNK         0.0600 
    162 H162        0.0030  -14.9758  -41.1250 H         1 UNK         0.0600 
    163 H163       -1.2574  -15.8725  -40.2878 H         1 UNK         0.0600 
    164 H164        0.5558  -15.8241  -43.3781 H         1 UNK         0.3000 
    165 H165        2.3875  -18.1137  -45.3912 H         1 UNK         0.0600 
    166 H166        1.5100  -16.8107  -47.2338 H         1 UNK         0.0600 
    167 H167        0.1765  -17.7338  -46.5634 H         1 UNK         0.0600 
    168 H168        0.3176  -16.0212  -46.2123 H         1 UNK         0.0600 
    169 H169        2.3497  -15.2386  -45.1381 H         1 UNK         0.3000 
    170 H170        5.0993  -15.1518  -42.8035 H         1 UNK         0.0600 
    171 H171        6.0076  -15.4618  -45.1186 H         1 UNK         0.0600 
    172 H172        4.7872  -14.3595  -45.7470 H         1 UNK         0.0600 
    173 H173        6.0190  -13.7745  -44.6299 H         1 UNK         0.0600 
    174 H174        3.6599  -13.0130  -43.9897 H         1 UNK         0.3000 
    175 H175        1.4512  -12.4483  -41.2298 H         1 UNK         0.0600 
    176 H176        2.6053  -10.2693  -41.4931 H         1 UNK         0.0600 
    177 H177        3.6761  -11.4721  -40.7914 H         1 UNK         0.0600 
    178 H178        3.8585  -11.0203  -42.4781 H         1 UNK         0.0600 
    179 H179        0.2929  -12.0411  -43.0428 H         1 UNK         0.3000 
    180 H180        0.3057  -10.5003  -45.6374 H         1 UNK         0.0600 
    181 H181        1.1531  -13.1996  -46.8168 H         1 UNK         0.0600 
    182 H182        1.7965  -11.6252  -47.2701 H         1 UNK         0.0600 
    183 H183        0.1229  -12.0171  -47.6171 H         1 UNK         0.0600 
    184 H184       -1.5950  -11.5698  -45.2364 H         1 UNK         0.3000 
    185 H185       -2.5730  -14.5674  -43.7617 H         1 UNK         0.0600 
    186 H186       -3.5199  -11.9740  -45.1031 H         1 UNK         0.0600 
    187 H187       -4.4644  -13.0544  -44.0894 H         1 UNK         0.0600 
    188 H188       -3.1421  -12.1411  -43.3876 H         1 UNK         0.0600 
    189 H189       -3.1989  -13.8870  -46.5740 H         1 UNK         0.3000 
    190 H190       -1.4493  -21.5667  -45.5220 H         1 UNK         0.3000 
    191 H191       -3.0031  -22.4422  -47.7057 H         1 UNK         0.0600 
    192 H192       -3.9104  -21.2271  -45.0402 H         1 UNK         0.0600 
    193 H193       -4.8303  -21.2413  -46.5418 H         1 UNK         0.0600 
    194 H194       -3.3447  -20.3085  -46.4334 H         1 UNK         0.0600 
    195 H195       -2.4916  -24.0248  -44.6121 H         1 UNK         0.3000 
    196 H196       -4.8311  -25.6859  -44.6044 H         1 UNK         0.0600 
    197 H197       -3.5455  -26.9951  -42.9299 H         1 UNK         0.0600 
    198 H198       -3.4190  -25.2764  -42.5858 H         1 UNK         0.0600 
    199 H199       -2.0722  -26.1268  -43.3418 H         1 UNK         0.0600 
    200 H200       -1.8120  -25.8216  -46.3935 H         1 UNK         0.3000 
    201 H201       -2.4145  -28.5697  -47.4228 H         1 UNK         0.0600 
    202 H202       -0.1716  -28.3215  -46.3922 H         1 UNK         0.0600 
    203 H203        0.1880  -26.9497  -47.4385 H         1 UNK         0.0600 
    204 H204       -0.0296  -28.5548  -48.1278 H         1 UNK         0.0600 
    205 H205       -1.5368  -25.2099  -48.3659 H         1 UNK         0.3000 
    206 H206       -1.6244  -25.7346  -51.1829 H         1 UNK         0.0600 
    207 H207       -0.1637  -24.0199  -50.0874 H         1 UNK         0.0600 
    208 H208       -1.1668  -23.3054  -51.3376 H         1 UNK         0.0600 
    209 H209       -1.5933  -23.0843  -49.6476 H         1 UNK         0.0600 
    210 H210       -4.1444  -24.8919  -48.9287 H         1 UNK         0.3000 
    211 H211       -6.2621  -24.2782  -49.0463 H         1 UNK         0.0600 
    212 H212       -6.2143  -25.2772  -51.9523 H         1 UNK         0.0600 
    213 H213       -7.6561  -24.9008  -51.0131 H         1 UNK         0.0600 
    214 H214       -6.6110  -26.2211  -50.5250 H         1 UNK         0.0600 
    215 H215       -6.5310  -23.2975  -52.3122 H         1 UNK         0.3000 
    216 H216       -6.4311  -20.4292  -51.6127 H         1 UNK         0.0600 
    217 H217       -7.5118  -20.1592  -53.8260 H         1 UNK         0.0600 
    218 H218       -8.3729  -21.3642  -52.8868 H         1 UNK         0.0600 
    219 H219       -7.2885  -21.8676  -54.1832 H         1 UNK         0.0600 
    220 H220       -4.0929  -22.6088  -52.4724 H         1 UNK         0.3000 
    221 H221       -2.1031  -22.6152  -53.4333 H         1 UNK         0.0600 
    222 H222       -2.2288  -19.5506  -53.3229 H         1 UNK         0.0600 
    223 H223       -1.6217  -20.6124  -52.0562 H         1 UNK         0.0600 
    224 H224       -0.7846  -20.5122  -53.5938 H         1 UNK         0.0600 
    225 H225       -4.0232  -23.2682  -55.0416 H         1 UNK         0.3000 
    226 H226       -4.7902  -23.5711  -57.0952 H         1 UNK         0.0600 
    227 H227       -2.3686  -24.0148  -57.6048 H         1 UNK         0.0600 
    228 H228       -3.2406  -23.4032  -58.9995 H         1 UNK         0.0600 
    229 H229       -2.1723  -22.3345  -58.1020 H         1 UNK         0.0600 
    230 H230       -5.2142  -20.9366  -55.7298 H         1 UNK         0.3000 
    231 H231       -6.3207  -19.0590  -55.9100 H         1 UNK         0.0600 
    232 H232       -7.9459  -20.2826  -57.3820 H         1 UNK         0.0600 
    233 H233       -7.0476  -19.7462  -58.8021 H         1 UNK         0.0600 
    234 H234       -7.8397  -18.5729  -57.7630 H         1 UNK         0.0600 
    235 H235       -3.3997  -19.3967  -56.8251 H         1 UNK         0.3000 
    236 H236       -2.9412  -17.1767  -58.6400 H         1 UNK         0.0600 
    237 H237       -0.5737  -17.6901  -58.2511 H         1 UNK         0.0600 
    238 H238       -0.9644  -18.7188  -56.8816 H         1 UNK         0.0600 
    239 H239       -1.4446  -19.1952  -58.5110 H         1 UNK         0.0600 
    240 H240       -3.0701  -17.6045  -55.1243 H         1 UNK         0.3000 
    241 H241       -3.0443  -14.7398  -54.7392 H         1 UNK         0.0600 
    242 H242       -4.3671  -17.7628  -53.6593 H         1 UNK         0.3800 
    243 H243       -4.9976  -17.0530  -52.2135 H         1 UNK         0.3800 
    244 H244       -0.6614  -14.9933  -54.7337 H         1 UNK         0.0800 
    245 H245       -1.1640  -14.6436  -53.1199 H         1 UNK         0.0800 
    246 H246        1.0660  -16.4434  -51.4210 H         1 UNK         0.0800 
    247 H247       -0.4930  -15.6817  -51.2612 H         1 UNK         0.0800 
@<TRIPOS>BOND
     1    1    2 1    
     2    1  127 1    
     3    1  128 1    
     4    1  129 1    
     5    2    3 2    
     6    2    4 am   BACKBONE|DICT|INTERRES
     7    4    5 1    
     8    4  130 1    
     9    5    6 1    
    10    5   65 1    
    11    5  131 1    
    12    6    7 1    
    13    6  132 1    
    14    6  133 1    
    15    7    8 1    
    16    8    9 1    
    17    8  134 1    
    18    8  135 1    
    19    9   10 ar   
    20    9   14 ar   
    21   10   11 ar   
    22   10  136 1    
    23   11   12 ar   
    24   11  126 1    
    25   12   13 ar   
    26   12  137 1    
    27   13   14 ar   
    28   13   15 1    
    29   14  138 1    
    30   15   16 1    
    31   15  139 1    
    32   15  140 1    
    33   16   17 1    
    34   17   18 1    
    35   17  141 1    
    36   17  142 1    
    37   18   19 1    
    38   18   67 1    
    39   18  143 1    
    40   19   20 am   BACKBONE|DICT|INTERRES
    41   19  144 1    
    42   20   21 2    
    43   20   22 1    
    44   22   23 1    
    45   22   24 1    
    46   22  145 1    
    47   23  146 1    
    48   23  147 1    
    49   23  148 1    
    50   24   25 am   BACKBONE|DICT|INTERRES
    51   24  149 1    
    52   25   26 2    
    53   25   27 1    
    54   27   28 1    
    55   27   29 1    
    56   27  150 1    
    57   28  151 1    
    58   28  152 1    
    59   28  153 1    
    60   29   30 am   BACKBONE|DICT|INTERRES
    61   29  154 1    
    62   30   31 2    
    63   30   32 1    
    64   32   33 1    
    65   32   34 1    
    66   32  155 1    
    67   33  156 1    
    68   33  157 1    
    69   33  158 1    
    70   34   35 am   BACKBONE|DICT|INTERRES
    71   34  159 1    
    72   35   36 2    
    73   35   37 1    
    74   37   38 1    
    75   37   39 1    
    76   37  160 1    
    77   38  161 1    
    78   38  162 1    
    79   38  163 1    
    80   39   40 am   BACKBONE|DICT|INTERRES
    81   39  164 1    
    82   40   41 2    
    83   40   42 1    
    84   42   43 1    
    85   42   44 1    
    86   42  165 1    
    87   43  166 1    
    88   43  167 1    
    89   43  168 1    
    90   44   45 am   BACKBONE|DICT|INTERRES
    91   44  169 1    
    92   45   46 2    
    93   45   47 1    
    94   47   48 1    
    95   47   49 1    
    96   47  170 1    
    97   48  171 1    
    98   48  172 1    
    99   48  173 1    
   100   49   50 am   BACKBONE|DICT|INTERRES
   101   49  174 1    
   102   50   51 2    
   103   50   52 1    
   104   52   53 1    
   105   52   54 1    
   106   52  175 1    
   107   53  176 1    
   108   53  177 1    
   109   53  178 1    
   110   54   55 am   BACKBONE|DICT|INTERRES
   111   54  179 1    
   112   55   56 2    
   113   55   57 1    
   114   57   58 1    
   115   57   59 1    
   116   57  180 1    
   117   58  181 1    
   118   58  182 1    
   119   58  183 1    
   120   59   60 am   BACKBONE|DICT|INTERRES
   121   59  184 1    
   122   60   61 2    
   123   60   62 1    
   124   62   63 1    
   125   62   64 1    
   126   62  185 1    
   127   63  186 1    
   128   63  187 1    
   129   63  188 1    
   130   64   65 am   BACKBONE|DICT|INTERRES
   131   64  189 1    
   132   65   66 2    
   133   67   68 2    
   134   67   69 am   BACKBONE|DICT|INTERRES
   135   69   70 1    
   136   69  190 1    
   137   70   71 1    
   138   70   72 1    
   139   70  191 1    
   140   71  192 1    
   141   71  193 1    
   142   71  194 1    
   143   72   73 2    
   144   72   74 am   BACKBONE|DICT|INTERRES
   145   74   75 1    
   146   74  195 1    
   147   75   76 1    
   148   75   77 1    
   149   75  196 1    
   150   76  197 1    
   151   76  198 1    
   152   76  199 1    
   153   77   78 2    
   154   77   79 am   BACKBONE|DICT|INTERRES
   155   79   80 1    
   156   79  200 1    
   157   80   81 1    
   158   80   82 1    
   159   80  201 1    
   160   81  202 1    
   161   81  203 1    
   162   81  204 1    
   163   82   83 2    
   164   82   84 am   BACKBONE|DICT|INTERRES
   165   84   85 1    
   166   84  205 1    
   167   85   86 1    
   168   85   87 1    
   169   85  206 1    
   170   86  207 1    
   171   86  208 1    
   172   86  209 1    
   173   87   88 2    
   174   87   89 am   BACKBONE|DICT|INTERRES
   175   89   90 1    
   176   89  210 1    
   177   90   91 1    
   178   90   92 1    
   179   90  211 1    
   180   91  212 1    
   181   91  213 1    
   182   91  214 1    
   183   92   93 2    
   184   92   94 am   BACKBONE|DICT|INTERRES
   185   94   95 1    
   186   94  215 1    
   187   95   96 1    
   188   95   97 1    
   189   95  216 1    
   190   96  217 1    
   191   96  218 1    
   192   96  219 1    
   193   97   98 2    
   194   97   99 am   BACKBONE|DICT|INTERRES
   195   99  100 1    
   196   99  220 1    
   197  100  101 1    
   198  100  102 1    
   199  100  221 1    
   200  101  222 1    
   201  101  223 1    
   202  101  224 1    
   203  102  103 2    
   204  102  104 am   BACKBONE|DICT|INTERRES
   205  104  105 1    
   206  104  225 1    
   207  105  106 1    
   208  105  107 1    
   209  105  226 1    
   210  106  227 1    
   211  106  228 1    
   212  106  229 1    
   213  107  108 2    
   214  107  109 am   BACKBONE|DICT|INTERRES
   215  109  110 1    
   216  109  230 1    
   217  110  111 1    
   218  110  112 1    
   219  110  231 1    
   220  111  232 1    
   221  111  233 1    
   222  111  234 1    
   223  112  113 2    
   224  112  114 am   BACKBONE|DICT|INTERRES
   225  114  115 1    
   226  114  235 1    
   227  115  116 1    
   228  115  117 1    
   229  115  236 1    
   230  116  237 1    
   231  116  238 1    
   232  116  239 1    
   233  117  118 2    
   234  117  119 am   BACKBONE|DICT|INTERRES
   235  119  120 1    
   236  119  240 1    
   237  120  121 1    
   238  120  124 1    
   239  120  241 1    
   240  121  122 am   BACKBONE|DICT|INTERRES
   241  121  123 2    
   242  122  242 1    
   243  122  243 1    
   244  124  125 1    
   245  124  244 1    
   246  124  245 1    
   247  125  126 1    
   248  126  246 1    
   249  126  247 1    
@<TRIPOS>SUBSTRUCTURE
     1 UNK         1 GROUP             0       ****    0 ROOT    
