@<TRIPOS>MOLECULE
3R540
247   249    1
SMALL
USER_CHARGES


@<TRIPOS>ATOM
      1 CA         -0.9121  -16.4666  -50.2910 C.3       0 UNK        -0.1800 
      2 C          -0.4489  -16.3938  -48.8459 C.2       0 UNK         0.5000 
      3 O          -1.0768  -15.7110  -48.0374 O.2       0 UNK        -0.5000 
      4 N           0.6426  -17.0953  -48.5156 N.am      1 UNK        -0.5000 
      5 CA          1.3037  -17.1015  -47.2036 C.3       1 UNK         0.1400 
      6 C6          2.7839  -17.5551  -47.3031 C.3       23 UNK        -0.0398 
      7 S7          3.7701  -16.5323  -48.4507 S.3       23 UNK        -0.2404 
      8 C8          4.3510  -17.7624  -49.6639 C.3       23 UNK        -0.0205 
      9 C9          3.2329  -18.2513  -50.5735 C.ar      23 UNK        -0.0193 
     10 C10         2.8767  -17.5176  -51.7097 C.ar      23 UNK        -0.1150 
     11 C11         1.8575  -17.9564  -52.5623 C.ar      23 UNK        -0.0193 
     12 C12         1.1870  -19.1463  -52.2487 C.ar      23 UNK        -0.1150 
     13 C13         1.5310  -19.8880  -51.1167 C.ar      23 UNK        -0.0193 
     14 C14         2.5632  -19.4437  -50.2892 C.ar      23 UNK        -0.1150 
     15 C15         0.7760  -21.1662  -50.7943 C.3       23 UNK        -0.0205 
     16 S16        -0.8593  -20.8006  -50.0918 S.3       23 UNK        -0.2404 
     17 C17        -0.4557  -20.3781  -48.3663 C.3       23 UNK        -0.0398 
     18 CA         -0.8127  -21.5315  -47.3980 C.3       11 UNK         0.1400 
     19 N           0.2032  -21.7351  -46.3589 N.am      11 UNK        -0.5000 
     20 C           0.4191  -22.9149  -45.7592 C.2       10 UNK         0.5000 
     21 O          -0.2498  -23.9228  -45.9918 O.2       10 UNK        -0.5000 
     22 CA          1.5425  -22.9929  -44.7097 C.3       10 UNK         0.1400 
     23 CB          2.8600  -23.4121  -45.3789 C.3       10 UNK        -0.1800 
     24 N           1.7814  -21.7780  -43.9285 N.am      10 UNK        -0.5000 
     25 C           0.8828  -21.0711  -43.2350 C.2       9 UNK         0.5000 
     26 O          -0.3320  -21.2636  -43.3040 O.2       9 UNK        -0.5000 
     27 CA          1.4024  -19.9600  -42.2974 C.3       9 UNK         0.1400 
     28 CB          1.3070  -20.4072  -40.8275 C.3       9 UNK        -0.1800 
     29 N           2.7305  -19.3923  -42.5682 N.am      9 UNK        -0.5000 
     30 C           3.9340  -19.9861  -42.5594 C.2       8 UNK         0.5000 
     31 O           4.1068  -21.2003  -42.4585 O.2       8 UNK        -0.5000 
     32 CA          5.1607  -19.0588  -42.6690 C.3       8 UNK         0.1400 
     33 CB          5.5520  -18.8593  -44.1411 C.3       8 UNK        -0.1800 
     34 N           4.9495  -17.7497  -42.0463 N.am      8 UNK        -0.5000 
     35 C           4.7145  -17.5423  -40.7414 C.2       7 UNK         0.5000 
     36 O           4.7448  -18.4349  -39.8934 O.2       7 UNK        -0.5000 
     37 CA          4.3794  -16.1012  -40.3030 C.3       7 UNK         0.1400 
     38 CB          5.5648  -15.4798  -39.5475 C.3       7 UNK        -0.1800 
     39 N           3.9978  -15.2043  -41.3993 N.am      7 UNK        -0.5000 
     40 C           2.8897  -15.3154  -42.1430 C.2       6 UNK         0.5000 
     41 O           2.0766  -16.2346  -42.0312 O.2       6 UNK        -0.5000 
     42 CA          2.7121  -14.2568  -43.2374 C.3       6 UNK         0.1400 
     43 CB          3.3748  -14.7224  -44.5452 C.3       6 UNK        -0.1800 
     44 N           1.2949  -14.0047  -43.4749 N.am      6 UNK        -0.5000 
     45 C           0.7939  -12.8413  -43.9090 C.2       5 UNK         0.5000 
     46 O           1.4796  -11.8378  -44.1103 O.2       5 UNK        -0.5000 
     47 CA         -0.7183  -12.7739  -44.1739 C.3       5 UNK         0.1400 
     48 CB         -1.0372  -13.3397  -45.5668 C.3       5 UNK        -0.1800 
     49 N          -1.4849  -13.5153  -43.1748 N.am      5 UNK        -0.5000 
     50 C          -2.1667  -12.9628  -42.1627 C.2       4 UNK         0.5000 
     51 O          -2.1823  -11.7529  -41.9319 O.2       4 UNK        -0.5000 
     52 CA         -2.9992  -13.9039  -41.2671 C.3       4 UNK         0.1400 
     53 CB         -4.4868  -13.8190  -41.6437 C.3       4 UNK        -0.1800 
     54 N          -2.5785  -15.3028  -41.3467 N.am      4 UNK        -0.5000 
     55 C          -1.5119  -15.8113  -40.7171 C.2       3 UNK         0.5000 
     56 O          -0.8031  -15.1657  -39.9445 O.2       3 UNK        -0.5000 
     57 CA         -1.1722  -17.2874  -41.0092 C.3       3 UNK         0.1400 
     58 CB         -1.8066  -18.1990  -39.9480 C.3       3 UNK        -0.1800 
     59 N          -1.5614  -17.7729  -42.3417 N.am      3 UNK        -0.5000 
     60 C          -1.1716  -17.2390  -43.5072 C.2       2 UNK         0.5000 
     61 O          -0.5588  -16.1748  -43.5975 O.2       2 UNK        -0.5000 
     62 CA         -1.5503  -18.0066  -44.7843 C.3       2 UNK         0.1400 
     63 CB         -3.0343  -17.8046  -45.1223 C.3       2 UNK        -0.1800 
     64 N          -0.7388  -17.5471  -45.9098 N.am      2 UNK        -0.5000 
     65 C           0.5209  -17.9245  -46.1523 C.2       1 UNK         0.5000 
     66 O           1.0481  -18.8964  -45.6080 O.2       1 UNK        -0.5000 
     67 C          -2.2479  -21.4089  -46.8391 C.2       11 UNK         0.5000 
     68 O          -3.1929  -21.3378  -47.6267 O.2       11 UNK        -0.5000 
     69 N          -2.4198  -21.4378  -45.5075 N.am      12 UNK        -0.5000 
     70 CA         -3.7275  -21.5477  -44.8537 C.3       12 UNK         0.1400 
     71 CB         -3.5637  -21.3846  -43.3364 C.3       12 UNK        -0.1800 
     72 C          -4.4397  -22.8746  -45.1854 C.2       12 UNK         0.5000 
     73 O          -5.6645  -22.8922  -45.3024 O.2       12 UNK        -0.5000 
     74 N          -3.6576  -23.9425  -45.4080 N.am      13 UNK        -0.5000 
     75 CA         -4.1325  -25.2501  -45.8698 C.3       13 UNK         0.1400 
     76 CB         -2.9922  -26.2700  -45.7327 C.3       13 UNK        -0.1800 
     77 C          -4.6665  -25.2302  -47.3178 C.2       13 UNK         0.5000 
     78 O          -5.4851  -26.0787  -47.6716 O.2       13 UNK        -0.5000 
     79 N          -4.2159  -24.2521  -48.1153 N.am      14 UNK        -0.5000 
     80 CA         -4.6746  -23.9816  -49.4787 C.3       14 UNK         0.1400 
     81 CB         -3.4512  -23.6581  -50.3511 C.3       14 UNK        -0.1800 
     82 C          -5.7047  -22.8338  -49.5229 C.2       14 UNK         0.5000 
     83 O          -6.0035  -22.3380  -50.6120 O.2       14 UNK        -0.5000 
     84 N          -6.2072  -22.4225  -48.3470 N.am      15 UNK        -0.5000 
     85 CA         -7.1821  -21.3565  -48.1082 C.3       15 UNK         0.1400 
     86 CB         -8.5722  -21.7683  -48.6335 C.3       15 UNK        -0.1800 
     87 C          -6.7036  -19.9825  -48.6189 C.2       15 UNK         0.5000 
     88 O          -7.4464  -19.2855  -49.3107 O.2       15 UNK        -0.5000 
     89 N          -5.4532  -19.6359  -48.2750 N.am      16 UNK        -0.5000 
     90 CA         -4.7372  -18.4144  -48.6615 C.3       16 UNK         0.1400 
     91 CB         -5.4013  -17.1555  -48.0670 C.3       16 UNK        -0.1800 
     92 C          -4.5208  -18.3434  -50.1832 C.2       16 UNK         0.5000 
     93 O          -4.8190  -17.3324  -50.8203 O.2       16 UNK        -0.5000 
     94 N          -4.0049  -19.4564  -50.7185 N.am      17 UNK        -0.5000 
     95 CA         -3.6564  -19.7047  -52.1177 C.3       17 UNK         0.1400 
     96 CB         -2.5750  -18.7290  -52.6208 C.3       17 UNK        -0.1800 
     97 C          -4.8524  -19.7839  -53.0816 C.2       17 UNK         0.5000 
     98 O          -4.6443  -19.7349  -54.2937 O.2       17 UNK        -0.5000 
     99 N          -6.0712  -19.9757  -52.5608 N.am      18 UNK        -0.5000 
    100 CA        -7.2679  -20.2183  -53.3685 C.3       18 UNK         0.1400 
    101 CB        -8.5137  -20.1758  -52.4745 C.3       18 UNK        -0.1800 
    102 C         -7.1860  -21.5520  -54.1353 C.2       18 UNK         0.5000 
    103 O         -7.5968  -21.6120  -55.2948 O.2       18 UNK        -0.5000 
    104 N         -6.6209  -22.5803  -53.4870 N.am      19 UNK        -0.5000 
    105 CA        -6.3464  -23.8797  -54.0995 C.3       19 UNK         0.1400 
    106 CB        -6.3725  -24.9634  -53.0113 C.3       19 UNK        -0.1800 
    107 C         -5.0008  -23.9059  -54.8511 C.2       19 UNK         0.5000 
    108 O         -4.8792  -24.6325  -55.8379 O.2       19 UNK        -0.5000 
    109 N         -4.0095  -23.1426  -54.3656 N.am      20 UNK        -0.5000 
    110 CA        -2.6408  -23.1446  -54.8943 C.3       20 UNK         0.1400 
    111 CB        -1.6635  -22.6467  -53.8159 C.3       20 UNK        -0.1800 
    112 C         -2.4742  -22.3070  -56.1744 C.2       20 UNK         0.5000 
    113 O         -1.6224  -22.6386  -57.0000 O.2       20 UNK        -0.5000 
    114 N         -3.2495  -21.2199  -56.2967 N.am      21 UNK        -0.5000 
    115 CA        -3.2412  -20.1854  -57.3402 C.3       21 UNK         0.1400 
    116 CB        -3.5192  -20.7750  -58.7361 C.3       21 UNK        -0.1800 
    117 C         -1.9798  -19.2963  -57.3402 C.2       21 UNK         0.5000 
    118 O         -2.1151  -18.0749  -57.4046 O.2       21 UNK        -0.5000 
    119 N         -0.7994  -19.9260  -57.2769 N.am      22 UNK        -0.5000 
    120 CA         0.5797  -19.4053  -57.1564 C.3       22 UNK         0.1400 
    121 C          1.0670  -18.2875  -58.1313 C.2       22 UNK         0.5000 
    122 N          0.2084  -17.6387  -58.9022 N.am      22 UNK        -0.7600 
    123 O          2.2659  -18.0350  -58.2195 O.2       22 UNK        -0.5000 
    124 C124        0.9983  -19.1474  -55.6825 C.3       23 UNK        -0.0398 
    125 S125        0.1887  -17.7182  -54.8791 S.3       23 UNK        -0.2404 
    126 C126        1.5168  -17.0971  -53.7849 C.3       23 UNK        -0.0205 
    127 H127       -1.9502  -16.7924  -50.3360 H         1 UNK         0.0600 
    128 H128       -0.8412  -15.4849  -50.7586 H         1 UNK         0.0600 
    129 H129       -0.3088  -17.1628  -50.8702 H         1 UNK         0.0600 
    130 H130        1.1174  -17.6214  -49.2365 H         1 UNK         0.3000 
    131 H131        1.3101  -16.0730  -46.8355 H         1 UNK         0.0600 
    132 H132        2.8475  -18.6045  -47.5896 H         1 UNK         0.0800 
    133 H133        3.2625  -17.4915  -46.3260 H         1 UNK         0.0800 
    134 H134        4.8184  -18.5994  -49.1428 H         1 UNK         0.0800 
    135 H135        5.1374  -17.3098  -50.2698 H         1 UNK         0.0800 
    136 H136        3.3977  -16.5961  -51.9303 H         1 UNK         0.1150 
    137 H137        0.3794  -19.5067  -52.8664 H         1 UNK         0.1150 
    138 H138        2.8421  -20.0262  -49.4228 H         1 UNK         0.1150 
    139 H139        0.6434  -21.7464  -51.7086 H         1 UNK         0.0800 
    140 H140        1.3422  -21.7994  -50.1094 H         1 UNK         0.0800 
    141 H141        0.6059  -20.1409  -48.3065 H         1 UNK         0.0800 
    142 H142       -0.9828  -19.4587  -48.1095 H         1 UNK         0.0800 
    143 H143       -0.8241  -22.4520  -47.9865 H         1 UNK         0.0600 
    144 H144        0.7346  -20.9231  -46.0611 H         1 UNK         0.3000 
    145 H145        1.2598  -23.7722  -43.9995 H         1 UNK         0.0600 
    146 H146        3.6394  -23.5918  -44.6380 H         1 UNK         0.0600 
    147 H147        2.7361  -24.3341  -45.9487 H         1 UNK         0.0600 
    148 H148        3.2211  -22.6458  -46.0662 H         1 UNK         0.0600 
    149 H149        2.7534  -21.5645  -43.7306 H         1 UNK         0.3000 
    150 H150        0.7195  -19.1265  -42.4316 H         1 UNK         0.0600 
    151 H151        0.3081  -20.7751  -40.5909 H         1 UNK         0.0600 
    152 H152        1.5174  -19.5786  -40.1509 H         1 UNK         0.0600 
    153 H153        2.0097  -21.2102  -40.6033 H         1 UNK         0.0600 
    154 H154        2.7257  -18.3855  -42.6738 H         1 UNK         0.3000 
    155 H155        5.9913  -19.5462  -42.1542 H         1 UNK         0.0600 
    156 H156        5.7308  -19.8171  -44.6317 H         1 UNK         0.0600 
    157 H157        6.4671  -18.2737  -44.2308 H         1 UNK         0.0600 
    158 H158        4.7687  -18.3463  -44.6986 H         1 UNK         0.0600 
    159 H159        4.9264  -16.9515  -42.6623 H         1 UNK         0.3000 
    160 H160        3.5326  -16.1655  -39.6165 H         1 UNK         0.0600 
    161 H161        6.4389  -15.3713  -40.1907 H         1 UNK         0.0600 
    162 H162        5.8571  -16.0993  -38.6984 H         1 UNK         0.0600 
    163 H163        5.3108  -14.4950  -39.1549 H         1 UNK         0.0600 
    164 H164        4.6260  -14.4333  -41.5761 H         1 UNK         0.3000 
    165 H165        3.1926  -13.3365  -42.8979 H         1 UNK         0.0600 
    166 H166        2.9179  -15.6414  -44.9103 H         1 UNK         0.0600 
    167 H167        3.2830  -13.9697  -45.3284 H         1 UNK         0.0600 
    168 H168        4.4389  -14.9151  -44.4041 H         1 UNK         0.0600 
    169 H169        0.6796  -14.8035  -43.3278 H         1 UNK         0.3000 
    170 H170       -1.0106  -11.7217  -44.1689 H         1 UNK         0.0600 
    171 H171       -0.4993  -12.7956  -46.3440 H         1 UNK         0.0600 
    172 H172       -0.7554  -14.3896  -45.6497 H         1 UNK         0.0600 
    173 H173       -2.1009  -13.2615  -45.7917 H         1 UNK         0.0600 
    174 H174       -1.4478  -14.5266  -43.2522 H         1 UNK         0.3000 
    175 H175       -2.8899  -13.5600  -40.2363 H         1 UNK         0.0600 
    176 H176       -4.6628  -14.1535  -42.6669 H         1 UNK         0.0600 
    177 H177       -5.0977  -14.4308  -40.9797 H         1 UNK         0.0600 
    178 H178       -4.8523  -12.7941  -41.5662 H         1 UNK         0.0600 
    179 H179       -3.1090  -15.9057  -41.9577 H         1 UNK         0.3000 
    180 H180       -0.0880  -17.3835  -40.9318 H         1 UNK         0.0600 
    181 H181       -1.4994  -17.9030  -38.9440 H         1 UNK         0.0600 
    182 H182       -2.8959  -18.1581  -39.9836 H         1 UNK         0.0600 
    183 H183       -1.5062  -19.2374  -40.0842 H         1 UNK         0.0600 
    184 H184       -2.0889  -18.6331  -42.3549 H         1 UNK         0.3000 
    185 H185       -1.3644  -19.0670  -44.6122 H         1 UNK         0.0600 
    186 H186       -3.6767  -18.0901  -44.2886 H         1 UNK         0.0600 
    187 H187       -3.2552  -16.7651  -45.3690 H         1 UNK         0.0600 
    188 H188       -3.3236  -18.4218  -45.9706 H         1 UNK         0.0600 
    189 H189       -1.0881  -16.7471  -46.4306 H         1 UNK         0.3000 
    190 H190       -1.6054  -21.4886  -44.9029 H         1 UNK         0.3000 
    191 H191       -4.3575  -20.7336  -45.2182 H         1 UNK         0.0600 
    192 H192       -4.5300  -21.4269  -42.8322 H         1 UNK         0.0600 
    193 H193       -3.1099  -20.4262  -43.0884 H         1 UNK         0.0600 
    194 H194       -2.9373  -22.1707  -42.9129 H         1 UNK         0.0600 
    195 H195       -2.6564  -23.8389  -45.3088 H         1 UNK         0.3000 
    196 H196       -4.9527  -25.5624  -45.2201 H         1 UNK         0.0600 
    197 H197       -3.3207  -27.2666  -46.0306 H         1 UNK         0.0600 
    198 H198       -2.6444  -26.3377  -44.7018 H         1 UNK         0.0600 
    199 H199       -2.1386  -26.0049  -46.3580 H         1 UNK         0.0600 
    200 H200       -3.5749  -23.5727  -47.7293 H         1 UNK         0.3000 
    201 H201       -5.1623  -24.8665  -49.8913 H         1 UNK         0.0600 
    202 H202       -2.7262  -24.4717  -50.3340 H         1 UNK         0.0600 
    203 H203       -2.9497  -22.7553  -50.0079 H         1 UNK         0.0600 
    204 H204       -3.7351  -23.5002  -51.3911 H         1 UNK         0.0600 
    205 H205       -5.8792  -22.8881  -47.5107 H         1 UNK         0.3000 
    206 H206       -7.2652  -21.2547  -47.0252 H         1 UNK         0.0600 
    207 H207       -8.9195  -22.6772  -48.1424 H         1 UNK         0.0600 
    208 H208       -9.3146  -20.9933  -48.4397 H         1 UNK         0.0600 
    209 H209       -8.5633  -21.9570  -49.7054 H         1 UNK         0.0600 
    210 H210       -4.8855  -20.3270  -47.7942 H         1 UNK         0.3000 
    211 H211       -3.7396  -18.4926  -48.2283 H         1 UNK         0.0600 
    212 H212       -6.3823  -16.9661  -48.5034 H         1 UNK         0.0600 
    213 H213       -4.7874  -16.2726  -48.2488 H         1 UNK         0.0600 
    214 H214       -5.5260  -17.2475  -46.9883 H         1 UNK         0.0600 
    215 H215       -3.8176  -20.2252  -50.0890 H         1 UNK         0.3000 
    216 H216       -3.2221  -20.7032  -52.1163 H         1 UNK         0.0600 
    217 H217       -2.9519  -17.7101  -52.7098 H         1 UNK         0.0600 
    218 H218       -2.2072  -19.0255  -53.6035 H         1 UNK         0.0600 
    219 H219       -1.7179  -18.7125  -51.9524 H         1 UNK         0.0600 
    220 H220       -6.1705  -20.0517  -51.5572 H         1 UNK         0.3000 
    221 H221       -7.3489  -19.4137  -54.1023 H         1 UNK         0.0600 
    222 H222       -8.4920  -20.9661  -51.7260 H         1 UNK         0.0600 
    223 H223       -8.5949  -19.2216  -51.9535 H         1 UNK         0.0600 
    224 H224       -9.4223  -20.3055  -53.0637 H         1 UNK         0.0600 
    225 H225       -6.3560  -22.4571  -52.5128 H         1 UNK         0.3000 
    226 H226       -7.1351  -24.1120  -54.8185 H         1 UNK         0.0600 
    227 H227       -7.3221  -24.9636  -52.4758 H         1 UNK         0.0600 
    228 H228       -6.2433  -25.9551  -53.4464 H         1 UNK         0.0600 
    229 H229       -5.5762  -24.8209  -52.2822 H         1 UNK         0.0600 
    230 H230       -4.1975  -22.5653  -53.5625 H         1 UNK         0.3000 
    231 H231       -2.3688  -24.1746  -55.1358 H         1 UNK         0.0600 
    232 H232       -1.7848  -21.5831  -53.6157 H         1 UNK         0.0600 
    233 H233       -1.7852  -23.1887  -52.8784 H         1 UNK         0.0600 
    234 H234       -0.6315  -22.7914  -54.1379 H         1 UNK         0.0600 
    235 H235       -3.8680  -20.9954  -55.5225 H         1 UNK         0.3000 
    236 H236       -4.0793  -19.5305  -57.0962 H         1 UNK         0.0600 
    237 H237       -4.4411  -21.3566  -58.7405 H         1 UNK         0.0600 
    238 H238       -3.6319  -19.9809  -59.4751 H         1 UNK         0.0600 
    239 H239       -2.7120  -21.4225  -59.0786 H         1 UNK         0.0600 
    240 H240       -0.8620  -20.9405  -57.2707 H         1 UNK         0.3000 
    241 H241        1.1728  -20.2645  -57.4724 H         1 UNK         0.0600 
    242 H242        0.5331  -16.9280  -59.5384 H         1 UNK         0.3800 
    243 H243       -0.7828  -17.7504  -58.7158 H         1 UNK         0.3800 
    244 H244        2.0806  -19.0213  -55.6238 H         1 UNK         0.0800 
    245 H245        0.7802  -20.0366  -55.0905 H         1 UNK         0.0800 
    246 H246        2.4189  -16.9434  -54.3788 H         1 UNK         0.0800 
    247 H247        1.2143  -16.1112  -53.4295 H         1 UNK         0.0800 
@<TRIPOS>BOND
     1    1    2 1    
     2    1  127 1    
     3    1  128 1    
     4    1  129 1    
     5    2    3 2    
     6    2    4 am   BACKBONE|DICT|INTERRES
     7    4    5 1    
     8    4  130 1    
     9    5    6 1    
    10    5   65 1    
    11    5  131 1    
    12    6    7 1    
    13    6  132 1    
    14    6  133 1    
    15    7    8 1    
    16    8    9 1    
    17    8  134 1    
    18    8  135 1    
    19    9   10 ar   
    20    9   14 ar   
    21   10   11 ar   
    22   10  136 1    
    23   11   12 ar   
    24   11  126 1    
    25   12   13 ar   
    26   12  137 1    
    27   13   14 ar   
    28   13   15 1    
    29   14  138 1    
    30   15   16 1    
    31   15  139 1    
    32   15  140 1    
    33   16   17 1    
    34   17   18 1    
    35   17  141 1    
    36   17  142 1    
    37   18   19 1    
    38   18   67 1    
    39   18  143 1    
    40   19   20 am   BACKBONE|DICT|INTERRES
    41   19  144 1    
    42   20   21 2    
    43   20   22 1    
    44   22   23 1    
    45   22   24 1    
    46   22  145 1    
    47   23  146 1    
    48   23  147 1    
    49   23  148 1    
    50   24   25 am   BACKBONE|DICT|INTERRES
    51   24  149 1    
    52   25   26 2    
    53   25   27 1    
    54   27   28 1    
    55   27   29 1    
    56   27  150 1    
    57   28  151 1    
    58   28  152 1    
    59   28  153 1    
    60   29   30 am   BACKBONE|DICT|INTERRES
    61   29  154 1    
    62   30   31 2    
    63   30   32 1    
    64   32   33 1    
    65   32   34 1    
    66   32  155 1    
    67   33  156 1    
    68   33  157 1    
    69   33  158 1    
    70   34   35 am   BACKBONE|DICT|INTERRES
    71   34  159 1    
    72   35   36 2    
    73   35   37 1    
    74   37   38 1    
    75   37   39 1    
    76   37  160 1    
    77   38  161 1    
    78   38  162 1    
    79   38  163 1    
    80   39   40 am   BACKBONE|DICT|INTERRES
    81   39  164 1    
    82   40   41 2    
    83   40   42 1    
    84   42   43 1    
    85   42   44 1    
    86   42  165 1    
    87   43  166 1    
    88   43  167 1    
    89   43  168 1    
    90   44   45 am   BACKBONE|DICT|INTERRES
    91   44  169 1    
    92   45   46 2    
    93   45   47 1    
    94   47   48 1    
    95   47   49 1    
    96   47  170 1    
    97   48  171 1    
    98   48  172 1    
    99   48  173 1    
   100   49   50 am   BACKBONE|DICT|INTERRES
   101   49  174 1    
   102   50   51 2    
   103   50   52 1    
   104   52   53 1    
   105   52   54 1    
   106   52  175 1    
   107   53  176 1    
   108   53  177 1    
   109   53  178 1    
   110   54   55 am   BACKBONE|DICT|INTERRES
   111   54  179 1    
   112   55   56 2    
   113   55   57 1    
   114   57   58 1    
   115   57   59 1    
   116   57  180 1    
   117   58  181 1    
   118   58  182 1    
   119   58  183 1    
   120   59   60 am   BACKBONE|DICT|INTERRES
   121   59  184 1    
   122   60   61 2    
   123   60   62 1    
   124   62   63 1    
   125   62   64 1    
   126   62  185 1    
   127   63  186 1    
   128   63  187 1    
   129   63  188 1    
   130   64   65 am   BACKBONE|DICT|INTERRES
   131   64  189 1    
   132   65   66 2    
   133   67   68 2    
   134   67   69 am   BACKBONE|DICT|INTERRES
   135   69   70 1    
   136   69  190 1    
   137   70   71 1    
   138   70   72 1    
   139   70  191 1    
   140   71  192 1    
   141   71  193 1    
   142   71  194 1    
   143   72   73 2    
   144   72   74 am   BACKBONE|DICT|INTERRES
   145   74   75 1    
   146   74  195 1    
   147   75   76 1    
   148   75   77 1    
   149   75  196 1    
   150   76  197 1    
   151   76  198 1    
   152   76  199 1    
   153   77   78 2    
   154   77   79 am   BACKBONE|DICT|INTERRES
   155   79   80 1    
   156   79  200 1    
   157   80   81 1    
   158   80   82 1    
   159   80  201 1    
   160   81  202 1    
   161   81  203 1    
   162   81  204 1    
   163   82   83 2    
   164   82   84 am   BACKBONE|DICT|INTERRES
   165   84   85 1    
   166   84  205 1    
   167   85   86 1    
   168   85   87 1    
   169   85  206 1    
   170   86  207 1    
   171   86  208 1    
   172   86  209 1    
   173   87   88 2    
   174   87   89 am   BACKBONE|DICT|INTERRES
   175   89   90 1    
   176   89  210 1    
   177   90   91 1    
   178   90   92 1    
   179   90  211 1    
   180   91  212 1    
   181   91  213 1    
   182   91  214 1    
   183   92   93 2    
   184   92   94 am   BACKBONE|DICT|INTERRES
   185   94   95 1    
   186   94  215 1    
   187   95   96 1    
   188   95   97 1    
   189   95  216 1    
   190   96  217 1    
   191   96  218 1    
   192   96  219 1    
   193   97   98 2    
   194   97   99 am   BACKBONE|DICT|INTERRES
   195   99  100 1    
   196   99  220 1    
   197  100  101 1    
   198  100  102 1    
   199  100  221 1    
   200  101  222 1    
   201  101  223 1    
   202  101  224 1    
   203  102  103 2    
   204  102  104 am   BACKBONE|DICT|INTERRES
   205  104  105 1    
   206  104  225 1    
   207  105  106 1    
   208  105  107 1    
   209  105  226 1    
   210  106  227 1    
   211  106  228 1    
   212  106  229 1    
   213  107  108 2    
   214  107  109 am   BACKBONE|DICT|INTERRES
   215  109  110 1    
   216  109  230 1    
   217  110  111 1    
   218  110  112 1    
   219  110  231 1    
   220  111  232 1    
   221  111  233 1    
   222  111  234 1    
   223  112  113 2    
   224  112  114 am   BACKBONE|DICT|INTERRES
   225  114  115 1    
   226  114  235 1    
   227  115  116 1    
   228  115  117 1    
   229  115  236 1    
   230  116  237 1    
   231  116  238 1    
   232  116  239 1    
   233  117  118 2    
   234  117  119 am   BACKBONE|DICT|INTERRES
   235  119  120 1    
   236  119  240 1    
   237  120  121 1    
   238  120  124 1    
   239  120  241 1    
   240  121  122 am   BACKBONE|DICT|INTERRES
   241  121  123 2    
   242  122  242 1    
   243  122  243 1    
   244  124  125 1    
   245  124  244 1    
   246  124  245 1    
   247  125  126 1    
   248  126  246 1    
   249  126  247 1    
@<TRIPOS>SUBSTRUCTURE
     1 UNK         1 GROUP             0       ****    0 ROOT    
