@<TRIPOS>MOLECULE
3R540
247   249    1
SMALL
USER_CHARGES


@<TRIPOS>ATOM
      1 CA         -5.3781   -8.4325  -46.8004 C.3       0 UNK        -0.1800 
      2 C          -4.4099   -9.4366  -47.4103 C.2       0 UNK         0.5000 
      3 O          -4.0676   -9.3204  -48.5874 O.2       0 UNK        -0.5000 
      4 N          -3.9750  -10.4248  -46.6185 N.am      1 UNK        -0.5000 
      5 CA         -2.9918  -11.4392  -47.0062 C.3       1 UNK         0.1400 
      6 C6         -3.0249  -12.6407  -46.0224 C.3       23 UNK        -0.0398 
      7 S7         -1.7712  -13.9320  -46.3309 S.3       23 UNK        -0.2404 
      8 C8         -2.5099  -14.8423  -47.7179 C.3       23 UNK        -0.0205 
      9 C9         -1.4331  -15.5769  -48.4966 C.ar      23 UNK        -0.0193 
     10 C10        -0.9057  -15.0209  -49.6657 C.ar      23 UNK        -0.1150 
     11 C11         0.0752  -15.6979  -50.3958 C.ar      23 UNK        -0.0193 
     12 C12         0.5440  -16.9313  -49.9305 C.ar      23 UNK        -0.1150 
     13 C13         0.0438  -17.4836  -48.7466 C.ar      23 UNK        -0.0193 
     14 C14        -0.9505  -16.8055  -48.0415 C.ar      23 UNK        -0.1150 
     15 C15         0.6091  -18.7851  -48.1994 C.3       23 UNK        -0.0205 
     16 S16         0.0132  -20.2435  -49.1044 S.3       23 UNK        -0.2404 
     17 C17        -1.6868  -20.4797  -48.4797 C.3       23 UNK        -0.0398 
     18 CA         -1.7431  -21.6683  -47.4962 C.3       11 UNK         0.1400 
     19 N          -1.1338  -21.3534  -46.2028 N.am      11 UNK        -0.5000 
     20 C          -0.5543  -22.2684  -45.4171 C.2       10 UNK         0.5000 
     21 O          -0.4951  -23.4674  -45.6892 O.2       10 UNK        -0.5000 
     22 CA          0.0353  -21.7559  -44.0926 C.3       10 UNK         0.1400 
     23 CB          1.3454  -21.0000  -44.3476 C.3       10 UNK        -0.1800 
     24 N          -0.8823  -20.8894  -43.3533 N.am      10 UNK        -0.5000 
     25 C          -2.0754  -21.2734  -42.8792 C.2       9 UNK         0.5000 
     26 O          -2.5379  -22.4050  -43.0186 O.2       9 UNK        -0.5000 
     27 CA         -2.9147  -20.2023  -42.1611 C.3       9 UNK         0.1400 
     28 CB         -2.4938  -20.0892  -40.6884 C.3       9 UNK        -0.1800 
     29 N          -2.8462  -18.8790  -42.7814 N.am      9 UNK        -0.5000 
     30 C          -3.1455  -18.5861  -44.0558 C.2       8 UNK         0.5000 
     31 O          -3.4733  -19.4194  -44.8989 O.2       8 UNK        -0.5000 
     32 CA         -3.0220  -17.1093  -44.4654 C.3       8 UNK         0.1400 
     33 CB         -4.3507  -16.3711  -44.2500 C.3       8 UNK        -0.1800 
     34 N          -1.9565  -16.4103  -43.7472 N.am      8 UNK        -0.5000 
     35 C          -0.6507  -16.6884  -43.8603 C.2       7 UNK         0.5000 
     36 O          -0.2015  -17.5326  -44.6403 O.2       7 UNK        -0.5000 
     37 CA          0.3019  -15.8741  -42.9586 C.3       7 UNK         0.1400 
     38 CB         -0.3219  -15.4874  -41.5990 C.3       7 UNK        -0.1800 
     39 N           1.5917  -16.5349  -42.7516 N.am      7 UNK        -0.5000 
     40 C           1.8354  -17.7294  -42.1955 C.2       6 UNK         0.5000 
     41 O           0.9638  -18.4779  -41.7472 O.2       6 UNK        -0.5000 
     42 CA          3.3228  -18.1489  -42.1674 C.3       6 UNK         0.1400 
     43 CB          3.5904  -19.3624  -41.2583 C.3       6 UNK        -0.1800 
     44 N           3.8434  -18.4221  -43.5121 N.am      6 UNK        -0.5000 
     45 C           4.1116  -17.4892  -44.4363 C.2       5 UNK         0.5000 
     46 O           3.9867  -16.2804  -44.2188 O.2       5 UNK        -0.5000 
     47 CA          4.5852  -17.9648  -45.8246 C.3       5 UNK         0.1400 
     48 CB          3.9676  -19.3080  -46.2556 C.3       5 UNK        -0.1800 
     49 N           4.2235  -16.9422  -46.8020 N.am      5 UNK        -0.5000 
     50 C           5.0601  -16.3036  -47.6272 C.2       4 UNK         0.5000 
     51 O           6.2416  -16.6134  -47.7860 O.2       4 UNK        -0.5000 
     52 CA          4.4788  -15.0966  -48.3949 C.3       4 UNK         0.1400 
     53 CB          4.0996  -15.4987  -49.8271 C.3       4 UNK        -0.1800 
     54 N           3.3080  -14.5060  -47.7354 N.am      4 UNK        -0.5000 
     55 C           3.3620  -13.7964  -46.5987 C.2       3 UNK         0.5000 
     56 O           4.4141  -13.4880  -46.0358 O.2       3 UNK        -0.5000 
     57 CA          2.0019  -13.3632  -46.0158 C.3       3 UNK         0.1400 
     58 CB          2.1203  -12.6363  -44.6608 C.3       3 UNK        -0.1800 
     59 N           1.2109  -12.5692  -46.9601 N.am      3 UNK        -0.5000 
     60 C           1.5506  -11.4073  -47.5412 C.2       2 UNK         0.5000 
     61 O           2.6255  -10.8325  -47.3672 O.2       2 UNK        -0.5000 
     62 CA          0.5087  -10.7725  -48.4843 C.3       2 UNK         0.1400 
     63 CB          0.8413  -11.1161  -49.9442 C.3       2 UNK        -0.1800 
     64 N          -0.8662  -11.1934  -48.2042 N.am      2 UNK        -0.5000 
     65 C          -1.5879  -10.8051  -47.1435 C.2       1 UNK         0.5000 
     66 O          -1.1859  -10.0097  -46.2907 O.2       1 UNK        -0.5000 
     67 C          -3.1635  -22.2459  -47.3321 C.2       11 UNK         0.5000 
     68 O          -3.5737  -23.0561  -48.1622 O.2       11 UNK        -0.5000 
     69 N          -3.8708  -21.8950  -46.2475 N.am      12 UNK        -0.5000 
     70 CA         -5.1427  -22.5118  -45.8616 C.3       12 UNK         0.1400 
     71 CB         -5.7885  -21.7193  -44.7166 C.3       12 UNK        -0.1800 
     72 C          -4.9784  -23.9943  -45.4773 C.2       12 UNK         0.5000 
     73 O          -5.7869  -24.8203  -45.9001 O.2       12 UNK        -0.5000 
     74 N          -3.9032  -24.3223  -44.7442 N.am      13 UNK        -0.5000 
     75 CA         -3.5021  -25.6969  -44.4225 C.3       13 UNK         0.1400 
     76 CB         -2.3732  -25.6707  -43.3817 C.3       13 UNK        -0.1800 
     77 C          -3.0775  -26.5074  -45.6647 C.2       13 UNK         0.5000 
     78 O          -3.2487  -27.7261  -45.6861 O.2       13 UNK        -0.5000 
     79 N          -2.5792  -25.8078  -46.6923 N.am      14 UNK        -0.5000 
     80 CA         -2.2614  -26.3370  -48.0198 C.3       14 UNK         0.1400 
     81 CB         -1.1479  -25.4688  -48.6269 C.3       14 UNK        -0.1800 
     82 C          -3.4927  -26.3948  -48.9547 C.2       14 UNK         0.5000 
     83 O          -3.3332  -26.6749  -50.1464 O.2       14 UNK        -0.5000 
     84 N          -4.6871  -26.0917  -48.4179 N.am      15 UNK        -0.5000 
     85 CA         -6.0056  -26.0779  -49.0638 C.3       15 UNK         0.1400 
     86 CB         -6.4045  -27.5064  -49.4886 C.3       15 UNK        -0.1800 
     87 C          -6.1281  -25.0679  -50.2239 C.2       15 UNK         0.5000 
     88 O          -7.0040  -25.2260  -51.0757 O.2       15 UNK        -0.5000 
     89 N          -5.2245  -24.0756  -50.2609 N.am      16 UNK        -0.5000 
     90 CA         -4.9696  -23.1365  -51.3579 C.3       16 UNK         0.1400 
     91 CB         -6.1523  -22.1614  -51.5287 C.3       16 UNK        -0.1800 
     92 C          -4.5713  -23.8323  -52.6835 C.2       16 UNK         0.5000 
     93 O          -4.6981  -23.2231  -53.7471 O.2       16 UNK        -0.5000 
     94 N          -4.1203  -25.0932  -52.6028 N.am      17 UNK        -0.5000 
     95 CA         -3.8892  -25.9810  -53.7392 C.3       17 UNK         0.1400 
     96 CB         -4.8332  -27.1897  -53.6302 C.3       17 UNK        -0.1800 
     97 C          -2.4263  -26.4352  -53.7973 C.2       17 UNK         0.5000 
     98 O          -1.7985  -26.3066  -54.8490 O.2       17 UNK        -0.5000 
     99 N          -1.8957  -26.9389  -52.6724 N.am      18 UNK        -0.5000 
    100 CA        -0.4919  -27.3503  -52.5523 C.3       18 UNK         0.1400 
    101 CB        -0.3429  -28.3448  -51.3900 C.3       18 UNK        -0.1800 
    102 C          0.4625  -26.1464  -52.4108 C.2       18 UNK         0.5000 
    103 O          1.6407  -26.2549  -52.7520 O.2       18 UNK        -0.5000 
    104 N         -0.0803  -25.0139  -51.9558 N.am      19 UNK        -0.5000 
    105 CA         0.5195  -23.6899  -51.9741 C.3       19 UNK         0.1400 
    106 CB         1.2764  -23.4228  -50.6626 C.3       19 UNK        -0.1800 
    107 C         -0.6529  -22.7236  -52.1678 C.2       19 UNK         0.5000 
    108 O         -1.6296  -22.8169  -51.4219 O.2       19 UNK        -0.5000 
    109 N         -0.5757  -21.8673  -53.1921 N.am      20 UNK        -0.5000 
    110 CA        -1.6389  -20.9305  -53.5519 C.3       20 UNK         0.1400 
    111 CB        -1.3800  -20.3879  -54.9660 C.3       20 UNK        -0.1800 
    112 C         -1.7395  -19.7797  -52.5378 C.2       20 UNK         0.5000 
    113 O         -0.7213  -19.1680  -52.2181 O.2       20 UNK        -0.5000 
    114 N         -2.9673  -19.4835  -52.0920 N.am      21 UNK        -0.5000 
    115 CA        -3.2783  -18.4352  -51.1129 C.3       21 UNK         0.1400 
    116 CB        -4.5875  -18.8086  -50.3958 C.3       21 UNK        -0.1800 
    117 C         -3.3515  -17.0152  -51.7149 C.2       21 UNK         0.5000 
    118 O         -3.6865  -16.0737  -50.9963 O.2       21 UNK        -0.5000 
    119 N         -3.0517  -16.8849  -53.0141 N.am      22 UNK        -0.5000 
    120 CA        -2.8849  -15.6208  -53.7541 C.3       22 UNK         0.1400 
    121 C         -4.1873  -14.7846  -53.9513 C.2       22 UNK         0.5000 
    122 N         -5.3720  -15.3441  -53.7394 N.am      22 UNK        -0.7600 
    123 O         -4.1302  -13.6205  -54.3389 O.2       22 UNK        -0.5000 
    124 C124       -1.6989  -14.7643  -53.2233 C.3       23 UNK        -0.0398 
    125 S125       -0.1210  -15.6889  -53.1862 S.3       23 UNK        -0.2404 
    126 C126        0.6606  -15.0781  -51.6590 C.3       23 UNK        -0.0205 
    127 H127       -4.9539   -7.4293  -46.8429 H         1 UNK         0.0600 
    128 H128       -5.5999   -8.6638  -45.7582 H         1 UNK         0.0600 
    129 H129       -6.3164   -8.4309  -47.3552 H         1 UNK         0.0600 
    130 H130       -4.2698  -10.4449  -45.6528 H         1 UNK         0.3000 
    131 H131       -3.2882  -11.8119  -47.9889 H         1 UNK         0.0600 
    132 H132       -4.0118  -13.1055  -46.0361 H         1 UNK         0.0800 
    133 H133       -2.8757  -12.2872  -45.0008 H         1 UNK         0.0800 
    134 H134       -3.2534  -15.5466  -47.3433 H         1 UNK         0.0800 
    135 H135       -3.0441  -14.1606  -48.3806 H         1 UNK         0.0800 
    136 H136       -1.2681  -14.0645  -50.0125 H         1 UNK         0.1150 
    137 H137        1.3041  -17.4612  -50.4869 H         1 UNK         0.1150 
    138 H138       -1.3302  -17.2283  -47.1253 H         1 UNK         0.1150 
    139 H139        1.6960  -18.7532  -48.2818 H         1 UNK         0.0800 
    140 H140        0.3877  -18.8938  -47.1366 H         1 UNK         0.0800 
    141 H141       -2.3080  -20.6844  -49.3530 H         1 UNK         0.0800 
    142 H142       -2.0712  -19.5645  -48.0277 H         1 UNK         0.0800 
    143 H143       -1.1610  -22.4726  -47.9508 H         1 UNK         0.0600 
    144 H144       -1.1848  -20.3957  -45.8867 H         1 UNK         0.3000 
    145 H145        0.2549  -22.6252  -43.4693 H         1 UNK         0.0600 
    146 H146        1.8499  -20.7777  -43.4107 H         1 UNK         0.0600 
    147 H147        2.0321  -21.5890  -44.9570 H         1 UNK         0.0600 
    148 H148        1.1665  -20.0552  -44.8614 H         1 UNK         0.0600 
    149 H149       -0.5800  -19.9376  -43.1897 H         1 UNK         0.3000 
    150 H150       -3.9571  -20.5229  -42.1914 H         1 UNK         0.0600 
    151 H151       -2.5476  -21.0585  -40.1908 H         1 UNK         0.0600 
    152 H152       -3.1465  -19.4082  -40.1418 H         1 UNK         0.0600 
    153 H153       -1.4699  -19.7253  -40.5898 H         1 UNK         0.0600 
    154 H154       -2.5564  -18.1212  -42.1819 H         1 UNK         0.3000 
    155 H155       -2.7947  -17.0829  -45.5294 H         1 UNK         0.0600 
    156 H156       -4.6315  -16.3432  -43.1965 H         1 UNK         0.0600 
    157 H157       -5.1604  -16.8598  -44.7937 H         1 UNK         0.0600 
    158 H158       -4.2929  -15.3440  -44.6106 H         1 UNK         0.0600 
    159 H159       -2.2455  -15.6880  -43.1042 H         1 UNK         0.3000 
    160 H160        0.5172  -14.9532  -43.5009 H         1 UNK         0.0600 
    161 H161       -0.6753  -16.3620  -41.0513 H         1 UNK         0.0600 
    162 H162       -1.1653  -14.8075  -41.7223 H         1 UNK         0.0600 
    163 H163        0.4042  -14.9742  -40.9683 H         1 UNK         0.0600 
    164 H164        2.3919  -16.0771  -43.1790 H         1 UNK         0.3000 
    165 H165        3.8819  -17.3097  -41.7477 H         1 UNK         0.0600 
    166 H166        3.2400  -19.1704  -40.2434 H         1 UNK         0.0600 
    167 H167        3.0888  -20.2628  -41.6094 H         1 UNK         0.0600 
    168 H168        4.6571  -19.5778  -41.1952 H         1 UNK         0.0600 
    169 H169        3.9492  -19.3944  -43.7600 H         1 UNK         0.3000 
    170 H170        5.6698  -18.0765  -45.7704 H         1 UNK         0.0600 
    171 H171        4.2898  -20.1254  -45.6100 H         1 UNK         0.0600 
    172 H172        2.8794  -19.2709  -46.2348 H         1 UNK         0.0600 
    173 H173        4.2691  -19.5681  -47.2706 H         1 UNK         0.0600 
    174 H174        3.2943  -16.5621  -46.6999 H         1 UNK         0.3000 
    175 H175        5.2598  -14.3354  -48.4522 H         1 UNK         0.0600 
    176 H176        3.3362  -16.2760  -49.8360 H         1 UNK         0.0600 
    177 H177        3.7237  -14.6445  -50.3902 H         1 UNK         0.0600 
    178 H178        4.9657  -15.8861  -50.3651 H         1 UNK         0.0600 
    179 H179        2.4087  -14.6874  -48.1574 H         1 UNK         0.3000 
    180 H180        1.4397  -14.2820  -45.8411 H         1 UNK         0.0600 
    181 H181        1.1366  -12.3971  -44.2564 H         1 UNK         0.0600 
    182 H182        2.6825  -11.7059  -44.7461 H         1 UNK         0.0600 
    183 H183        2.6310  -13.2616  -43.9273 H         1 UNK         0.0600 
    184 H184        0.2941  -12.9405  -47.1698 H         1 UNK         0.3000 
    185 H185        0.5678   -9.6886  -48.3638 H         1 UNK         0.0600 
    186 H186        0.1438  -10.6398  -50.6334 H         1 UNK         0.0600 
    187 H187        1.8427  -10.7732  -50.2079 H         1 UNK         0.0600 
    188 H188        0.8078  -12.1915  -50.1180 H         1 UNK         0.0600 
    189 H189       -1.2786  -11.8333  -48.8661 H         1 UNK         0.3000 
    190 H190       -3.5190  -21.1615  -45.6381 H         1 UNK         0.3000 
    191 H191       -5.8119  -22.4641  -46.7234 H         1 UNK         0.0600 
    192 H192       -6.7565  -22.1433  -44.4468 H         1 UNK         0.0600 
    193 H193       -5.9565  -20.6804  -45.0006 H         1 UNK         0.0600 
    194 H194       -5.1667  -21.7278  -43.8223 H         1 UNK         0.0600 
    195 H195       -3.3136  -23.5824  -44.3727 H         1 UNK         0.3000 
    196 H196       -4.3621  -26.2026  -43.9788 H         1 UNK         0.0600 
    197 H197       -1.4944  -25.1438  -43.7544 H         1 UNK         0.0600 
    198 H198       -2.6949  -25.1767  -42.4648 H         1 UNK         0.0600 
    199 H199       -2.0626  -26.6815  -43.1144 H         1 UNK         0.0600 
    200 H200       -2.4532  -24.8126  -46.5693 H         1 UNK         0.3000 
    201 H201       -1.8804  -27.3543  -47.9122 H         1 UNK         0.0600 
    202 H202       -0.3563  -25.2652  -47.9055 H         1 UNK         0.0600 
    203 H203       -1.5295  -24.5149  -48.9886 H         1 UNK         0.0600 
    204 H204       -0.6821  -25.9658  -49.4731 H         1 UNK         0.0600 
    205 H205       -4.7031  -25.8162  -47.4436 H         1 UNK         0.3000 
    206 H206       -6.7147  -25.7486  -48.3036 H         1 UNK         0.0600 
    207 H207       -6.3165  -28.2040  -48.6557 H         1 UNK         0.0600 
    208 H208       -7.4399  -27.5411  -49.8293 H         1 UNK         0.0600 
    209 H209       -5.7804  -27.8754  -50.3030 H         1 UNK         0.0600 
    210 H210       -4.5764  -23.9924  -49.4807 H         1 UNK         0.3000 
    211 H211       -4.1111  -22.5429  -51.0466 H         1 UNK         0.0600 
    212 H212       -5.9077  -21.3669  -52.2343 H         1 UNK         0.0600 
    213 H213       -6.4082  -21.6845  -50.5825 H         1 UNK         0.0600 
    214 H214       -7.0432  -22.6661  -51.9028 H         1 UNK         0.0600 
    215 H215       -4.0100  -25.5047  -51.6825 H         1 UNK         0.3000 
    216 H216       -4.1093  -25.4684  -54.6779 H         1 UNK         0.0600 
    217 H217       -4.6777  -27.7444  -52.7040 H         1 UNK         0.0600 
    218 H218       -4.6817  -27.8816  -54.4596 H         1 UNK         0.0600 
    219 H219       -5.8765  -26.8739  -53.6552 H         1 UNK         0.0600 
    220 H220       -2.4637  -27.0014  -51.8317 H         1 UNK         0.3000 
    221 H221       -0.2036  -27.8744  -53.4662 H         1 UNK         0.0600 
    222 H222       -0.8758  -29.2714  -51.6036 H         1 UNK         0.0600 
    223 H223       -0.7369  -27.9510  -50.4554 H         1 UNK         0.0600 
    224 H224        0.7036  -28.6044  -51.2255 H         1 UNK         0.0600 
    225 H225       -1.0639  -25.0121  -51.7187 H         1 UNK         0.3000 
    226 H226        1.2081  -23.6067  -52.8176 H         1 UNK         0.0600 
    227 H227        0.6110  -23.4428  -49.7991 H         1 UNK         0.0600 
    228 H228        2.0596  -24.1630  -50.4997 H         1 UNK         0.0600 
    229 H229        1.7519  -22.4417  -50.6847 H         1 UNK         0.0600 
    230 H230        0.2673  -21.8261  -53.7455 H         1 UNK         0.3000 
    231 H231       -2.5845  -21.4761  -53.5672 H         1 UNK         0.0600 
    232 H232       -0.4378  -19.8409  -55.0218 H         1 UNK         0.0600 
    233 H233       -2.1738  -19.7063  -55.2743 H         1 UNK         0.0600 
    234 H234       -1.3443  -21.1951  -55.6979 H         1 UNK         0.0600 
    235 H235       -3.7529  -20.0150  -52.4369 H         1 UNK         0.3000 
    236 H236       -2.4806  -18.4074  -50.3680 H         1 UNK         0.0600 
    237 H237       -4.5229  -19.7947  -49.9359 H         1 UNK         0.0600 
    238 H238       -4.8151  -18.0982  -49.5999 H         1 UNK         0.0600 
    239 H239       -5.4342  -18.8144  -51.0831 H         1 UNK         0.0600 
    240 H240       -2.7979  -17.7203  -53.5180 H         1 UNK         0.3000 
    241 H241       -2.6177  -15.9266  -54.7661 H         1 UNK         0.0600 
    242 H242       -6.2105  -14.8026  -53.8797 H         1 UNK         0.3800 
    243 H243       -5.4359  -16.2967  -53.4188 H         1 UNK         0.3800 
    244 H244       -1.9310  -14.3787  -52.2315 H         1 UNK         0.0800 
    245 H245       -1.5444  -13.8897  -53.8571 H         1 UNK         0.0800 
    246 H246        1.7258  -15.3048  -51.7090 H         1 UNK         0.0800 
    247 H247        0.5864  -13.9909  -51.6272 H         1 UNK         0.0800 
@<TRIPOS>BOND
     1    1    2 1    
     2    1  127 1    
     3    1  128 1    
     4    1  129 1    
     5    2    3 2    
     6    2    4 am   BACKBONE|DICT|INTERRES
     7    4    5 1    
     8    4  130 1    
     9    5    6 1    
    10    5   65 1    
    11    5  131 1    
    12    6    7 1    
    13    6  132 1    
    14    6  133 1    
    15    7    8 1    
    16    8    9 1    
    17    8  134 1    
    18    8  135 1    
    19    9   10 ar   
    20    9   14 ar   
    21   10   11 ar   
    22   10  136 1    
    23   11   12 ar   
    24   11  126 1    
    25   12   13 ar   
    26   12  137 1    
    27   13   14 ar   
    28   13   15 1    
    29   14  138 1    
    30   15   16 1    
    31   15  139 1    
    32   15  140 1    
    33   16   17 1    
    34   17   18 1    
    35   17  141 1    
    36   17  142 1    
    37   18   19 1    
    38   18   67 1    
    39   18  143 1    
    40   19   20 am   BACKBONE|DICT|INTERRES
    41   19  144 1    
    42   20   21 2    
    43   20   22 1    
    44   22   23 1    
    45   22   24 1    
    46   22  145 1    
    47   23  146 1    
    48   23  147 1    
    49   23  148 1    
    50   24   25 am   BACKBONE|DICT|INTERRES
    51   24  149 1    
    52   25   26 2    
    53   25   27 1    
    54   27   28 1    
    55   27   29 1    
    56   27  150 1    
    57   28  151 1    
    58   28  152 1    
    59   28  153 1    
    60   29   30 am   BACKBONE|DICT|INTERRES
    61   29  154 1    
    62   30   31 2    
    63   30   32 1    
    64   32   33 1    
    65   32   34 1    
    66   32  155 1    
    67   33  156 1    
    68   33  157 1    
    69   33  158 1    
    70   34   35 am   BACKBONE|DICT|INTERRES
    71   34  159 1    
    72   35   36 2    
    73   35   37 1    
    74   37   38 1    
    75   37   39 1    
    76   37  160 1    
    77   38  161 1    
    78   38  162 1    
    79   38  163 1    
    80   39   40 am   BACKBONE|DICT|INTERRES
    81   39  164 1    
    82   40   41 2    
    83   40   42 1    
    84   42   43 1    
    85   42   44 1    
    86   42  165 1    
    87   43  166 1    
    88   43  167 1    
    89   43  168 1    
    90   44   45 am   BACKBONE|DICT|INTERRES
    91   44  169 1    
    92   45   46 2    
    93   45   47 1    
    94   47   48 1    
    95   47   49 1    
    96   47  170 1    
    97   48  171 1    
    98   48  172 1    
    99   48  173 1    
   100   49   50 am   BACKBONE|DICT|INTERRES
   101   49  174 1    
   102   50   51 2    
   103   50   52 1    
   104   52   53 1    
   105   52   54 1    
   106   52  175 1    
   107   53  176 1    
   108   53  177 1    
   109   53  178 1    
   110   54   55 am   BACKBONE|DICT|INTERRES
   111   54  179 1    
   112   55   56 2    
   113   55   57 1    
   114   57   58 1    
   115   57   59 1    
   116   57  180 1    
   117   58  181 1    
   118   58  182 1    
   119   58  183 1    
   120   59   60 am   BACKBONE|DICT|INTERRES
   121   59  184 1    
   122   60   61 2    
   123   60   62 1    
   124   62   63 1    
   125   62   64 1    
   126   62  185 1    
   127   63  186 1    
   128   63  187 1    
   129   63  188 1    
   130   64   65 am   BACKBONE|DICT|INTERRES
   131   64  189 1    
   132   65   66 2    
   133   67   68 2    
   134   67   69 am   BACKBONE|DICT|INTERRES
   135   69   70 1    
   136   69  190 1    
   137   70   71 1    
   138   70   72 1    
   139   70  191 1    
   140   71  192 1    
   141   71  193 1    
   142   71  194 1    
   143   72   73 2    
   144   72   74 am   BACKBONE|DICT|INTERRES
   145   74   75 1    
   146   74  195 1    
   147   75   76 1    
   148   75   77 1    
   149   75  196 1    
   150   76  197 1    
   151   76  198 1    
   152   76  199 1    
   153   77   78 2    
   154   77   79 am   BACKBONE|DICT|INTERRES
   155   79   80 1    
   156   79  200 1    
   157   80   81 1    
   158   80   82 1    
   159   80  201 1    
   160   81  202 1    
   161   81  203 1    
   162   81  204 1    
   163   82   83 2    
   164   82   84 am   BACKBONE|DICT|INTERRES
   165   84   85 1    
   166   84  205 1    
   167   85   86 1    
   168   85   87 1    
   169   85  206 1    
   170   86  207 1    
   171   86  208 1    
   172   86  209 1    
   173   87   88 2    
   174   87   89 am   BACKBONE|DICT|INTERRES
   175   89   90 1    
   176   89  210 1    
   177   90   91 1    
   178   90   92 1    
   179   90  211 1    
   180   91  212 1    
   181   91  213 1    
   182   91  214 1    
   183   92   93 2    
   184   92   94 am   BACKBONE|DICT|INTERRES
   185   94   95 1    
   186   94  215 1    
   187   95   96 1    
   188   95   97 1    
   189   95  216 1    
   190   96  217 1    
   191   96  218 1    
   192   96  219 1    
   193   97   98 2    
   194   97   99 am   BACKBONE|DICT|INTERRES
   195   99  100 1    
   196   99  220 1    
   197  100  101 1    
   198  100  102 1    
   199  100  221 1    
   200  101  222 1    
   201  101  223 1    
   202  101  224 1    
   203  102  103 2    
   204  102  104 am   BACKBONE|DICT|INTERRES
   205  104  105 1    
   206  104  225 1    
   207  105  106 1    
   208  105  107 1    
   209  105  226 1    
   210  106  227 1    
   211  106  228 1    
   212  106  229 1    
   213  107  108 2    
   214  107  109 am   BACKBONE|DICT|INTERRES
   215  109  110 1    
   216  109  230 1    
   217  110  111 1    
   218  110  112 1    
   219  110  231 1    
   220  111  232 1    
   221  111  233 1    
   222  111  234 1    
   223  112  113 2    
   224  112  114 am   BACKBONE|DICT|INTERRES
   225  114  115 1    
   226  114  235 1    
   227  115  116 1    
   228  115  117 1    
   229  115  236 1    
   230  116  237 1    
   231  116  238 1    
   232  116  239 1    
   233  117  118 2    
   234  117  119 am   BACKBONE|DICT|INTERRES
   235  119  120 1    
   236  119  240 1    
   237  120  121 1    
   238  120  124 1    
   239  120  241 1    
   240  121  122 am   BACKBONE|DICT|INTERRES
   241  121  123 2    
   242  122  242 1    
   243  122  243 1    
   244  124  125 1    
   245  124  244 1    
   246  124  245 1    
   247  125  126 1    
   248  126  246 1    
   249  126  247 1    
@<TRIPOS>SUBSTRUCTURE
     1 UNK         1 GROUP             0       ****    0 ROOT    
