@<TRIPOS>MOLECULE
3R540
247   249    1
SMALL
USER_CHARGES


@<TRIPOS>ATOM
      1 CA          4.0197  -16.4884  -46.3710 C.3       0 UNK        -0.1800 
      2 C           3.2520  -15.1758  -46.3340 C.2       0 UNK         0.5000 
      3 O           3.2214  -14.5078  -45.3028 O.2       0 UNK        -0.5000 
      4 N           2.6503  -14.7910  -47.4650 N.am      1 UNK        -0.5000 
      5 CA          1.7687  -13.6244  -47.6252 C.3       1 UNK         0.1400 
      6 C6          1.1703  -13.5398  -49.0524 C.3       23 UNK        -0.0398 
      7 S7          0.4247  -15.1035  -49.6346 S.3       23 UNK        -0.2404 
      8 C8          1.7721  -15.7296  -50.6869 C.3       23 UNK        -0.0205 
      9 C9          1.3997  -17.0317  -51.3752 C.ar      23 UNK        -0.0193 
     10 C10         1.0764  -17.0356  -52.7338 C.ar      23 UNK        -0.1150 
     11 C11         0.7670  -18.2313  -53.3853 C.ar      23 UNK        -0.0193 
     12 C12         0.7915  -19.4297  -52.6674 C.ar      23 UNK        -0.1150 
     13 C13         1.1115  -19.4459  -51.3056 C.ar      23 UNK        -0.0193 
     14 C14         1.4084  -18.2358  -50.6643 C.ar      23 UNK        -0.1150 
     15 C15         1.0985  -20.7842  -50.5678 C.3       23 UNK        -0.0205 
     16 S16         2.2843  -20.9200  -49.1827 S.3       23 UNK        -0.2404 
     17 C17         1.2415  -20.4579  -47.7565 C.3       23 UNK        -0.0398 
     18 CA          0.6918  -21.6956  -47.0019 C.3       11 UNK         0.1400 
     19 N           0.3114  -21.3849  -45.6204 N.am      11 UNK        -0.5000 
     20 C          -0.0450  -22.2958  -44.7021 C.2       10 UNK         0.5000 
     21 O          -0.0221  -23.5093  -44.9005 O.2       10 UNK        -0.5000 
     22 CA         -0.5725  -21.7674  -43.3555 C.3       10 UNK         0.1400 
     23 CB          0.5848  -21.4129  -42.4111 C.3       10 UNK        -0.1800 
     24 N          -1.4618  -20.6163  -43.5191 N.am      10 UNK        -0.5000 
     25 C          -2.6410  -20.6624  -44.1559 C.2       9 UNK         0.5000 
     26 O          -3.1330  -21.6997  -44.5991 O.2       9 UNK        -0.5000 
     27 CA         -3.3678  -19.3248  -44.3865 C.3       9 UNK         0.1400 
     28 CB         -4.1923  -18.9260  -43.1541 C.3       9 UNK        -0.1800 
     29 N          -2.4547  -18.2390  -44.7460 N.am      9 UNK        -0.5000 
     30 C          -1.7056  -18.2066  -45.8583 C.2       8 UNK         0.5000 
     31 O          -1.7358  -19.0766  -46.7281 O.2       8 UNK        -0.5000 
     32 CA         -0.7188  -17.0311  -45.9910 C.3       8 UNK         0.1400 
     33 CB         -1.4628  -15.7578  -46.4224 C.3       8 UNK        -0.1800 
     34 N           0.0160  -16.7924  -44.7446 N.am      8 UNK        -0.5000 
     35 C           0.8454  -17.6807  -44.1756 C.2       7 UNK         0.5000 
     36 O           1.1624  -18.7448  -44.7063 O.2       7 UNK        -0.5000 
     37 CA          1.3455  -17.3748  -42.7507 C.3       7 UNK         0.1400 
     38 CB          2.6460  -16.5614  -42.7503 C.3       7 UNK        -0.1800 
     39 N           0.3357  -16.6828  -41.9525 N.am      7 UNK        -0.5000 
     40 C          -0.7566  -17.2717  -41.4478 C.2       6 UNK         0.5000 
     41 O          -0.9954  -18.4730  -41.5610 O.2       6 UNK        -0.5000 
     42 CA         -1.7697  -16.3552  -40.7365 C.3       6 UNK         0.1400 
     43 CB         -1.3762  -16.1540  -39.2657 C.3       6 UNK        -0.1800 
     44 N          -1.8919  -15.0497  -41.3878 N.am      6 UNK        -0.5000 
     45 C          -2.3986  -14.8595  -42.6148 C.2       5 UNK         0.5000 
     46 O          -2.8915  -15.7611  -43.2906 O.2       5 UNK        -0.5000 
     47 CA         -2.2826  -13.4393  -43.2047 C.3       5 UNK         0.1400 
     48 CB         -3.5316  -12.6116  -42.8691 C.3       5 UNK        -0.1800 
     49 N          -1.0874  -12.7311  -42.7352 N.am      5 UNK        -0.5000 
     50 C           0.1682  -13.0961  -43.0262 C.2       4 UNK         0.5000 
     51 O           0.4491  -14.0212  -43.7900 O.2       4 UNK        -0.5000 
     52 CA          1.2758  -12.3741  -42.2498 C.3       4 UNK         0.1400 
     53 CB          1.3637  -12.9575  -40.8223 C.3       4 UNK        -0.1800 
     54 N           2.5614  -12.5157  -42.9322 N.am      4 UNK        -0.5000 
     55 C           3.6647  -11.8242  -42.6141 C.2       3 UNK         0.5000 
     56 O           3.6971  -10.9476  -41.7489 O.2       3 UNK        -0.5000 
     57 CA          4.9479  -12.1511  -43.3909 C.3       3 UNK         0.1400 
     58 CB          5.4915  -13.5397  -43.0137 C.3       3 UNK        -0.1800 
     59 N           4.7242  -12.0739  -44.8315 N.am      3 UNK        -0.5000 
     60 C           4.8423  -10.9500  -45.5533 C.2       2 UNK         0.5000 
     61 O           5.1691   -9.8638  -45.0725 O.2       2 UNK        -0.5000 
     62 CA          4.5744  -11.0413  -47.0691 C.3       2 UNK         0.1400 
     63 CB          5.8998  -11.1076  -47.8440 C.3       2 UNK        -0.1800 
     64 N           3.7555  -12.1932  -47.4420 N.am      2 UNK        -0.5000 
     65 C           2.4322  -12.2809  -47.2535 C.2       1 UNK         0.5000 
     66 O           1.7442  -11.3661  -46.7992 O.2       1 UNK        -0.5000 
     67 C          -0.4652  -22.3669  -47.7725 C.2       11 UNK         0.5000 
     68 O          -0.2487  -23.3905  -48.4192 O.2       11 UNK        -0.5000 
     69 N          -1.6768  -21.8041  -47.6607 N.am      12 UNK        -0.5000 
     70 CA         -2.9045  -22.3414  -48.2506 C.3       12 UNK         0.1400 
     71 CB         -4.0629  -21.3655  -47.9973 C.3       12 UNK        -0.1800 
     72 C          -3.2492  -23.7514  -47.7377 C.2       12 UNK         0.5000 
     73 O          -3.6002  -24.6202  -48.5378 O.2       12 UNK        -0.5000 
     74 N          -3.1001  -23.9643  -46.4226 N.am      13 UNK        -0.5000 
     75 CA         -3.2592  -25.2590  -45.7621 C.3       13 UNK         0.1400 
     76 CB         -3.2343  -25.0714  -44.2382 C.3       13 UNK        -0.1800 
     77 C          -2.2020  -26.2841  -46.2108 C.2       13 UNK         0.5000 
     78 O          -2.5630  -27.4153  -46.5361 O.2       13 UNK        -0.5000 
     79 N          -0.9292  -25.8641  -46.2736 N.am      14 UNK        -0.5000 
     80 CA          0.1999  -26.6682  -46.7560 C.3       14 UNK         0.1400 
     81 CB          1.5142  -25.9118  -46.5125 C.3       14 UNK        -0.1800 
     82 C           0.0727  -27.0725  -48.2379 C.2       14 UNK         0.5000 
     83 O           0.5200  -28.1562  -48.6136 O.2       14 UNK        -0.5000 
     84 N          -0.5864  -26.2235  -49.0369 N.am      15 UNK        -0.5000 
     85 CA         -0.9715  -26.4743  -50.4266 C.3       15 UNK         0.1400 
     86 CB         -1.1898  -25.1225  -51.1292 C.3       15 UNK        -0.1800 
     87 C          -2.2040  -27.3994  -50.5739 C.2       15 UNK         0.5000 
     88 O          -2.6849  -27.5730  -51.6934 O.2       15 UNK        -0.5000 
     89 N          -2.6840  -27.9809  -49.4630 N.am      16 UNK        -0.5000 
     90 CA         -3.8233  -28.8940  -49.3364 C.3       16 UNK         0.1400 
     91 CB         -3.6382  -30.1644  -50.1943 C.3       16 UNK        -0.1800 
     92 C          -5.1674  -28.1788  -49.5645 C.2       16 UNK         0.5000 
     93 O          -6.0129  -28.6679  -50.3159 O.2       16 UNK        -0.5000 
     94 N          -5.3278  -27.0301  -48.8902 N.am      17 UNK        -0.5000 
     95 CA         -6.4796  -26.1229  -48.9326 C.3       17 UNK         0.1400 
     96 CB         -7.7507  -26.8035  -48.3819 C.3       17 UNK        -0.1800 
     97 C          -6.6638  -25.5083  -50.3334 C.2       17 UNK         0.5000 
     98 O          -7.7569  -25.5566  -50.9018 O.2       17 UNK        -0.5000 
     99 N          -5.5668  -24.9574  -50.8622 N.am      18 UNK        -0.5000 
    100 CA        -5.4912  -24.3038  -52.1657 C.3       18 UNK         0.1400 
    101 CB        -4.6591  -25.1779  -53.1228 C.3       18 UNK        -0.1800 
    102 C         -4.9416  -22.8765  -51.9918 C.2       18 UNK         0.5000 
    103 O         -5.1763  -22.2616  -50.9518 O.2       18 UNK        -0.5000 
    104 N         -4.2569  -22.3573  -53.0220 N.am      19 UNK        -0.5000 
    105 CA        -3.6685  -21.0115  -53.1140 C.3       19 UNK         0.1400 
    106 CB        -2.5878  -20.7968  -52.0327 C.3       19 UNK        -0.1800 
    107 C         -4.7046  -19.8643  -53.1408 C.2       19 UNK         0.5000 
    108 O         -4.3336  -18.7038  -52.9676 O.2       19 UNK        -0.5000 
    109 N         -5.9812  -20.1856  -53.3985 N.am      20 UNK        -0.5000 
    110 CA        -7.0864  -19.2245  -53.4761 C.3       20 UNK         0.1400 
    111 CB        -8.4165  -19.9912  -53.5268 C.3       20 UNK        -0.1800 
    112 C         -6.9674  -18.2625  -54.6742 C.2       20 UNK         0.5000 
    113 O         -7.3928  -17.1105  -54.5809 O.2       20 UNK        -0.5000 
    114 N         -6.3549  -18.7440  -55.7646 N.am      21 UNK        -0.5000 
    115 CA        -6.0614  -17.9782  -56.9772 C.3       21 UNK         0.1400 
    116 CB        -5.6896  -18.9606  -58.0991 C.3       21 UNK        -0.1800 
    117 C         -4.9477  -16.9265  -56.7919 C.2       21 UNK         0.5000 
    118 O         -4.8231  -16.0323  -57.6299 O.2       21 UNK        -0.5000 
    119 N         -4.1583  -17.0474  -55.7162 N.am      22 UNK        -0.5000 
    120 CA        -3.0569  -16.1341  -55.3729 C.3       22 UNK         0.1400 
    121 C         -3.5192  -14.7777  -54.7619 C.2       22 UNK         0.5000 
    122 N         -4.7877  -14.5980  -54.4105 N.am      22 UNK        -0.7600 
    123 O         -2.7115  -13.8648  -54.6138 O.2       22 UNK        -0.5000 
    124 C124       -2.0048  -16.8152  -54.4602 C.3       23 UNK        -0.0398 
    125 S125       -1.3762  -18.3940  -55.1367 S.3       23 UNK        -0.2404 
    126 C126        0.4161  -18.2317  -54.8661 C.3       23 UNK        -0.0205 
    127 H127        4.9762  -16.3798  -45.8598 H         1 UNK         0.0600 
    128 H128        3.4495  -17.2700  -45.8699 H         1 UNK         0.0600 
    129 H129        4.2156  -16.8120  -47.3934 H         1 UNK         0.0600 
    130 H130        2.7081  -15.3910  -48.2733 H         1 UNK         0.3000 
    131 H131        0.9506  -13.7570  -46.9187 H         1 UNK         0.0600 
    132 H132        0.3911  -12.7760  -49.0821 H         1 UNK         0.0800 
    133 H133        1.9278  -13.2178  -49.7696 H         1 UNK         0.0800 
    134 H134        2.0272  -14.9727  -51.4305 H         1 UNK         0.0800 
    135 H135        2.6714  -15.8862  -50.0911 H         1 UNK         0.0800 
    136 H136        1.0703  -16.1063  -53.2860 H         1 UNK         0.1150 
    137 H137        0.5484  -20.3536  -53.1737 H         1 UNK         0.1150 
    138 H138        1.6521  -18.2206  -49.6123 H         1 UNK         0.1150 
    139 H139        0.0836  -20.9806  -50.2225 H         1 UNK         0.0800 
    140 H140        1.3353  -21.5851  -51.2699 H         1 UNK         0.0800 
    141 H141        0.4422  -19.7852  -48.0710 H         1 UNK         0.0800 
    142 H142        1.8741  -19.8721  -47.0885 H         1 UNK         0.0800 
    143 H143        1.4987  -22.4282  -46.9311 H         1 UNK         0.0600 
    144 H144        0.3176  -20.4047  -45.3557 H         1 UNK         0.3000 
    145 H145       -1.1520  -22.5668  -42.8892 H         1 UNK         0.0600 
    146 H146        0.2161  -21.0544  -41.4499 H         1 UNK         0.0600 
    147 H147        1.2063  -22.2876  -42.2157 H         1 UNK         0.0600 
    148 H148        1.2305  -20.6436  -42.8322 H         1 UNK         0.0600 
    149 H149       -1.1594  -19.7385  -43.1103 H         1 UNK         0.3000 
    150 H150       -4.0579  -19.4624  -45.2208 H         1 UNK         0.0600 
    151 H151       -4.9111  -19.7053  -42.8979 H         1 UNK         0.0600 
    152 H152       -4.7553  -18.0105  -43.3361 H         1 UNK         0.0600 
    153 H153       -3.5619  -18.7620  -42.2806 H         1 UNK         0.0600 
    154 H154       -2.4174  -17.4466  -44.1112 H         1 UNK         0.3000 
    155 H155        0.0129  -17.2783  -46.7633 H         1 UNK         0.0600 
    156 H156       -1.8001  -15.8431  -47.4558 H         1 UNK         0.0600 
    157 H157       -0.8279  -14.8784  -46.3563 H         1 UNK         0.0600 
    158 H158       -2.3449  -15.5685  -45.8125 H         1 UNK         0.0600 
    159 H159       -0.1249  -15.8984  -44.2870 H         1 UNK         0.3000 
    160 H160        1.5625  -18.3318  -42.2724 H         1 UNK         0.0600 
    161 H161        3.0707  -16.5035  -41.7482 H         1 UNK         0.0600 
    162 H162        2.4825  -15.5430  -43.0955 H         1 UNK         0.0600 
    163 H163        3.3982  -17.0160  -43.3954 H         1 UNK         0.0600 
    164 H164        0.4370  -15.6839  -41.8622 H         1 UNK         0.3000 
    165 H165       -2.7448  -16.8459  -40.7674 H         1 UNK         0.0600 
    166 H166       -2.1238  -15.5643  -38.7348 H         1 UNK         0.0600 
    167 H167       -1.2932  -17.1117  -38.7501 H         1 UNK         0.0600 
    168 H168       -0.4162  -15.6449  -39.1697 H         1 UNK         0.0600 
    169 H169       -1.5267  -14.2536  -40.8879 H         1 UNK         0.3000 
    170 H170       -2.2164  -13.5348  -44.2904 H         1 UNK         0.0600 
    171 H171       -4.4350  -13.1067  -43.2281 H         1 UNK         0.0600 
    172 H172       -3.6425  -12.4650  -41.7940 H         1 UNK         0.0600 
    173 H173       -3.4919  -11.6295  -43.3405 H         1 UNK         0.0600 
    174 H174       -1.2416  -11.9624  -42.0983 H         1 UNK         0.3000 
    175 H175        1.0200  -11.3137  -42.1998 H         1 UNK         0.0600 
    176 H176        2.0726  -12.4069  -40.2044 H         1 UNK         0.0600 
    177 H177        0.4021  -12.9095  -40.3104 H         1 UNK         0.0600 
    178 H178        1.6788  -14.0015  -40.8351 H         1 UNK         0.0600 
    179 H179        2.5845  -13.2043  -43.6802 H         1 UNK         0.3000 
    180 H180        5.7079  -11.4203  -43.1054 H         1 UNK         0.0600 
    181 H181        4.7812  -14.3361  -43.2335 H         1 UNK         0.0600 
    182 H182        5.7146  -13.5907  -41.9474 H         1 UNK         0.0600 
    183 H183        6.4148  -13.7593  -43.5497 H         1 UNK         0.0600 
    184 H184        4.3652  -12.9146  -45.2719 H         1 UNK         0.3000 
    185 H185        4.0513  -10.1300  -47.3669 H         1 UNK         0.0600 
    186 H186        5.7281  -11.1077  -48.9206 H         1 UNK         0.0600 
    187 H187        6.5290  -10.2459  -47.6170 H         1 UNK         0.0600 
    188 H188        6.4682  -12.0041  -47.5933 H         1 UNK         0.0600 
    189 H189        4.2418  -12.9973  -47.8111 H         1 UNK         0.3000 
    190 H190       -1.7622  -20.9304  -47.1473 H         1 UNK         0.3000 
    191 H191       -2.7495  -22.4173  -49.3282 H         1 UNK         0.0600 
    192 H192       -4.2177  -21.1861  -46.9349 H         1 UNK         0.0600 
    193 H193       -4.9998  -21.7547  -48.3961 H         1 UNK         0.0600 
    194 H194       -3.8782  -20.4039  -48.4766 H         1 UNK         0.0600 
    195 H195       -2.8646  -23.1753  -45.8267 H         1 UNK         0.3000 
    196 H196       -4.2403  -25.6523  -46.0360 H         1 UNK         0.0600 
    197 H197       -2.2863  -24.6559  -43.8968 H         1 UNK         0.0600 
    198 H198       -3.3802  -26.0228  -43.7251 H         1 UNK         0.0600 
    199 H199       -4.0286  -24.4000  -43.9117 H         1 UNK         0.0600 
    200 H200       -0.7057  -24.9263  -45.9489 H         1 UNK         0.3000 
    201 H201        0.2240  -27.5876  -46.1676 H         1 UNK         0.0600 
    202 H202        1.5398  -24.9659  -47.0536 H         1 UNK         0.0600 
    203 H203        2.3715  -26.5010  -46.8402 H         1 UNK         0.0600 
    204 H204        1.6544  -25.6958  -45.4533 H         1 UNK         0.0600 
    205 H205       -0.8454  -25.3179  -48.6584 H         1 UNK         0.3000 
    206 H206       -0.1392  -26.9759  -50.9240 H         1 UNK         0.0600 
    207 H207       -0.3253  -24.4695  -51.0079 H         1 UNK         0.0600 
    208 H208       -1.3377  -25.2581  -52.2006 H         1 UNK         0.0600 
    209 H209       -2.0612  -24.5980  -50.7373 H         1 UNK         0.0600 
    210 H210       -2.2431  -27.7409  -48.5829 H         1 UNK         0.3000 
    211 H211       -3.8309  -29.2153  -48.2939 H         1 UNK         0.0600 
    212 H212       -3.6954  -29.9515  -51.2618 H         1 UNK         0.0600 
    213 H213       -4.4125  -30.8987  -49.9697 H         1 UNK         0.0600 
    214 H214       -2.6761  -30.6370  -49.9963 H         1 UNK         0.0600 
    215 H215       -4.5312  -26.6779  -48.3750 H         1 UNK         0.3000 
    216 H216       -6.2436  -25.2939  -48.2639 H         1 UNK         0.0600 
    217 H217       -7.5790  -27.2104  -47.3854 H         1 UNK         0.0600 
    218 H218       -8.5700  -26.0881  -48.3034 H         1 UNK         0.0600 
    219 H219       -8.0909  -27.6172  -49.0227 H         1 UNK         0.0600 
    220 H220       -4.7382  -24.8946  -50.2798 H         1 UNK         0.3000 
    221 H221       -6.4904  -24.1940  -52.5912 H         1 UNK         0.0600 
    222 H222       -3.6103  -25.2078  -52.8312 H         1 UNK         0.0600 
    223 H223       -5.0257  -26.2048  -53.1326 H         1 UNK         0.0600 
    224 H224       -4.7120  -24.8127  -54.1487 H         1 UNK         0.0600 
    225 H225       -4.1236  -22.9399  -53.8370 H         1 UNK         0.3000 
    226 H226       -3.1658  -20.9735  -54.0814 H         1 UNK         0.0600 
    227 H227       -1.8674  -21.6146  -52.0212 H         1 UNK         0.0600 
    228 H228       -2.0321  -19.8770  -52.2175 H         1 UNK         0.0600 
    229 H229       -3.0210  -20.7124  -51.0364 H         1 UNK         0.0600 
    230 H230       -6.2126  -21.1586  -53.5285 H         1 UNK         0.3000 
    231 H231       -7.0735  -18.6210  -52.5660 H         1 UNK         0.0600 
    232 H232       -8.5433  -20.6192  -52.6447 H         1 UNK         0.0600 
    233 H233       -8.4801  -20.6311  -54.4077 H         1 UNK         0.0600 
    234 H234       -9.2624  -19.3032  -53.5589 H         1 UNK         0.0600 
    235 H235       -6.0360  -19.7014  -55.7474 H         1 UNK         0.3000 
    236 H236       -6.9676  -17.4457  -57.2736 H         1 UNK         0.0600 
    237 H237       -5.4987  -18.4328  -59.0345 H         1 UNK         0.0600 
    238 H238       -4.7915  -19.5290  -57.8541 H         1 UNK         0.0600 
    239 H239       -6.4964  -19.6693  -58.2874 H         1 UNK         0.0600 
    240 H240       -4.3326  -17.7909  -55.0534 H         1 UNK         0.3000 
    241 H241       -2.5482  -15.8776  -56.3042 H         1 UNK         0.0600 
    242 H242       -5.4637  -15.3384  -54.5263 H         1 UNK         0.3800 
    243 H243       -5.0747  -13.7135  -54.0219 H         1 UNK         0.3800 
    244 H244       -1.1650  -16.1367  -54.3068 H         1 UNK         0.0800 
    245 H245       -2.4172  -17.0076  -53.4690 H         1 UNK         0.0800 
    246 H246        0.7789  -17.3252  -55.3532 H         1 UNK         0.0800 
    247 H247        0.9229  -19.0637  -55.3569 H         1 UNK         0.0800 
@<TRIPOS>BOND
     1    1    2 1    
     2    1  127 1    
     3    1  128 1    
     4    1  129 1    
     5    2    3 2    
     6    2    4 am   BACKBONE|DICT|INTERRES
     7    4    5 1    
     8    4  130 1    
     9    5    6 1    
    10    5   65 1    
    11    5  131 1    
    12    6    7 1    
    13    6  132 1    
    14    6  133 1    
    15    7    8 1    
    16    8    9 1    
    17    8  134 1    
    18    8  135 1    
    19    9   10 ar   
    20    9   14 ar   
    21   10   11 ar   
    22   10  136 1    
    23   11   12 ar   
    24   11  126 1    
    25   12   13 ar   
    26   12  137 1    
    27   13   14 ar   
    28   13   15 1    
    29   14  138 1    
    30   15   16 1    
    31   15  139 1    
    32   15  140 1    
    33   16   17 1    
    34   17   18 1    
    35   17  141 1    
    36   17  142 1    
    37   18   19 1    
    38   18   67 1    
    39   18  143 1    
    40   19   20 am   BACKBONE|DICT|INTERRES
    41   19  144 1    
    42   20   21 2    
    43   20   22 1    
    44   22   23 1    
    45   22   24 1    
    46   22  145 1    
    47   23  146 1    
    48   23  147 1    
    49   23  148 1    
    50   24   25 am   BACKBONE|DICT|INTERRES
    51   24  149 1    
    52   25   26 2    
    53   25   27 1    
    54   27   28 1    
    55   27   29 1    
    56   27  150 1    
    57   28  151 1    
    58   28  152 1    
    59   28  153 1    
    60   29   30 am   BACKBONE|DICT|INTERRES
    61   29  154 1    
    62   30   31 2    
    63   30   32 1    
    64   32   33 1    
    65   32   34 1    
    66   32  155 1    
    67   33  156 1    
    68   33  157 1    
    69   33  158 1    
    70   34   35 am   BACKBONE|DICT|INTERRES
    71   34  159 1    
    72   35   36 2    
    73   35   37 1    
    74   37   38 1    
    75   37   39 1    
    76   37  160 1    
    77   38  161 1    
    78   38  162 1    
    79   38  163 1    
    80   39   40 am   BACKBONE|DICT|INTERRES
    81   39  164 1    
    82   40   41 2    
    83   40   42 1    
    84   42   43 1    
    85   42   44 1    
    86   42  165 1    
    87   43  166 1    
    88   43  167 1    
    89   43  168 1    
    90   44   45 am   BACKBONE|DICT|INTERRES
    91   44  169 1    
    92   45   46 2    
    93   45   47 1    
    94   47   48 1    
    95   47   49 1    
    96   47  170 1    
    97   48  171 1    
    98   48  172 1    
    99   48  173 1    
   100   49   50 am   BACKBONE|DICT|INTERRES
   101   49  174 1    
   102   50   51 2    
   103   50   52 1    
   104   52   53 1    
   105   52   54 1    
   106   52  175 1    
   107   53  176 1    
   108   53  177 1    
   109   53  178 1    
   110   54   55 am   BACKBONE|DICT|INTERRES
   111   54  179 1    
   112   55   56 2    
   113   55   57 1    
   114   57   58 1    
   115   57   59 1    
   116   57  180 1    
   117   58  181 1    
   118   58  182 1    
   119   58  183 1    
   120   59   60 am   BACKBONE|DICT|INTERRES
   121   59  184 1    
   122   60   61 2    
   123   60   62 1    
   124   62   63 1    
   125   62   64 1    
   126   62  185 1    
   127   63  186 1    
   128   63  187 1    
   129   63  188 1    
   130   64   65 am   BACKBONE|DICT|INTERRES
   131   64  189 1    
   132   65   66 2    
   133   67   68 2    
   134   67   69 am   BACKBONE|DICT|INTERRES
   135   69   70 1    
   136   69  190 1    
   137   70   71 1    
   138   70   72 1    
   139   70  191 1    
   140   71  192 1    
   141   71  193 1    
   142   71  194 1    
   143   72   73 2    
   144   72   74 am   BACKBONE|DICT|INTERRES
   145   74   75 1    
   146   74  195 1    
   147   75   76 1    
   148   75   77 1    
   149   75  196 1    
   150   76  197 1    
   151   76  198 1    
   152   76  199 1    
   153   77   78 2    
   154   77   79 am   BACKBONE|DICT|INTERRES
   155   79   80 1    
   156   79  200 1    
   157   80   81 1    
   158   80   82 1    
   159   80  201 1    
   160   81  202 1    
   161   81  203 1    
   162   81  204 1    
   163   82   83 2    
   164   82   84 am   BACKBONE|DICT|INTERRES
   165   84   85 1    
   166   84  205 1    
   167   85   86 1    
   168   85   87 1    
   169   85  206 1    
   170   86  207 1    
   171   86  208 1    
   172   86  209 1    
   173   87   88 2    
   174   87   89 am   BACKBONE|DICT|INTERRES
   175   89   90 1    
   176   89  210 1    
   177   90   91 1    
   178   90   92 1    
   179   90  211 1    
   180   91  212 1    
   181   91  213 1    
   182   91  214 1    
   183   92   93 2    
   184   92   94 am   BACKBONE|DICT|INTERRES
   185   94   95 1    
   186   94  215 1    
   187   95   96 1    
   188   95   97 1    
   189   95  216 1    
   190   96  217 1    
   191   96  218 1    
   192   96  219 1    
   193   97   98 2    
   194   97   99 am   BACKBONE|DICT|INTERRES
   195   99  100 1    
   196   99  220 1    
   197  100  101 1    
   198  100  102 1    
   199  100  221 1    
   200  101  222 1    
   201  101  223 1    
   202  101  224 1    
   203  102  103 2    
   204  102  104 am   BACKBONE|DICT|INTERRES
   205  104  105 1    
   206  104  225 1    
   207  105  106 1    
   208  105  107 1    
   209  105  226 1    
   210  106  227 1    
   211  106  228 1    
   212  106  229 1    
   213  107  108 2    
   214  107  109 am   BACKBONE|DICT|INTERRES
   215  109  110 1    
   216  109  230 1    
   217  110  111 1    
   218  110  112 1    
   219  110  231 1    
   220  111  232 1    
   221  111  233 1    
   222  111  234 1    
   223  112  113 2    
   224  112  114 am   BACKBONE|DICT|INTERRES
   225  114  115 1    
   226  114  235 1    
   227  115  116 1    
   228  115  117 1    
   229  115  236 1    
   230  116  237 1    
   231  116  238 1    
   232  116  239 1    
   233  117  118 2    
   234  117  119 am   BACKBONE|DICT|INTERRES
   235  119  120 1    
   236  119  240 1    
   237  120  121 1    
   238  120  124 1    
   239  120  241 1    
   240  121  122 am   BACKBONE|DICT|INTERRES
   241  121  123 2    
   242  122  242 1    
   243  122  243 1    
   244  124  125 1    
   245  124  244 1    
   246  124  245 1    
   247  125  126 1    
   248  126  246 1    
   249  126  247 1    
@<TRIPOS>SUBSTRUCTURE
     1 UNK         1 GROUP             0       ****    0 ROOT    
