@<TRIPOS>MOLECULE
3R540
247   249    1
SMALL
USER_CHARGES


@<TRIPOS>ATOM
      1 CA         -2.7743  -11.8034  -43.2206 C.3       0 UNK        -0.1800 
      2 C          -2.2656  -11.3832  -44.5924 C.2       0 UNK         0.5000 
      3 O          -2.1972  -10.1890  -44.8828 O.2       0 UNK        -0.5000 
      4 N          -1.9055  -12.3618  -45.4338 N.am      1 UNK        -0.5000 
      5 CA         -1.3460  -12.1628  -46.7790 C.3       1 UNK         0.1400 
      6 C6         -1.3501  -13.4885  -47.5884 C.3       23 UNK        -0.0398 
      7 S7         -1.4099  -13.2168  -49.3907 S.3       23 UNK        -0.2404 
      8 C8          0.3380  -13.4302  -49.8586 C.3       23 UNK        -0.0205 
      9 C9          0.5680  -14.7315  -50.6100 C.ar      23 UNK        -0.0193 
     10 C10         0.2411  -14.8067  -51.9670 C.ar      23 UNK        -0.1150 
     11 C11         0.4802  -15.9763  -52.6909 C.ar      23 UNK        -0.0193 
     12 C12         1.0600  -17.0731  -52.0509 C.ar      23 UNK        -0.1150 
     13 C13         1.3894  -17.0147  -50.6938 C.ar      23 UNK        -0.0193 
     14 C14         1.1347  -15.8420  -49.9729 C.ar      23 UNK        -0.1150 
     15 C15         2.0595  -18.2126  -50.0372 C.3       23 UNK        -0.0205 
     16 S16         0.9311  -19.6368  -49.9060 S.3       23 UNK        -0.2404 
     17 C17         0.2399  -19.4059  -48.2373 C.3       23 UNK        -0.0398 
     18 CA         -0.3852  -20.7172  -47.6894 C.3       11 UNK         0.1400 
     19 N          -0.1109  -20.9008  -46.2622 N.am      11 UNK        -0.5000 
     20 C          -0.2295  -22.0607  -45.6019 C.2       10 UNK         0.5000 
     21 O          -0.5125  -23.1287  -46.1433 O.2       10 UNK        -0.5000 
     22 CA         -0.0185  -22.0227  -44.0746 C.3       10 UNK         0.1400 
     23 CB          1.4473  -22.3142  -43.7207 C.3       10 UNK        -0.1800 
     24 N          -0.4295  -20.7561  -43.4633 N.am      10 UNK        -0.5000 
     25 C          -1.6906  -20.3011  -43.4476 C.2       9 UNK         0.5000 
     26 O          -2.6439  -20.9234  -43.9108 O.2       9 UNK        -0.5000 
     27 CA         -1.9237  -18.8915  -42.8797 C.3       9 UNK         0.1400 
     28 CB         -1.9745  -18.9237  -41.3453 C.3       9 UNK        -0.1800 
     29 N          -0.9160  -17.9302  -43.3280 N.am      9 UNK        -0.5000 
     30 C          -0.7070  -17.5826  -44.6063 C.2       8 UNK         0.5000 
     31 O          -1.3730  -18.0091  -45.5504 O.2       8 UNK        -0.5000 
     32 CA          0.4854  -16.6480  -44.8819 C.3       8 UNK         0.1400 
     33 CB          0.1424  -15.1969  -44.5213 C.3       8 UNK        -0.1800 
     34 N           1.6931  -17.0580  -44.1663 N.am      8 UNK        -0.5000 
     35 C           2.3236  -18.2269  -44.3477 C.2       7 UNK         0.5000 
     36 O           1.9907  -19.0608  -45.1883 O.2       7 UNK        -0.5000 
     37 CA          3.4857  -18.5395  -43.3921 C.3       7 UNK         0.1400 
     38 CB          4.7836  -17.8673  -43.8643 C.3       7 UNK        -0.1800 
     39 N           3.1799  -18.1299  -42.0212 N.am      7 UNK        -0.5000 
     40 C           2.2846  -18.7449  -41.2350 C.2       6 UNK         0.5000 
     41 O           1.6482  -19.7421  -41.5753 O.2       6 UNK        -0.5000 
     42 CA          2.0304  -18.1179  -39.8516 C.3       6 UNK         0.1400 
     43 CB          3.0947  -18.5777  -38.8443 C.3       6 UNK        -0.1800 
     44 N           1.9991  -16.6552  -39.8919 N.am      6 UNK        -0.5000 
     45 C           1.0567  -15.9370  -40.5184 C.2       5 UNK         0.5000 
     46 O           0.0937  -16.4340  -41.0993 O.2       5 UNK        -0.5000 
     47 CA          1.2456  -14.4098  -40.5439 C.3       5 UNK         0.1400 
     48 CB          0.6152  -13.7648  -39.3014 C.3       5 UNK        -0.1800 
     49 N           2.6424  -13.9844  -40.6544 N.am      5 UNK        -0.5000 
     50 C           3.4737  -14.3080  -41.6531 C.2       4 UNK         0.5000 
     51 O           3.1749  -15.0774  -42.5686 O.2       4 UNK        -0.5000 
     52 CA          4.8440  -13.6047  -41.6440 C.3       4 UNK         0.1400 
     53 CB          5.8765  -14.3185  -42.5339 C.3       4 UNK        -0.1800 
     54 N           4.6789  -12.2339  -42.1175 N.am      4 UNK        -0.5000 
     55 C           4.1765  -11.2206  -41.3982 C.2       3 UNK         0.5000 
     56 O           3.9737  -11.2788  -40.1844 O.2       3 UNK        -0.5000 
     57 CA          3.7841   -9.9515  -42.1810 C.3       3 UNK         0.1400 
     58 CB          4.9396   -8.9394  -42.1850 C.3       3 UNK        -0.1800 
     59 N           3.3830  -10.2344  -43.5644 N.am      3 UNK        -0.5000 
     60 C           2.3079  -10.9537  -43.9164 C.2       2 UNK         0.5000 
     61 O           1.4924  -11.4161  -43.1129 O.2       2 UNK        -0.5000 
     62 CA          2.1459  -11.2349  -45.4160 C.3       2 UNK         0.1400 
     63 CB          3.1689  -12.2815  -45.8947 C.3       2 UNK        -0.1800 
     64 N           0.8009  -11.7406  -45.6547 N.am      2 UNK        -0.5000 
     65 C           0.0653  -11.5268  -46.7503 C.2       1 UNK         0.5000 
     66 O           0.4565  -10.8605  -47.7095 O.2       1 UNK        -0.5000 
     67 C          -1.8963  -20.7967  -47.9966 C.2       11 UNK         0.5000 
     68 O          -2.2836  -21.3832  -49.0068 O.2       11 UNK        -0.5000 
     69 N          -2.7213  -20.2098  -47.1174 N.am      12 UNK        -0.5000 
     70 CA         -4.1826  -20.2305  -47.2058 C.3       12 UNK         0.1400 
     71 CB         -4.7551  -19.1399  -46.2881 C.3       12 UNK        -0.1800 
     72 C          -4.7882  -21.6050  -46.8598 C.2       12 UNK         0.5000 
     73 O          -5.8078  -21.9841  -47.4409 O.2       12 UNK        -0.5000 
     74 N          -4.1539  -22.3217  -45.9224 N.am      13 UNK        -0.5000 
     75 CA         -4.5237  -23.6616  -45.4673 C.3       13 UNK         0.1400 
     76 CB         -3.6009  -24.0691  -44.3072 C.3       13 UNK        -0.1800 
     77 C          -4.4867  -24.7258  -46.5811 C.2       13 UNK         0.5000 
     78 O          -3.8644  -24.5241  -47.6276 O.2       13 UNK        -0.5000 
     79 N          -5.1704  -25.8492  -46.3182 N.am      14 UNK        -0.5000 
     80 CA         -5.3439  -27.0001  -47.2122 C.3       14 UNK         0.1400 
     81 CB         -4.0032  -27.7360  -47.4250 C.3       14 UNK        -0.1800 
     82 C          -6.0344  -26.6149  -48.5365 C.2       14 UNK         0.5000 
     83 O          -5.6455  -27.1056  -49.5957 O.2       14 UNK        -0.5000 
     84 N          -7.0280  -25.7167  -48.4442 N.am      15 UNK        -0.5000 
     85 CA         -7.7851  -25.1207  -49.5493 C.3       15 UNK         0.1400 
     86 CB         -8.6875  -26.1772  -50.2220 C.3       15 UNK        -0.1800 
     87 C          -6.8626  -24.3938  -50.5479 C.2       15 UNK         0.5000 
     88 O          -6.8090  -24.7645  -51.7210 O.2       15 UNK        -0.5000 
     89 N          -6.1237  -23.3944  -50.0445 N.am      16 UNK        -0.5000 
     90 CA         -5.1406  -22.5838  -50.7698 C.3       16 UNK         0.1400 
     91 CB         -5.8342  -21.6948  -51.8222 C.3       16 UNK        -0.1800 
     92 C          -3.9956  -23.4359  -51.3532 C.2       16 UNK         0.5000 
     93 O          -3.7118  -23.3565  -52.5527 O.2       16 UNK        -0.5000 
     94 N          -3.3876  -24.2520  -50.4789 N.am      17 UNK        -0.5000 
     95 CA         -2.2652  -25.1559  -50.7337 C.3       17 UNK         0.1400 
     96 CB         -0.9796  -24.3502  -51.0138 C.3       17 UNK        -0.1800 
     97 C          -2.5829  -26.2009  -51.8217 C.2       17 UNK         0.5000 
     98 O          -1.8669  -26.2954  -52.8193 O.2       17 UNK        -0.5000 
     99 N          -3.6693  -26.9565  -51.6051 N.am      18 UNK        -0.5000 
    100 CA        -4.2218  -27.9916  -52.4836 C.3       18 UNK         0.1400 
    101 CB        -3.2449  -29.1777  -52.6306 C.3       18 UNK        -0.1800 
    102 C         -4.7025  -27.4174  -53.8304 C.2       18 UNK         0.5000 
    103 O         -4.4093  -27.9803  -54.8871 O.2       18 UNK        -0.5000 
    104 N         -5.4352  -26.2966  -53.7535 N.am      19 UNK        -0.5000 
    105 CA        -6.0090  -25.5308  -54.8619 C.3       19 UNK         0.1400 
    106 CB        -7.1160  -26.3388  -55.5711 C.3       19 UNK        -0.1800 
    107 C         -4.9510  -24.9649  -55.8307 C.2       19 UNK         0.5000 
    108 O         -5.2066  -24.8725  -57.0331 O.2       19 UNK        -0.5000 
    109 N         -3.7862  -24.5747  -55.2923 N.am      20 UNK        -0.5000 
    110 CA        -2.7460  -23.8592  -56.0305 C.3       20 UNK         0.1400 
    111 CB        -1.4269  -23.8874  -55.2447 C.3       20 UNK        -0.1800 
    112 C         -3.1855  -22.4155  -56.3205 C.2       20 UNK         0.5000 
    113 O         -3.0567  -21.9592  -57.4573 O.2       20 UNK        -0.5000 
    114 N         -3.7308  -21.7499  -55.2877 N.am      21 UNK        -0.5000 
    115 CA        -4.4354  -20.4603  -55.3277 C.3       21 UNK         0.1400 
    116 CB        -5.8590  -20.6776  -55.8790 C.3       21 UNK        -0.1800 
    117 C         -3.6802  -19.3249  -56.0561 C.2       21 UNK         0.5000 
    118 O         -4.3027  -18.5066  -56.7357 O.2       21 UNK        -0.5000 
    119 N         -2.3485  -19.3130  -55.9093 N.am      22 UNK        -0.5000 
    120 CA        -1.4047  -18.3909  -56.5692 C.3       22 UNK         0.1400 
    121 C         -1.2654  -18.5926  -58.1112 C.2       22 UNK         0.5000 
    122 N         -1.7420  -19.6880  -58.6911 N.am      22 UNK        -0.7600 
    123 O         -0.6824  -17.7572  -58.7975 O.2       22 UNK        -0.5000 
    124 C124       -1.6240  -16.8978  -56.1858 C.3       23 UNK        -0.0398 
    125 S125       -1.5916  -16.6217  -54.3824 S.3       23 UNK        -0.2404 
    126 C126        0.1209  -16.0559  -54.1640 C.3       23 UNK        -0.0205 
    127 H127       -2.7952  -12.8878  -43.1093 H         1 UNK         0.0600 
    128 H128       -3.7843  -11.4253  -43.0620 H         1 UNK         0.0600 
    129 H129       -2.1293  -11.3953  -42.4422 H         1 UNK         0.0600 
    130 H130       -2.0161  -13.3204  -45.1389 H         1 UNK         0.3000 
    131 H131       -2.0045  -11.4525  -47.2843 H         1 UNK         0.0600 
    132 H132       -0.5072  -14.1305  -47.3273 H         1 UNK         0.0800 
    133 H133       -2.2428  -14.0665  -47.3448 H         1 UNK         0.0800 
    134 H134        0.6291  -12.5922  -50.4939 H         1 UNK         0.0800 
    135 H135        0.9875  -13.3740  -48.9842 H         1 UNK         0.0800 
    136 H136       -0.2011  -13.9522  -52.4601 H         1 UNK         0.1150 
    137 H137        1.2542  -17.9785  -52.6091 H         1 UNK         0.1150 
    138 H138        1.3956  -15.7861  -48.9254 H         1 UNK         0.1150 
    139 H139        2.9165  -18.5072  -50.6445 H         1 UNK         0.0800 
    140 H140        2.4633  -17.9506  -49.0582 H         1 UNK         0.0800 
    141 H141       -0.4669  -18.5734  -48.2423 H         1 UNK         0.0800 
    142 H142        1.0605  -19.0882  -47.5951 H         1 UNK         0.0800 
    143 H143        0.0844  -21.5637  -48.1960 H         1 UNK         0.0600 
    144 H144        0.1935  -20.0827  -45.7477 H         1 UNK         0.3000 
    145 H145       -0.6328  -22.8133  -43.6393 H         1 UNK         0.0600 
    146 H146        1.5894  -22.3668  -42.6412 H         1 UNK         0.0600 
    147 H147        1.7669  -23.2700  -44.1376 H         1 UNK         0.0600 
    148 H148        2.1161  -21.5467  -44.1096 H         1 UNK         0.0600 
    149 H149        0.2988  -20.2078  -43.0170 H         1 UNK         0.3000 
    150 H150       -2.8938  -18.5458  -43.2427 H         1 UNK         0.0600 
    151 H151       -2.7231  -19.6347  -40.9935 H         1 UNK         0.0600 
    152 H152       -2.2392  -17.9470  -40.9401 H         1 UNK         0.0600 
    153 H153       -1.0159  -19.2154  -40.9159 H         1 UNK         0.0600 
    154 H154       -0.3577  -17.4917  -42.6000 H         1 UNK         0.3000 
    155 H155        0.6995  -16.6913  -45.9520 H         1 UNK         0.0600 
    156 H156       -0.7667  -14.8816  -45.0300 H         1 UNK         0.0600 
    157 H157        0.9437  -14.5194  -44.8151 H         1 UNK         0.0600 
    158 H158       -0.0249  -15.0739  -43.4521 H         1 UNK         0.0600 
    159 H159        2.0685  -16.4086  -43.4809 H         1 UNK         0.3000 
    160 H160        3.6446  -19.6199  -43.3978 H         1 UNK         0.0600 
    161 H161        4.6817  -16.7842  -43.9270 H         1 UNK         0.0600 
    162 H162        5.0648  -18.2245  -44.8557 H         1 UNK         0.0600 
    163 H163        5.6120  -18.0893  -43.1916 H         1 UNK         0.0600 
    164 H164        3.6041  -17.2722  -41.6995 H         1 UNK         0.3000 
    165 H165        1.0568  -18.4682  -39.5022 H         1 UNK         0.0600 
    166 H166        2.8784  -18.2026  -37.8438 H         1 UNK         0.0600 
    167 H167        3.1277  -19.6662  -38.7819 H         1 UNK         0.0600 
    168 H168        4.0915  -18.2344  -39.1240 H         1 UNK         0.0600 
    169 H169        2.7584  -16.1652  -39.4423 H         1 UNK         0.3000 
    170 H170        0.7225  -14.0287  -41.4230 H         1 UNK         0.0600 
    171 H171       -0.4349  -14.0448  -39.2058 H         1 UNK         0.0600 
    172 H172        1.1228  -14.0722  -38.3863 H         1 UNK         0.0600 
    173 H173        0.6560  -12.6768  -39.3596 H         1 UNK         0.0600 
    174 H174        2.9561  -13.2901  -39.9879 H         1 UNK         0.3000 
    175 H175        5.2237  -13.5979  -40.6202 H         1 UNK         0.0600 
    176 H176        5.5674  -14.3387  -43.5799 H         1 UNK         0.0600 
    177 H177        6.8471  -13.8250  -42.4825 H         1 UNK         0.0600 
    178 H178        6.0202  -15.3508  -42.2125 H         1 UNK         0.0600 
    179 H179        4.7885  -12.0931  -43.1103 H         1 UNK         0.3000 
    180 H180        2.9324   -9.4991  -41.6686 H         1 UNK         0.0600 
    181 H181        5.8159   -9.3296  -42.7041 H         1 UNK         0.0600 
    182 H182        5.2444   -8.6913  -41.1673 H         1 UNK         0.0600 
    183 H183        4.6472   -8.0083  -42.6708 H         1 UNK         0.0600 
    184 H184        3.9957   -9.8847  -44.2872 H         1 UNK         0.3000 
    185 H185        2.2940  -10.2971  -45.9557 H         1 UNK         0.0600 
    186 H186        4.1907  -11.9212  -45.7722 H         1 UNK         0.0600 
    187 H187        3.0803  -13.2152  -45.3369 H         1 UNK         0.0600 
    188 H188        3.0334  -12.5107  -46.9519 H         1 UNK         0.0600 
    189 H189        0.3831  -12.2012  -44.8567 H         1 UNK         0.3000 
    190 H190       -2.3176  -19.7026  -46.3374 H         1 UNK         0.3000 
    191 H191       -4.4668  -19.9923  -48.2329 H         1 UNK         0.0600 
    192 H192       -4.3758  -18.1551  -46.5620 H         1 UNK         0.0600 
    193 H193       -5.8429  -19.1020  -46.3581 H         1 UNK         0.0600 
    194 H194       -4.4986  -19.3173  -45.2431 H         1 UNK         0.0600 
    195 H195       -3.3648  -21.8932  -45.4500 H         1 UNK         0.3000 
    196 H196       -5.5474  -23.6039  -45.0925 H         1 UNK         0.0600 
    197 H197       -3.8659  -25.0509  -43.9135 H         1 UNK         0.0600 
    198 H198       -3.6709  -23.3643  -43.4788 H         1 UNK         0.0600 
    199 H199       -2.5591  -24.1155  -44.6237 H         1 UNK         0.0600 
    200 H200       -5.6440  -25.9218  -45.4282 H         1 UNK         0.3000 
    201 H201       -6.0211  -27.6891  -46.7056 H         1 UNK         0.0600 
    202 H202       -3.5443  -28.0012  -46.4727 H         1 UNK         0.0600 
    203 H203       -3.2894  -27.1297  -47.9830 H         1 UNK         0.0600 
    204 H204       -4.1496  -28.6619  -47.9825 H         1 UNK         0.0600 
    205 H205       -7.2484  -25.3608  -47.5251 H         1 UNK         0.3000 
    206 H206       -8.4351  -24.3603  -49.1138 H         1 UNK         0.0600 
    207 H207       -9.3529  -26.6457  -49.4971 H         1 UNK         0.0600 
    208 H208       -9.3131  -25.7210  -50.9901 H         1 UNK         0.0600 
    209 H209       -8.1069  -26.9657  -50.7019 H         1 UNK         0.0600 
    210 H210       -6.2029  -23.1739  -49.0566 H         1 UNK         0.3000 
    211 H211       -4.6876  -21.9209  -50.0332 H         1 UNK         0.0600 
    212 H212       -6.2394  -22.2777  -52.6501 H         1 UNK         0.0600 
    213 H213       -5.1276  -20.9776  -52.2373 H         1 UNK         0.0600 
    214 H214       -6.6511  -21.1242  -51.3807 H         1 UNK         0.0600 
    215 H215       -3.7042  -24.2387  -49.5116 H         1 UNK         0.3000 
    216 H216       -2.1060  -25.7124  -49.8090 H         1 UNK         0.0600 
    217 H217       -0.1199  -25.0116  -51.1249 H         1 UNK         0.0600 
    218 H218       -0.7602  -23.6661  -50.1936 H         1 UNK         0.0600 
    219 H219       -1.0596  -23.7600  -51.9264 H         1 UNK         0.0600 
    220 H220       -4.2253  -26.7905  -50.7690 H         1 UNK         0.3000 
    221 H221       -5.1146  -28.3689  -51.9832 H         1 UNK         0.0600 
    222 H222       -2.3428  -28.8991  -53.1758 H         1 UNK         0.0600 
    223 H223       -2.9436  -29.5621  -51.6562 H         1 UNK         0.0600 
    224 H224       -3.7118  -30.0004  -53.1732 H         1 UNK         0.0600 
    225 H225       -5.6384  -25.9085  -52.8365 H         1 UNK         0.3000 
    226 H226       -6.4841  -24.6597  -54.4089 H         1 UNK         0.0600 
    227 H227       -7.8554  -26.7023  -54.8575 H         1 UNK         0.0600 
    228 H228       -7.6458  -25.7222  -56.2982 H         1 UNK         0.0600 
    229 H229       -6.7120  -27.1992  -56.1050 H         1 UNK         0.0600 
    230 H230       -3.6640  -24.6441  -54.2884 H         1 UNK         0.3000 
    231 H231       -2.5833  -24.3647  -56.9847 H         1 UNK         0.0600 
    232 H232       -1.5277  -23.4169  -54.2666 H         1 UNK         0.0600 
    233 H233       -0.6397  -23.3598  -55.7845 H         1 UNK         0.0600 
    234 H234       -1.0850  -24.9106  -55.0892 H         1 UNK         0.0600 
    235 H235       -3.7502  -22.2283  -54.3927 H         1 UNK         0.3000 
    236 H236       -4.5290  -20.1281  -54.2943 H         1 UNK         0.0600 
    237 H237       -6.3863  -21.4468  -55.3143 H         1 UNK         0.0600 
    238 H238       -6.4532  -19.7655  -55.8126 H         1 UNK         0.0600 
    239 H239       -5.8401  -20.9847  -56.9254 H         1 UNK         0.0600 
    240 H240       -1.9299  -20.0356  -55.3424 H         1 UNK         0.3000 
    241 H241       -0.4253  -18.6717  -56.1809 H         1 UNK         0.0600 
    242 H242       -1.6321  -19.8054  -59.6856 H         1 UNK         0.3800 
    243 H243       -2.2234  -20.4063  -58.1556 H         1 UNK         0.3800 
    244 H244       -0.8643  -16.2648  -56.6472 H         1 UNK         0.0800 
    245 H245       -2.5784  -16.5377  -56.5712 H         1 UNK         0.0800 
    246 H246        0.8008  -16.7389  -54.6759 H         1 UNK         0.0800 
    247 H247        0.2465  -15.0803  -54.6363 H         1 UNK         0.0800 
@<TRIPOS>BOND
     1    1    2 1    
     2    1  127 1    
     3    1  128 1    
     4    1  129 1    
     5    2    3 2    
     6    2    4 am   BACKBONE|DICT|INTERRES
     7    4    5 1    
     8    4  130 1    
     9    5    6 1    
    10    5   65 1    
    11    5  131 1    
    12    6    7 1    
    13    6  132 1    
    14    6  133 1    
    15    7    8 1    
    16    8    9 1    
    17    8  134 1    
    18    8  135 1    
    19    9   10 ar   
    20    9   14 ar   
    21   10   11 ar   
    22   10  136 1    
    23   11   12 ar   
    24   11  126 1    
    25   12   13 ar   
    26   12  137 1    
    27   13   14 ar   
    28   13   15 1    
    29   14  138 1    
    30   15   16 1    
    31   15  139 1    
    32   15  140 1    
    33   16   17 1    
    34   17   18 1    
    35   17  141 1    
    36   17  142 1    
    37   18   19 1    
    38   18   67 1    
    39   18  143 1    
    40   19   20 am   BACKBONE|DICT|INTERRES
    41   19  144 1    
    42   20   21 2    
    43   20   22 1    
    44   22   23 1    
    45   22   24 1    
    46   22  145 1    
    47   23  146 1    
    48   23  147 1    
    49   23  148 1    
    50   24   25 am   BACKBONE|DICT|INTERRES
    51   24  149 1    
    52   25   26 2    
    53   25   27 1    
    54   27   28 1    
    55   27   29 1    
    56   27  150 1    
    57   28  151 1    
    58   28  152 1    
    59   28  153 1    
    60   29   30 am   BACKBONE|DICT|INTERRES
    61   29  154 1    
    62   30   31 2    
    63   30   32 1    
    64   32   33 1    
    65   32   34 1    
    66   32  155 1    
    67   33  156 1    
    68   33  157 1    
    69   33  158 1    
    70   34   35 am   BACKBONE|DICT|INTERRES
    71   34  159 1    
    72   35   36 2    
    73   35   37 1    
    74   37   38 1    
    75   37   39 1    
    76   37  160 1    
    77   38  161 1    
    78   38  162 1    
    79   38  163 1    
    80   39   40 am   BACKBONE|DICT|INTERRES
    81   39  164 1    
    82   40   41 2    
    83   40   42 1    
    84   42   43 1    
    85   42   44 1    
    86   42  165 1    
    87   43  166 1    
    88   43  167 1    
    89   43  168 1    
    90   44   45 am   BACKBONE|DICT|INTERRES
    91   44  169 1    
    92   45   46 2    
    93   45   47 1    
    94   47   48 1    
    95   47   49 1    
    96   47  170 1    
    97   48  171 1    
    98   48  172 1    
    99   48  173 1    
   100   49   50 am   BACKBONE|DICT|INTERRES
   101   49  174 1    
   102   50   51 2    
   103   50   52 1    
   104   52   53 1    
   105   52   54 1    
   106   52  175 1    
   107   53  176 1    
   108   53  177 1    
   109   53  178 1    
   110   54   55 am   BACKBONE|DICT|INTERRES
   111   54  179 1    
   112   55   56 2    
   113   55   57 1    
   114   57   58 1    
   115   57   59 1    
   116   57  180 1    
   117   58  181 1    
   118   58  182 1    
   119   58  183 1    
   120   59   60 am   BACKBONE|DICT|INTERRES
   121   59  184 1    
   122   60   61 2    
   123   60   62 1    
   124   62   63 1    
   125   62   64 1    
   126   62  185 1    
   127   63  186 1    
   128   63  187 1    
   129   63  188 1    
   130   64   65 am   BACKBONE|DICT|INTERRES
   131   64  189 1    
   132   65   66 2    
   133   67   68 2    
   134   67   69 am   BACKBONE|DICT|INTERRES
   135   69   70 1    
   136   69  190 1    
   137   70   71 1    
   138   70   72 1    
   139   70  191 1    
   140   71  192 1    
   141   71  193 1    
   142   71  194 1    
   143   72   73 2    
   144   72   74 am   BACKBONE|DICT|INTERRES
   145   74   75 1    
   146   74  195 1    
   147   75   76 1    
   148   75   77 1    
   149   75  196 1    
   150   76  197 1    
   151   76  198 1    
   152   76  199 1    
   153   77   78 2    
   154   77   79 am   BACKBONE|DICT|INTERRES
   155   79   80 1    
   156   79  200 1    
   157   80   81 1    
   158   80   82 1    
   159   80  201 1    
   160   81  202 1    
   161   81  203 1    
   162   81  204 1    
   163   82   83 2    
   164   82   84 am   BACKBONE|DICT|INTERRES
   165   84   85 1    
   166   84  205 1    
   167   85   86 1    
   168   85   87 1    
   169   85  206 1    
   170   86  207 1    
   171   86  208 1    
   172   86  209 1    
   173   87   88 2    
   174   87   89 am   BACKBONE|DICT|INTERRES
   175   89   90 1    
   176   89  210 1    
   177   90   91 1    
   178   90   92 1    
   179   90  211 1    
   180   91  212 1    
   181   91  213 1    
   182   91  214 1    
   183   92   93 2    
   184   92   94 am   BACKBONE|DICT|INTERRES
   185   94   95 1    
   186   94  215 1    
   187   95   96 1    
   188   95   97 1    
   189   95  216 1    
   190   96  217 1    
   191   96  218 1    
   192   96  219 1    
   193   97   98 2    
   194   97   99 am   BACKBONE|DICT|INTERRES
   195   99  100 1    
   196   99  220 1    
   197  100  101 1    
   198  100  102 1    
   199  100  221 1    
   200  101  222 1    
   201  101  223 1    
   202  101  224 1    
   203  102  103 2    
   204  102  104 am   BACKBONE|DICT|INTERRES
   205  104  105 1    
   206  104  225 1    
   207  105  106 1    
   208  105  107 1    
   209  105  226 1    
   210  106  227 1    
   211  106  228 1    
   212  106  229 1    
   213  107  108 2    
   214  107  109 am   BACKBONE|DICT|INTERRES
   215  109  110 1    
   216  109  230 1    
   217  110  111 1    
   218  110  112 1    
   219  110  231 1    
   220  111  232 1    
   221  111  233 1    
   222  111  234 1    
   223  112  113 2    
   224  112  114 am   BACKBONE|DICT|INTERRES
   225  114  115 1    
   226  114  235 1    
   227  115  116 1    
   228  115  117 1    
   229  115  236 1    
   230  116  237 1    
   231  116  238 1    
   232  116  239 1    
   233  117  118 2    
   234  117  119 am   BACKBONE|DICT|INTERRES
   235  119  120 1    
   236  119  240 1    
   237  120  121 1    
   238  120  124 1    
   239  120  241 1    
   240  121  122 am   BACKBONE|DICT|INTERRES
   241  121  123 2    
   242  122  242 1    
   243  122  243 1    
   244  124  125 1    
   245  124  244 1    
   246  124  245 1    
   247  125  126 1    
   248  126  246 1    
   249  126  247 1    
@<TRIPOS>SUBSTRUCTURE
     1 UNK         1 GROUP             0       ****    0 ROOT    
