@<TRIPOS>MOLECULE
3R540
247   249    1
SMALL
USER_CHARGES


@<TRIPOS>ATOM
      1 CA         -0.1077  -11.6619  -48.6149 C.3       0 UNK        -0.1800 
      2 C           1.1242  -12.3069  -47.9995 C.2       0 UNK         0.5000 
      3 O           1.1294  -12.5867  -46.7990 O.2       0 UNK        -0.5000 
      4 N           2.1743  -12.5077  -48.8090 N.am      1 UNK        -0.5000 
      5 CA          3.4553  -13.1498  -48.4598 C.3       1 UNK         0.1400 
      6 C6          3.3142  -14.6686  -48.1633 C.3       23 UNK        -0.0398 
      7 S7          2.5807  -15.6013  -49.5515 S.3       23 UNK        -0.2404 
      8 C8          3.2846  -17.2602  -49.2501 C.3       23 UNK        -0.0205 
      9 C9          2.5148  -18.4433  -49.8444 C.ar      23 UNK        -0.0193 
     10 C10         1.3207  -18.3034  -50.5657 C.ar      23 UNK        -0.1150 
     11 C11         0.6218  -19.4254  -51.0226 C.ar      23 UNK        -0.0193 
     12 C12         1.1214  -20.7008  -50.7497 C.ar      23 UNK        -0.1150 
     13 C13         2.3120  -20.8637  -50.0383 C.ar      23 UNK        -0.0193 
     14 C14         3.0100  -19.7298  -49.6081 C.ar      23 UNK        -0.1150 
     15 C15         2.8115  -22.2715  -49.7216 C.3       23 UNK        -0.0205 
     16 S16         3.3581  -22.5118  -47.9925 S.3       23 UNK        -0.2404 
     17 C17         1.9915  -21.7903  -47.0177 C.3       23 UNK        -0.0398 
     18 CA          0.9787  -22.8165  -46.4634 C.3       11 UNK         0.1400 
     19 N           0.1456  -22.2042  -45.4266 N.am      11 UNK        -0.5000 
     20 C          -0.7309  -22.8508  -44.6477 C.2       10 UNK         0.5000 
     21 O          -0.9068  -24.0693  -44.6784 O.2       10 UNK        -0.5000 
     22 CA         -1.5850  -21.9754  -43.7103 C.3       10 UNK         0.1400 
     23 CB         -0.7781  -21.5325  -42.4806 C.3       10 UNK        -0.1800 
     24 N          -2.1320  -20.7971  -44.3878 N.am      10 UNK        -0.5000 
     25 C          -3.0200  -20.8517  -45.3913 C.2       9 UNK         0.5000 
     26 O          -3.4996  -21.8990  -45.8213 O.2       9 UNK        -0.5000 
     27 CA         -3.4115  -19.5196  -46.0543 C.3       9 UNK         0.1400 
     28 CB         -4.4851  -18.7989  -45.2263 C.3       9 UNK        -0.1800 
     29 N          -2.2697  -18.6293  -46.2598 N.am      9 UNK        -0.5000 
     30 C          -1.2075  -18.9150  -47.0276 C.2       8 UNK         0.5000 
     31 O          -1.0818  -19.9530  -47.6687 O.2       8 UNK        -0.5000 
     32 CA         -0.0648  -17.8914  -47.0389 C.3       8 UNK         0.1400 
     33 CB         -0.4561  -16.6683  -47.8764 C.3       8 UNK        -0.1800 
     34 N           0.3047  -17.4750  -45.6881 N.am      8 UNK        -0.5000 
     35 C           0.7907  -18.2934  -44.7425 C.2       7 UNK         0.5000 
     36 O           1.0242  -19.4880  -44.9197 O.2       7 UNK        -0.5000 
     37 CA          1.0074  -17.6791  -43.3494 C.3       7 UNK         0.1400 
     38 CB          2.4235  -17.0985  -43.2340 C.3       7 UNK        -0.1800 
     39 N           0.0146  -16.6449  -43.0487 N.am      7 UNK        -0.5000 
     40 C          -1.2857  -16.9018  -42.8426 C.2       6 UNK         0.5000 
     41 O          -1.7671  -18.0361  -42.8326 O.2       6 UNK        -0.5000 
     42 CA         -2.2018  -15.6774  -42.6884 C.3       6 UNK         0.1400 
     43 CB         -2.0165  -15.0143  -41.3151 C.3       6 UNK        -0.1800 
     44 N          -1.9760  -14.6938  -43.7504 N.am      6 UNK        -0.5000 
     45 C          -2.3457  -14.8737  -45.0277 C.2       5 UNK         0.5000 
     46 O          -2.8658  -15.9147  -45.4285 O.2       5 UNK        -0.5000 
     47 CA         -2.0628  -13.7512  -46.0500 C.3       5 UNK         0.1400 
     48 CB         -3.2884  -13.4617  -46.9396 C.3       5 UNK        -0.1800 
     49 N          -1.5106  -12.5218  -45.4781 N.am      5 UNK        -0.5000 
     50 C          -2.1041  -11.6433  -44.6570 C.2       4 UNK         0.5000 
     51 O          -3.2818  -11.7204  -44.3047 O.2       4 UNK        -0.5000 
     52 CA         -1.2059  -10.5058  -44.1175 C.3       4 UNK         0.1400 
     53 CB         -1.7003   -9.9585  -42.7623 C.3       4 UNK        -0.1800 
     54 N           0.2188  -10.8637  -44.0292 N.am      4 UNK        -0.5000 
     55 C           0.7571  -11.8897  -43.3493 C.2       3 UNK         0.5000 
     56 O           0.0895  -12.7103  -42.7171 O.2       3 UNK        -0.5000 
     57 CA          2.2864  -12.0503  -43.4258 C.3       3 UNK         0.1400 
     58 CB          2.7081  -13.5292  -43.4072 C.3       3 UNK        -0.1800 
     59 N           2.8283  -11.4309  -44.6353 N.am      3 UNK        -0.5000 
     60 C           3.9209  -10.6572  -44.6927 C.2       2 UNK         0.5000 
     61 O           4.5473  -10.2938  -43.6956 O.2       2 UNK        -0.5000 
     62 CA          4.3898  -10.2113  -46.0989 C.3       2 UNK         0.1400 
     63 CB          5.9138   -9.9816  -46.1752 C.3       2 UNK        -0.1800 
     64 N           3.9395  -11.1017  -47.1776 N.am      2 UNK        -0.5000 
     65 C           4.2220  -12.4062  -47.3360 C.2       1 UNK         0.5000 
     66 O           5.0221  -13.0198  -46.6282 O.2       1 UNK        -0.5000 
     67 C           0.1186  -23.4425  -47.5808 C.2       11 UNK         0.5000 
     68 O           0.3461  -24.5918  -47.9559 O.2       11 UNK        -0.5000 
     69 N          -0.8839  -22.6948  -48.0574 N.am      12 UNK        -0.5000 
     70 CA         -1.8535  -23.1207  -49.0613 C.3       12 UNK         0.1400 
     71 CB         -2.7436  -21.9323  -49.4304 C.3       12 UNK        -0.1800 
     72 C          -2.7103  -24.3152  -48.6136 C.2       12 UNK         0.5000 
     73 O          -2.9478  -25.2134  -49.4179 O.2       12 UNK        -0.5000 
     74 N          -3.1292  -24.3312  -47.3409 N.am      13 UNK        -0.5000 
     75 CA         -3.8581  -25.4432  -46.7297 C.3       13 UNK         0.1400 
     76 CB         -4.3845  -25.0237  -45.3491 C.3       13 UNK        -0.1800 
     77 C          -3.0092  -26.7236  -46.6252 C.2       13 UNK         0.5000 
     78 O          -3.5348  -27.8148  -46.8472 O.2       13 UNK        -0.5000 
     79 N          -1.7143  -26.5684  -46.3146 N.am      14 UNK        -0.5000 
     80 CA         -0.7408  -27.6597  -46.2713 C.3       14 UNK         0.1400 
     81 CB          0.5277  -27.1891  -45.5428 C.3       14 UNK        -0.1800 
     82 C          -0.4060  -28.2056  -47.6729 C.2       14 UNK         0.5000 
     83 O          -0.3328  -29.4226  -47.8476 O.2       14 UNK        -0.5000 
     84 N          -0.2193  -27.3009  -48.6439 N.am      15 UNK        -0.5000 
     85 CA          0.0614  -27.6215  -50.0454 C.3       15 UNK         0.1400 
     86 CB          0.5426  -26.3504  -50.7632 C.3       15 UNK        -0.1800 
     87 C          -1.1453  -28.2318  -50.7857 C.2       15 UNK         0.5000 
     88 O          -0.9489  -29.0879  -51.6496 O.2       15 UNK        -0.5000 
     89 N          -2.3521  -27.7772  -50.4194 N.am      16 UNK        -0.5000 
     90 CA         -3.6686  -28.0528  -51.0006 C.3       16 UNK         0.1400 
     91 CB         -3.9599  -29.5658  -51.0725 C.3       16 UNK        -0.1800 
     92 C          -3.8844  -27.3562  -52.3604 C.2       16 UNK         0.5000 
     93 O          -2.9284  -26.9359  -53.0165 O.2       16 UNK        -0.5000 
     94 N          -5.1638  -27.2486  -52.7513 N.am      17 UNK        -0.5000 
     95 CA         -5.6646  -26.6510  -53.9978 C.3       17 UNK         0.1400 
     96 CB         -5.2424  -27.5001  -55.2160 C.3       17 UNK        -0.1800 
     97 C          -5.3152  -25.1530  -54.1538 C.2       17 UNK         0.5000 
     98 O          -5.0315  -24.6934  -55.2620 O.2       17 UNK        -0.5000 
     99 N          -5.3544  -24.4155  -53.0391 N.am      18 UNK        -0.5000 
    100 CA        -5.0775  -22.9854  -52.9491 C.3       18 UNK         0.1400 
    101 CB        -3.5541  -22.7542  -52.9022 C.3       18 UNK        -0.1800 
    102 C         -5.7873  -22.4115  -51.7117 C.2       18 UNK         0.5000 
    103 O         -6.2339  -23.1743  -50.8499 O.2       18 UNK        -0.5000 
    104 N         -5.8684  -21.0802  -51.6491 N.am      19 UNK        -0.5000 
    105 CA        -6.4686  -20.2999  -50.5689 C.3       19 UNK         0.1400 
    106 CB        -7.8002  -19.7091  -51.0716 C.3       19 UNK        -0.1800 
    107 C         -5.4824  -19.2196  -50.0779 C.2       19 UNK         0.5000 
    108 O         -4.2751  -19.3435  -50.2880 O.2       19 UNK        -0.5000 
    109 N         -6.0039  -18.1855  -49.4066 N.am      20 UNK        -0.5000 
    110 CA        -5.2484  -17.0775  -48.8231 C.3       20 UNK         0.1400 
    111 CB        -6.1763  -16.3027  -47.8708 C.3       20 UNK        -0.1800 
    112 C         -4.6227  -16.1549  -49.8915 C.2       20 UNK         0.5000 
    113 O         -5.2795  -15.2243  -50.3597 O.2       20 UNK        -0.5000 
    114 N         -3.3600  -16.4402  -50.2343 N.am      21 UNK        -0.5000 
    115 CA        -2.4567  -15.6794  -51.1077 C.3       21 UNK         0.1400 
    116 CB        -1.9692  -14.4194  -50.3594 C.3       21 UNK        -0.1800 
    117 C         -3.0161  -15.3308  -52.5132 C.2       21 UNK         0.5000 
    118 O         -3.1398  -14.1477  -52.8306 O.2       21 UNK        -0.5000 
    119 N         -3.3458  -16.2878  -53.3912 N.am      22 UNK        -0.5000 
    120 CA        -3.3857  -17.7515  -53.2362 C.3       22 UNK         0.1400 
    121 C         -4.7683  -18.3360  -53.6521 C.2       22 UNK         0.5000 
    122 N         -5.8134  -17.5337  -53.8167 N.am      22 UNK        -0.7600 
    123 O         -4.9112  -19.5452  -53.8051 O.2       22 UNK        -0.5000 
    124 C124       -2.2155  -18.4617  -53.9704 C.3       23 UNK        -0.0398 
    125 S125       -0.5886  -18.1637  -53.2047 S.3       23 UNK        -0.2404 
    126 C126       -0.7012  -19.2742  -51.7613 C.3       23 UNK        -0.0205 
    127 H127        0.0628  -11.3644  -49.6497 H         1 UNK         0.0600 
    128 H128       -0.3914  -10.7757  -48.0473 H         1 UNK         0.0600 
    129 H129       -0.9418  -12.3600  -48.5961 H         1 UNK         0.0600 
    130 H130        2.0914  -12.2408  -49.7801 H         1 UNK         0.3000 
    131 H131        4.0863  -13.0512  -49.3443 H         1 UNK         0.0600 
    132 H132        2.7059  -14.8333  -47.2724 H         1 UNK         0.0800 
    133 H133        4.2926  -15.1033  -47.9515 H         1 UNK         0.0800 
    134 H134        3.3444  -17.4162  -48.1726 H         1 UNK         0.0800 
    135 H135        4.3082  -17.2749  -49.6245 H         1 UNK         0.0800 
    136 H136        0.9122  -17.3252  -50.7686 H         1 UNK         0.1150 
    137 H137        0.5720  -21.5718  -51.0784 H         1 UNK         0.1150 
    138 H138        3.9279  -19.8515  -49.0502 H         1 UNK         0.1150 
    139 H139        2.0359  -23.0085  -49.9366 H         1 UNK         0.0800 
    140 H140        3.6442  -22.5033  -50.3865 H         1 UNK         0.0800 
    141 H141        1.4783  -21.0026  -47.5688 H         1 UNK         0.0800 
    142 H142        2.4732  -21.2821  -46.1818 H         1 UNK         0.0800 
    143 H143        1.5375  -23.6247  -45.9868 H         1 UNK         0.0600 
    144 H144        0.2485  -21.1996  -45.3105 H         1 UNK         0.3000 
    145 H145       -2.4246  -22.5819  -43.3640 H         1 UNK         0.0600 
    146 H146       -1.3965  -20.9597  -41.7892 H         1 UNK         0.0600 
    147 H147        0.0744  -20.9120  -42.7574 H         1 UNK         0.0600 
    148 H148       -0.3930  -22.3954  -41.9360 H         1 UNK         0.0600 
    149 H149       -1.8092  -19.8904  -44.0718 H         1 UNK         0.3000 
    150 H150       -3.8346  -19.7450  -47.0351 H         1 UNK         0.0600 
    151 H151       -5.3673  -19.4271  -45.0981 H         1 UNK         0.0600 
    152 H152       -4.8077  -17.8791  -45.7118 H         1 UNK         0.0600 
    153 H153       -4.1191  -18.5365  -44.2331 H         1 UNK         0.0600 
    154 H154       -2.3143  -17.7294  -45.7901 H         1 UNK         0.3000 
    155 H155        0.8114  -18.3583  -47.4925 H         1 UNK         0.0600 
    156 H156       -1.4326  -16.2781  -47.5960 H         1 UNK         0.0600 
    157 H157       -0.5165  -16.9322  -48.9310 H         1 UNK         0.0600 
    158 H158        0.2709  -15.8630  -47.7792 H         1 UNK         0.0600 
    159 H159        0.1270  -16.5149  -45.4399 H         1 UNK         0.3000 
    160 H160        0.9044  -18.4757  -42.6094 H         1 UNK         0.0600 
    161 H161        2.6230  -16.3617  -44.0115 H         1 UNK         0.0600 
    162 H162        3.1715  -17.8858  -43.3371 H         1 UNK         0.0600 
    163 H163        2.5829  -16.6253  -42.2650 H         1 UNK         0.0600 
    164 H164        0.3292  -15.6855  -43.0348 H         1 UNK         0.3000 
    165 H165       -3.2357  -16.0231  -42.7574 H         1 UNK         0.0600 
    166 H166       -2.6914  -14.1669  -41.1936 H         1 UNK         0.0600 
    167 H167       -2.2302  -15.7193  -40.5109 H         1 UNK         0.0600 
    168 H168       -0.9980  -14.6525  -41.1711 H         1 UNK         0.0600 
    169 H169       -1.5043  -13.8359  -43.4856 H         1 UNK         0.3000 
    170 H170       -1.2747  -14.1305  -46.6989 H         1 UNK         0.0600 
    171 H171       -3.5340  -14.3298  -47.5512 H         1 UNK         0.0600 
    172 H172       -4.1712  -13.2195  -46.3475 H         1 UNK         0.0600 
    173 H173       -3.1043  -12.6309  -47.6199 H         1 UNK         0.0600 
    174 H174       -0.5309  -12.3674  -45.6962 H         1 UNK         0.3000 
    175 H175       -1.2749   -9.6975  -44.8467 H         1 UNK         0.0600 
    176 H176       -1.7165  -10.7340  -41.9957 H         1 UNK         0.0600 
    177 H177       -1.0619   -9.1496  -42.4072 H         1 UNK         0.0600 
    178 H178       -2.7114   -9.5581  -42.8445 H         1 UNK         0.0600 
    179 H179        0.8536  -10.2587  -44.5305 H         1 UNK         0.3000 
    180 H180        2.6882  -11.5636  -42.5352 H         1 UNK         0.0600 
    181 H181        3.7929  -13.6317  -43.4513 H         1 UNK         0.0600 
    182 H182        2.2875  -14.0640  -44.2596 H         1 UNK         0.0600 
    183 H183        2.3728  -14.0274  -42.4967 H         1 UNK         0.0600 
    184 H184        2.3730  -11.7040  -45.5014 H         1 UNK         0.3000 
    185 H185        3.9063   -9.2507  -46.2810 H         1 UNK         0.0600 
    186 H186        6.4737  -10.8819  -45.9210 H         1 UNK         0.0600 
    187 H187        6.2161   -9.6693  -47.1747 H         1 UNK         0.0600 
    188 H188        6.2270   -9.1980  -45.4844 H         1 UNK         0.0600 
    189 H189        3.2710  -10.6991  -47.8195 H         1 UNK         0.3000 
    190 H190       -0.9792  -21.7328  -47.7345 H         1 UNK         0.3000 
    191 H191       -1.3007  -23.4236  -49.9525 H         1 UNK         0.0600 
    192 H192       -3.5238  -22.2270  -50.1252 H         1 UNK         0.0600 
    193 H193       -2.1672  -21.1376  -49.9027 H         1 UNK         0.0600 
    194 H194       -3.2400  -21.5125  -48.5565 H         1 UNK         0.0600 
    195 H195       -2.9610  -23.5184  -46.7549 H         1 UNK         0.3000 
    196 H196       -4.7177  -25.6678  -47.3646 H         1 UNK         0.0600 
    197 H197       -5.0659  -24.1767  -45.4290 H         1 UNK         0.0600 
    198 H198       -3.5741  -24.7384  -44.6778 H         1 UNK         0.0600 
    199 H199       -4.9334  -25.8384  -44.8753 H         1 UNK         0.0600 
    200 H200       -1.3697  -25.6378  -46.1076 H         1 UNK         0.3000 
    201 H201       -1.1748  -28.4771  -45.6915 H         1 UNK         0.0600 
    202 H202        0.2995  -26.8592  -44.5292 H         1 UNK         0.0600 
    203 H203        1.0106  -26.3606  -46.0611 H         1 UNK         0.0600 
    204 H204        1.2559  -27.9975  -45.4667 H         1 UNK         0.0600 
    205 H205       -0.2236  -26.3140  -48.3961 H         1 UNK         0.3000 
    206 H206        0.8717  -28.3530  -50.0695 H         1 UNK         0.0600 
    207 H207       -0.2221  -25.5728  -50.7554 H         1 UNK         0.0600 
    208 H208        1.4375  -25.9442  -50.2912 H         1 UNK         0.0600 
    209 H209        0.7884  -26.5588  -51.8052 H         1 UNK         0.0600 
    210 H210       -2.3624  -26.9992  -49.7661 H         1 UNK         0.3000 
    211 H211       -4.3811  -27.6110  -50.3021 H         1 UNK         0.0600 
    212 H212       -3.3632  -30.0615  -51.8384 H         1 UNK         0.0600 
    213 H213       -5.0072  -29.7511  -51.3127 H         1 UNK         0.0600 
    214 H214       -3.7565  -30.0525  -50.1185 H         1 UNK         0.0600 
    215 H215       -5.8784  -27.6134  -52.1368 H         1 UNK         0.3000 
    216 H216       -6.7529  -26.6946  -53.9365 H         1 UNK         0.0600 
    217 H217       -5.7279  -27.1473  -56.1267 H         1 UNK         0.0600 
    218 H218       -5.5235  -28.5450  -55.0849 H         1 UNK         0.0600 
    219 H219       -4.1658  -27.4610  -55.3840 H         1 UNK         0.0600 
    220 H220       -5.6399  -24.8383  -52.1648 H         1 UNK         0.3000 
    221 H221       -5.4913  -22.4810  -53.8251 H         1 UNK         0.0600 
    222 H222       -3.0808  -23.3599  -52.1289 H         1 UNK         0.0600 
    223 H223       -3.0902  -23.0159  -53.8531 H         1 UNK         0.0600 
    224 H224       -3.3128  -21.7092  -52.7035 H         1 UNK         0.0600 
    225 H225       -5.4400  -20.5310  -52.3932 H         1 UNK         0.3000 
    226 H226       -6.6740  -20.9439  -49.7117 H         1 UNK         0.0600 
    227 H227       -8.4443  -20.4886  -51.4791 H         1 UNK         0.0600 
    228 H228       -8.3579  -19.2290  -50.2672 H         1 UNK         0.0600 
    229 H229       -7.6397  -18.9688  -51.8562 H         1 UNK         0.0600 
    230 H230       -7.0065  -18.1378  -49.3019 H         1 UNK         0.3000 
    231 H231       -4.4397  -17.4970  -48.2208 H         1 UNK         0.0600 
    232 H232       -5.6398  -15.4945  -47.3734 H         1 UNK         0.0600 
    233 H233       -6.5753  -16.9517  -47.0915 H         1 UNK         0.0600 
    234 H234       -7.0221  -15.8604  -48.3987 H         1 UNK         0.0600 
    235 H235       -2.9745  -17.2953  -49.8583 H         1 UNK         0.3000 
    236 H236       -1.5814  -16.3065  -51.2680 H         1 UNK         0.0600 
    237 H237       -2.7883  -13.7287  -50.1557 H         1 UNK         0.0600 
    238 H238       -1.5064  -14.6695  -49.4078 H         1 UNK         0.0600 
    239 H239       -1.2223  -13.8804  -50.9436 H         1 UNK         0.0600 
    240 H240       -3.6718  -15.9777  -54.2947 H         1 UNK         0.3000 
    241 H241       -3.3049  -18.0136  -52.1888 H         1 UNK         0.0600 
    242 H242       -6.6976  -17.9284  -54.0954 H         1 UNK         0.3800 
    243 H243       -5.7411  -16.5421  -53.6515 H         1 UNK         0.3800 
    244 H244       -2.1725  -18.1373  -55.0111 H         1 UNK         0.0800 
    245 H245       -2.3623  -19.5427  -54.0039 H         1 UNK         0.0800 
    246 H246       -1.4450  -18.8958  -51.0597 H         1 UNK         0.0800 
    247 H247       -1.0609  -20.2491  -52.0941 H         1 UNK         0.0800 
@<TRIPOS>BOND
     1    1    2 1    
     2    1  127 1    
     3    1  128 1    
     4    1  129 1    
     5    2    3 2    
     6    2    4 am   BACKBONE|DICT|INTERRES
     7    4    5 1    
     8    4  130 1    
     9    5    6 1    
    10    5   65 1    
    11    5  131 1    
    12    6    7 1    
    13    6  132 1    
    14    6  133 1    
    15    7    8 1    
    16    8    9 1    
    17    8  134 1    
    18    8  135 1    
    19    9   10 ar   
    20    9   14 ar   
    21   10   11 ar   
    22   10  136 1    
    23   11   12 ar   
    24   11  126 1    
    25   12   13 ar   
    26   12  137 1    
    27   13   14 ar   
    28   13   15 1    
    29   14  138 1    
    30   15   16 1    
    31   15  139 1    
    32   15  140 1    
    33   16   17 1    
    34   17   18 1    
    35   17  141 1    
    36   17  142 1    
    37   18   19 1    
    38   18   67 1    
    39   18  143 1    
    40   19   20 am   BACKBONE|DICT|INTERRES
    41   19  144 1    
    42   20   21 2    
    43   20   22 1    
    44   22   23 1    
    45   22   24 1    
    46   22  145 1    
    47   23  146 1    
    48   23  147 1    
    49   23  148 1    
    50   24   25 am   BACKBONE|DICT|INTERRES
    51   24  149 1    
    52   25   26 2    
    53   25   27 1    
    54   27   28 1    
    55   27   29 1    
    56   27  150 1    
    57   28  151 1    
    58   28  152 1    
    59   28  153 1    
    60   29   30 am   BACKBONE|DICT|INTERRES
    61   29  154 1    
    62   30   31 2    
    63   30   32 1    
    64   32   33 1    
    65   32   34 1    
    66   32  155 1    
    67   33  156 1    
    68   33  157 1    
    69   33  158 1    
    70   34   35 am   BACKBONE|DICT|INTERRES
    71   34  159 1    
    72   35   36 2    
    73   35   37 1    
    74   37   38 1    
    75   37   39 1    
    76   37  160 1    
    77   38  161 1    
    78   38  162 1    
    79   38  163 1    
    80   39   40 am   BACKBONE|DICT|INTERRES
    81   39  164 1    
    82   40   41 2    
    83   40   42 1    
    84   42   43 1    
    85   42   44 1    
    86   42  165 1    
    87   43  166 1    
    88   43  167 1    
    89   43  168 1    
    90   44   45 am   BACKBONE|DICT|INTERRES
    91   44  169 1    
    92   45   46 2    
    93   45   47 1    
    94   47   48 1    
    95   47   49 1    
    96   47  170 1    
    97   48  171 1    
    98   48  172 1    
    99   48  173 1    
   100   49   50 am   BACKBONE|DICT|INTERRES
   101   49  174 1    
   102   50   51 2    
   103   50   52 1    
   104   52   53 1    
   105   52   54 1    
   106   52  175 1    
   107   53  176 1    
   108   53  177 1    
   109   53  178 1    
   110   54   55 am   BACKBONE|DICT|INTERRES
   111   54  179 1    
   112   55   56 2    
   113   55   57 1    
   114   57   58 1    
   115   57   59 1    
   116   57  180 1    
   117   58  181 1    
   118   58  182 1    
   119   58  183 1    
   120   59   60 am   BACKBONE|DICT|INTERRES
   121   59  184 1    
   122   60   61 2    
   123   60   62 1    
   124   62   63 1    
   125   62   64 1    
   126   62  185 1    
   127   63  186 1    
   128   63  187 1    
   129   63  188 1    
   130   64   65 am   BACKBONE|DICT|INTERRES
   131   64  189 1    
   132   65   66 2    
   133   67   68 2    
   134   67   69 am   BACKBONE|DICT|INTERRES
   135   69   70 1    
   136   69  190 1    
   137   70   71 1    
   138   70   72 1    
   139   70  191 1    
   140   71  192 1    
   141   71  193 1    
   142   71  194 1    
   143   72   73 2    
   144   72   74 am   BACKBONE|DICT|INTERRES
   145   74   75 1    
   146   74  195 1    
   147   75   76 1    
   148   75   77 1    
   149   75  196 1    
   150   76  197 1    
   151   76  198 1    
   152   76  199 1    
   153   77   78 2    
   154   77   79 am   BACKBONE|DICT|INTERRES
   155   79   80 1    
   156   79  200 1    
   157   80   81 1    
   158   80   82 1    
   159   80  201 1    
   160   81  202 1    
   161   81  203 1    
   162   81  204 1    
   163   82   83 2    
   164   82   84 am   BACKBONE|DICT|INTERRES
   165   84   85 1    
   166   84  205 1    
   167   85   86 1    
   168   85   87 1    
   169   85  206 1    
   170   86  207 1    
   171   86  208 1    
   172   86  209 1    
   173   87   88 2    
   174   87   89 am   BACKBONE|DICT|INTERRES
   175   89   90 1    
   176   89  210 1    
   177   90   91 1    
   178   90   92 1    
   179   90  211 1    
   180   91  212 1    
   181   91  213 1    
   182   91  214 1    
   183   92   93 2    
   184   92   94 am   BACKBONE|DICT|INTERRES
   185   94   95 1    
   186   94  215 1    
   187   95   96 1    
   188   95   97 1    
   189   95  216 1    
   190   96  217 1    
   191   96  218 1    
   192   96  219 1    
   193   97   98 2    
   194   97   99 am   BACKBONE|DICT|INTERRES
   195   99  100 1    
   196   99  220 1    
   197  100  101 1    
   198  100  102 1    
   199  100  221 1    
   200  101  222 1    
   201  101  223 1    
   202  101  224 1    
   203  102  103 2    
   204  102  104 am   BACKBONE|DICT|INTERRES
   205  104  105 1    
   206  104  225 1    
   207  105  106 1    
   208  105  107 1    
   209  105  226 1    
   210  106  227 1    
   211  106  228 1    
   212  106  229 1    
   213  107  108 2    
   214  107  109 am   BACKBONE|DICT|INTERRES
   215  109  110 1    
   216  109  230 1    
   217  110  111 1    
   218  110  112 1    
   219  110  231 1    
   220  111  232 1    
   221  111  233 1    
   222  111  234 1    
   223  112  113 2    
   224  112  114 am   BACKBONE|DICT|INTERRES
   225  114  115 1    
   226  114  235 1    
   227  115  116 1    
   228  115  117 1    
   229  115  236 1    
   230  116  237 1    
   231  116  238 1    
   232  116  239 1    
   233  117  118 2    
   234  117  119 am   BACKBONE|DICT|INTERRES
   235  119  120 1    
   236  119  240 1    
   237  120  121 1    
   238  120  124 1    
   239  120  241 1    
   240  121  122 am   BACKBONE|DICT|INTERRES
   241  121  123 2    
   242  122  242 1    
   243  122  243 1    
   244  124  125 1    
   245  124  244 1    
   246  124  245 1    
   247  125  126 1    
   248  126  246 1    
   249  126  247 1    
@<TRIPOS>SUBSTRUCTURE
     1 UNK         1 GROUP             0       ****    0 ROOT    
