@<TRIPOS>MOLECULE
3R540
247   249    1
SMALL
USER_CHARGES


@<TRIPOS>ATOM
      1 CA          4.4709  -16.5416  -45.1776 C.3       0 UNK        -0.1800 
      2 C           5.0072  -16.3891  -46.5983 C.2       0 UNK         0.5000 
      3 O           6.1272  -16.8139  -46.8715 O.2       0 UNK        -0.5000 
      4 N           4.2571  -15.7930  -47.5342 N.am      1 UNK        -0.5000 
      5 CA          2.9256  -15.1990  -47.3589 C.3       1 UNK         0.1400 
      6 C6          2.0519  -15.3833  -48.6242 C.3       23 UNK        -0.0398 
      7 S7          2.7270  -14.6486  -50.1602 S.3       23 UNK        -0.2404 
      8 C8          3.5916  -16.0425  -50.9640 C.3       23 UNK        -0.0205 
      9 C9          2.7417  -17.3009  -51.0829 C.ar      23 UNK        -0.0193 
     10 C10         1.5314  -17.2801  -51.7840 C.ar      23 UNK        -0.1150 
     11 C11         0.7521  -18.4358  -51.8827 C.ar      23 UNK        -0.0193 
     12 C12         1.1909  -19.6176  -51.2773 C.ar      23 UNK        -0.1150 
     13 C13         2.3994  -19.6535  -50.5772 C.ar      23 UNK        -0.0193 
     14 C14         3.1728  -18.4917  -50.4890 C.ar      23 UNK        -0.1150 
     15 C15         2.8746  -20.9580  -49.9484 C.3       23 UNK        -0.0205 
     16 S16         3.3016  -20.8031  -48.1818 S.3       23 UNK        -0.2404 
     17 C17         1.7172  -20.3046  -47.4280 C.3       23 UNK        -0.0398 
     18 CA          0.8949  -21.5122  -46.9058 C.3       11 UNK         0.1400 
     19 N           0.2222  -21.2203  -45.6355 N.am      11 UNK        -0.5000 
     20 C          -0.4212  -22.1255  -44.8839 C.2       10 UNK         0.5000 
     21 O          -0.4729  -23.3247  -45.1542 O.2       10 UNK        -0.5000 
     22 CA         -1.1807  -21.5980  -43.6526 C.3       10 UNK         0.1400 
     23 CB         -0.2285  -21.3810  -42.4676 C.3       10 UNK        -0.1800 
     24 N          -1.9159  -20.3644  -43.9361 N.am      10 UNK        -0.5000 
     25 C          -2.9331  -20.2786  -44.8058 C.2       9 UNK         0.5000 
     26 O          -3.3991  -21.2473  -45.4046 O.2       9 UNK        -0.5000 
     27 CA         -3.4936  -18.8744  -45.0952 C.3       9 UNK         0.1400 
     28 CB         -4.5061  -18.4567  -44.0189 C.3       9 UNK        -0.1800 
     29 N          -2.4487  -17.8569  -45.2117 N.am      9 UNK        -0.5000 
     30 C          -1.4843  -17.8586  -46.1433 C.2       8 UNK         0.5000 
     31 O          -1.3807  -18.7095  -47.0249 O.2       8 UNK        -0.5000 
     32 CA         -0.4166  -16.7579  -46.0355 C.3       8 UNK         0.1400 
     33 CB         -0.9683  -15.4160  -46.5400 C.3       8 UNK        -0.1800 
     34 N           0.0942  -16.6092  -44.6716 N.am      8 UNK        -0.5000 
     35 C           0.7182  -17.5755  -43.9813 C.2       7 UNK         0.5000 
     36 O           1.0125  -18.6707  -44.4566 O.2       7 UNK        -0.5000 
     37 CA          1.0067  -17.2982  -42.4958 C.3       7 UNK         0.1400 
     38 CB          2.3112  -16.5085  -42.3126 C.3       7 UNK        -0.1800 
     39 N          -0.0996  -16.5872  -41.8567 N.am      7 UNK        -0.5000 
     40 C          -1.2937  -17.1361  -41.5907 C.2       6 UNK         0.5000 
     41 O          -1.5697  -18.3136  -41.8180 O.2       6 UNK        -0.5000 
     42 CA         -2.3709  -16.1990  -41.0135 C.3       6 UNK         0.1400 
     43 CB         -2.2258  -16.0824  -39.4889 C.3       6 UNK        -0.1800 
     44 N          -2.3221  -14.8626  -41.6087 N.am      6 UNK        -0.5000 
     45 C          -2.6136  -14.5940  -42.8897 C.2       5 UNK         0.5000 
     46 O          -3.0231  -15.4384  -43.6850 O.2       5 UNK        -0.5000 
     47 CA         -2.3481  -13.1546  -43.3739 C.3       5 UNK         0.1400 
     48 CB         -3.5841  -12.2716  -43.1480 C.3       5 UNK        -0.1800 
     49 N          -1.1842  -12.5416  -42.7247 N.am      5 UNK        -0.5000 
     50 C           0.0723  -12.9856  -42.8574 C.2       4 UNK         0.5000 
     51 O           0.3883  -13.9393  -43.5729 O.2       4 UNK        -0.5000 
     52 CA          1.1332  -12.3131  -41.9789 C.3       4 UNK         0.1400 
     53 CB          1.0664  -12.9043  -40.5539 C.3       4 UNK        -0.1800 
     54 N           2.4483  -12.5402  -42.5732 N.am      4 UNK        -0.5000 
     55 C           3.6047  -12.0142  -42.1510 C.2       3 UNK         0.5000 
     56 O           3.6987  -11.2272  -41.2081 O.2       3 UNK        -0.5000 
     57 CA          4.8777  -12.4316  -42.9111 C.3       3 UNK         0.1400 
     58 CB          5.3859  -13.7916  -42.4060 C.3       3 UNK        -0.1800 
     59 N           4.7083  -12.4896  -44.3640 N.am      3 UNK        -0.5000 
     60 C           4.4592  -11.4343  -45.1536 C.2       2 UNK         0.5000 
     61 O           4.3012  -10.2876  -44.7331 O.2       2 UNK        -0.5000 
     62 CA          4.4047  -11.6912  -46.6732 C.3       2 UNK         0.1400 
     63 CB          5.7078  -11.2254  -47.3420 C.3       2 UNK        -0.1800 
     64 N           4.1720  -13.0939  -47.0271 N.am      2 UNK        -0.5000 
     65 C           2.9932  -13.7216  -46.9104 C.2       1 UNK         0.5000 
     66 O           1.9872  -13.1827  -46.4525 O.2       1 UNK        -0.5000 
     67 C          -0.0992  -22.0195  -47.9714 C.2       11 UNK         0.5000 
     68 O           0.1710  -23.0223  -48.6333 O.2       11 UNK        -0.5000 
     69 N          -1.2527  -21.3451  -48.0792 N.am      12 UNK        -0.5000 
     70 CA         -2.3546  -21.7055  -48.9680 C.3       12 UNK         0.1400 
     71 CB         -3.4469  -20.6312  -48.8985 C.3       12 UNK        -0.1800 
     72 C          -2.9443  -23.0901  -48.6517 C.2       12 UNK         0.5000 
     73 O          -3.1801  -23.8717  -49.5717 O.2       12 UNK        -0.5000 
     74 N          -3.1367  -23.3795  -47.3572 N.am      13 UNK        -0.5000 
     75 CA         -3.6042  -24.6688  -46.8503 C.3       13 UNK         0.1400 
     76 CB         -3.9501  -24.5400  -45.3595 C.3       13 UNK        -0.1800 
     77 C          -2.5917  -25.8057  -47.0790 C.2       13 UNK         0.5000 
     78 O          -3.0032  -26.9139  -47.4218 O.2       13 UNK        -0.5000 
     79 N          -1.2935  -25.5120  -46.9127 N.am      14 UNK        -0.5000 
     80 CA         -0.1909  -26.4413  -47.1707 C.3       14 UNK         0.1400 
     81 CB          1.1194  -25.8593  -46.6183 C.3       14 UNK        -0.1800 
     82 C          -0.0502  -26.7918  -48.6635 C.2       14 UNK         0.5000 
     83 O           0.1640  -27.9582  -48.9961 O.2       14 UNK        -0.5000 
     84 N          -0.2036  -25.7844  -49.5343 N.am      15 UNK        -0.5000 
     85 CA         -0.2527  -25.9423  -50.9899 C.3       15 UNK         0.1400 
     86 CB         -0.0822  -24.5631  -51.6413 C.3       15 UNK        -0.1800 
     87 C          -1.5498  -26.6205  -51.4791 C.2       15 UNK         0.5000 
     88 O          -1.5436  -27.2531  -52.5360 O.2       15 UNK        -0.5000 
     89 N          -2.6308  -26.4702  -50.7020 N.am      16 UNK        -0.5000 
     90 CA         -3.9829  -27.0177  -50.8434 C.3       16 UNK         0.1400 
     91 CB         -3.9756  -28.5574  -50.8834 C.3       16 UNK        -0.1800 
     92 C          -4.7746  -26.4187  -52.0172 C.2       16 UNK         0.5000 
     93 O          -5.8671  -25.8929  -51.8061 O.2       16 UNK        -0.5000 
     94 N          -4.2088  -26.4779  -53.2284 N.am      17 UNK        -0.5000 
     95 CA         -4.7956  -25.9302  -54.4542 C.3       17 UNK         0.1400 
     96 CB         -4.0012  -26.4477  -55.6623 C.3       17 UNK        -0.1800 
     97 C          -4.8441  -24.3903  -54.4601 C.2       17 UNK         0.5000 
     98 O          -5.7275  -23.8055  -55.0881 O.2       17 UNK        -0.5000 
     99 N          -3.9060  -23.7624  -53.7391 N.am      18 UNK        -0.5000 
    100 CA        -3.7709  -22.3120  -53.6170 C.3       18 UNK         0.1400 
    101 CB        -2.3356  -21.9826  -53.1979 C.3       18 UNK        -0.1800 
    102 C         -4.7901  -21.6690  -52.6554 C.2       18 UNK         0.5000 
    103 O         -4.8480  -20.4411  -52.5796 O.2       18 UNK        -0.5000 
    104 N         -5.6142  -22.4763  -51.9709 N.am      19 UNK        -0.5000 
    105 CA        -6.7209  -22.0208  -51.1219 C.3       19 UNK         0.1400 
    106 CB        -7.3504  -23.2341  -50.4234 C.3       19 UNK        -0.1800 
    107 C         -7.7929  -21.2069  -51.8804 C.2       19 UNK         0.5000 
    108 O         -8.4740  -20.3849  -51.2679 O.2       19 UNK        -0.5000 
    109 N         -7.8981  -21.4241  -53.1988 N.am      20 UNK        -0.5000 
    110 CA        -8.7463  -20.6573  -54.1121 C.3       20 UNK         0.1400 
    111 CB        -9.0934  -21.5526  -55.3126 C.3       20 UNK        -0.1800 
    112 C         -8.0956  -19.3411  -54.5944 C.2       20 UNK         0.5000 
    113 O         -8.7971  -18.5101  -55.1735 O.2       20 UNK        -0.5000 
    114 N         -6.7824  -19.1794  -54.3803 N.am      21 UNK        -0.5000 
    115 CA        -5.9884  -18.0242  -54.7909 C.3       21 UNK         0.1400 
    116 CB        -4.7207  -18.5206  -55.5167 C.3       21 UNK        -0.1800 
    117 C         -5.6870  -17.1604  -53.5543 C.2       21 UNK         0.5000 
    118 O         -6.5002  -16.3031  -53.2049 O.2       21 UNK        -0.5000 
    119 N         -4.5389  -17.4030  -52.9093 N.am      22 UNK        -0.5000 
    120 CA        -4.1417  -16.7936  -51.6291 C.3       22 UNK         0.1400 
    121 C         -4.9557  -17.3056  -50.4046 C.2       22 UNK         0.5000 
    122 N         -5.5763  -18.4770  -50.4738 N.am      22 UNK        -0.7600 
    123 O         -5.0415  -16.6182  -49.3908 O.2       22 UNK        -0.5000 
    124 C124       -2.6113  -16.9009  -51.3832 C.3       23 UNK        -0.0398 
    125 S125       -1.9804  -18.6100  -51.5416 S.3       23 UNK        -0.2404 
    126 C126       -0.5545  -18.4285  -52.6582 C.3       23 UNK        -0.0205 
    127 H127        4.0556  -15.6072  -44.8032 H         1 UNK         0.0600 
    128 H128        3.6959  -17.3081  -45.1495 H         1 UNK         0.0600 
    129 H129        5.2677  -16.8444  -44.4978 H         1 UNK         0.0600 
    130 H130        4.6328  -15.7131  -48.4676 H         1 UNK         0.3000 
    131 H131        2.4094  -15.7267  -46.5561 H         1 UNK         0.0600 
    132 H132        1.0688  -14.9387  -48.4677 H         1 UNK         0.0800 
    133 H133        1.8554  -16.4448  -48.7714 H         1 UNK         0.0800 
    134 H134        3.8972  -15.7316  -51.9639 H         1 UNK         0.0800 
    135 H135        4.5136  -16.2499  -50.4194 H         1 UNK         0.0800 
    136 H136        1.1976  -16.3622  -52.2478 H         1 UNK         0.1150 
    137 H137        0.5860  -20.5108  -51.3564 H         1 UNK         0.1150 
    138 H138        4.1106  -18.5177  -49.9512 H         1 UNK         0.1150 
    139 H139        2.1254  -21.7427  -50.0650 H         1 UNK         0.0800 
    140 H140        3.7577  -21.3008  -50.4896 H         1 UNK         0.0800 
    141 H141        1.1432  -19.6695  -48.1061 H         1 UNK         0.0800 
    142 H142        1.9925  -19.6530  -46.5992 H         1 UNK         0.0800 
    143 H143        1.5817  -22.3341  -46.6922 H         1 UNK         0.0600 
    144 H144        0.2540  -20.2570  -45.3149 H         1 UNK         0.3000 
    145 H145       -1.9092  -22.3581  -43.3629 H         1 UNK         0.0600 
    146 H146       -0.7727  -21.0645  -41.5776 H         1 UNK         0.0600 
    147 H147        0.2971  -22.3033  -42.2171 H         1 UNK         0.0600 
    148 H148        0.5245  -20.6242  -42.6856 H         1 UNK         0.0600 
    149 H149       -1.6274  -19.5320  -43.4328 H         1 UNK         0.3000 
    150 H150       -4.0165  -18.9185  -46.0528 H         1 UNK         0.0600 
    151 H151       -5.3103  -19.1886  -43.9345 H         1 UNK         0.0600 
    152 H152       -4.9633  -17.4969  -44.2600 H         1 UNK         0.0600 
    153 H153       -4.0387  -18.3672  -43.0382 H         1 UNK         0.0600 
    154 H154       -2.4891  -17.0864  -44.5504 H         1 UNK         0.3000 
    155 H155        0.4206  -17.0487  -46.6720 H         1 UNK         0.0600 
    156 H156       -1.8728  -15.1217  -46.0099 H         1 UNK         0.0600 
    157 H157       -1.2216  -15.4755  -47.5992 H         1 UNK         0.0600 
    158 H158       -0.2417  -14.6141  -46.4178 H         1 UNK         0.0600 
    159 H159       -0.0498  -15.7091  -44.2231 H         1 UNK         0.3000 
    160 H160        1.1253  -18.2600  -41.9923 H         1 UNK         0.0600 
    161 H161        2.4902  -16.2766  -41.2627 H         1 UNK         0.0600 
    162 H162        2.3037  -15.5705  -42.8665 H         1 UNK         0.0600 
    163 H163        3.1644  -17.0901  -42.6619 H         1 UNK         0.0600 
    164 H164        0.0298  -15.6013  -41.6904 H         1 UNK         0.3000 
    165 H165       -3.3473  -16.6361  -41.2328 H         1 UNK         0.0600 
    166 H166       -3.0266  -15.4783  -39.0621 H         1 UNK         0.0600 
    167 H167       -2.2742  -17.0647  -39.0167 H         1 UNK         0.0600 
    168 H168       -1.2750  -15.6286  -39.2064 H         1 UNK         0.0600 
    169 H169       -2.0064  -14.1088  -41.0174 H         1 UNK         0.3000 
    170 H170       -2.1504  -13.1973  -44.4469 H         1 UNK         0.0600 
    171 H171       -4.4611  -12.6956  -43.6392 H         1 UNK         0.0600 
    172 H172       -3.8192  -12.1689  -42.0878 H         1 UNK         0.0600 
    173 H173       -3.4352  -11.2725  -43.5581 H         1 UNK         0.0600 
    174 H174       -1.3690  -11.7587  -42.1137 H         1 UNK         0.3000 
    175 H175        0.9382  -11.2394  -41.9496 H         1 UNK         0.0600 
    176 H176        1.3309  -13.9623  -40.5455 H         1 UNK         0.0600 
    177 H177        1.7409  -12.3893  -39.8706 H         1 UNK         0.0600 
    178 H178        0.0649  -12.8123  -40.1319 H         1 UNK         0.0600 
    179 H179        2.4341  -13.1463  -43.3840 H         1 UNK         0.3000 
    180 H180        5.6464  -11.6854  -42.6986 H         1 UNK         0.0600 
    181 H181        4.6691  -14.5897  -42.5998 H         1 UNK         0.0600 
    182 H182        5.5616  -13.7661  -41.3296 H         1 UNK         0.0600 
    183 H183        6.3287  -14.0635  -42.8811 H         1 UNK         0.0600 
    184 H184        4.8435  -13.3863  -44.8034 H         1 UNK         0.3000 
    185 H185        3.5839  -11.0933  -47.0758 H         1 UNK         0.0600 
    186 H186        5.9021  -10.1728  -47.1311 H         1 UNK         0.0600 
    187 H187        6.5681  -11.7952  -46.9880 H         1 UNK         0.0600 
    188 H188        5.6555  -11.3329  -48.4257 H         1 UNK         0.0600 
    189 H189        4.9547  -13.6026  -47.4123 H         1 UNK         0.3000 
    190 H190       -1.3738  -20.4947  -47.5332 H         1 UNK         0.3000 
    191 H191       -1.9551  -21.7230  -49.9820 H         1 UNK         0.0600 
    192 H192       -3.9805  -20.6469  -47.9487 H         1 UNK         0.0600 
    193 H193       -4.1773  -20.7857  -49.6904 H         1 UNK         0.0600 
    194 H194       -3.0358  -19.6309  -49.0281 H         1 UNK         0.0600 
    195 H195       -2.9726  -22.6524  -46.6661 H         1 UNK         0.3000 
    196 H196       -4.5184  -24.9264  -47.3893 H         1 UNK         0.0600 
    197 H197       -3.0808  -24.2514  -44.7680 H         1 UNK         0.0600 
    198 H198       -4.3212  -25.4849  -44.9607 H         1 UNK         0.0600 
    199 H199       -4.7263  -23.7915  -45.1989 H         1 UNK         0.0600 
    200 H200       -1.0403  -24.5928  -46.5627 H         1 UNK         0.3000 
    201 H201       -0.4014  -27.3673  -46.6315 H         1 UNK         0.0600 
    202 H202        1.3739  -24.9121  -47.0940 H         1 UNK         0.0600 
    203 H203        1.9517  -26.5444  -46.7844 H         1 UNK         0.0600 
    204 H204        1.0507  -25.6855  -45.5444 H         1 UNK         0.0600 
    205 H205       -0.3021  -24.8390  -49.1735 H         1 UNK         0.3000 
    206 H206        0.5838  -26.5726  -51.2988 H         1 UNK         0.0600 
    207 H207        0.8974  -24.1409  -51.4159 H         1 UNK         0.0600 
    208 H208       -0.1730  -24.6196  -52.7268 H         1 UNK         0.0600 
    209 H209       -0.8332  -23.8639  -51.2770 H         1 UNK         0.0600 
    210 H210       -2.5344  -25.8260  -49.9254 H         1 UNK         0.3000 
    211 H211       -4.5073  -26.7218  -49.9333 H         1 UNK         0.0600 
    212 H212       -3.4738  -28.9449  -51.7702 H         1 UNK         0.0600 
    213 H213       -4.9932  -28.9497  -50.8882 H         1 UNK         0.0600 
    214 H214       -3.4729  -28.9679  -50.0073 H         1 UNK         0.0600 
    215 H215       -3.2866  -26.8998  -53.2956 H         1 UNK         0.3000 
    216 H216       -5.8219  -26.2943  -54.5349 H         1 UNK         0.0600 
    217 H217       -4.4219  -26.0738  -56.5967 H         1 UNK         0.0600 
    218 H218       -4.0218  -27.5366  -55.7101 H         1 UNK         0.0600 
    219 H219       -2.9575  -26.1333  -55.6218 H         1 UNK         0.0600 
    220 H220       -3.2377  -24.3254  -53.2344 H         1 UNK         0.3000 
    221 H221       -3.9393  -21.8707  -54.6017 H         1 UNK         0.0600 
    222 H222       -2.1449  -22.2772  -52.1677 H         1 UNK         0.0600 
    223 H223       -1.6042  -22.4769  -53.8387 H         1 UNK         0.0600 
    224 H224       -2.1584  -20.9113  -53.2737 H         1 UNK         0.0600 
    225 H225       -5.5083  -23.4767  -52.0730 H         1 UNK         0.3000 
    226 H226       -6.3066  -21.3689  -50.3522 H         1 UNK         0.0600 
    227 H227       -6.6112  -23.7742  -49.8306 H         1 UNK         0.0600 
    228 H228       -8.1486  -22.9262  -49.7468 H         1 UNK         0.0600 
    229 H229       -7.7795  -23.9328  -51.1426 H         1 UNK         0.0600 
    230 H230       -7.3062  -22.1279  -53.6183 H         1 UNK         0.3000 
    231 H231       -9.6764  -20.3959  -53.6029 H         1 UNK         0.0600 
    232 H232       -9.6091  -22.4585  -54.9927 H         1 UNK         0.0600 
    233 H233       -8.1996  -21.8518  -55.8619 H         1 UNK         0.0600 
    234 H234       -9.7521  -21.0352  -56.0116 H         1 UNK         0.0600 
    235 H235       -6.2914  -19.8647  -53.8181 H         1 UNK         0.3000 
    236 H236       -6.5472  -17.4008  -55.4921 H         1 UNK         0.0600 
    237 H237       -4.0707  -17.6862  -55.7842 H         1 UNK         0.0600 
    238 H238       -4.1375  -19.2163  -54.9127 H         1 UNK         0.0600 
    239 H239       -4.9826  -19.0339  -56.4421 H         1 UNK         0.0600 
    240 H240       -3.9615  -18.1732  -53.2170 H         1 UNK         0.3000 
    241 H241       -4.3705  -15.7283  -51.7022 H         1 UNK         0.0600 
    242 H242       -6.1282  -18.7924  -49.6940 H         1 UNK         0.3800 
    243 H243       -5.4338  -19.0727  -51.2819 H         1 UNK         0.3800 
    244 H244       -2.0936  -16.2534  -52.0911 H         1 UNK         0.0800 
    245 H245       -2.3444  -16.5213  -50.3951 H         1 UNK         0.0800 
    246 H246       -0.5437  -19.2628  -53.3602 H         1 UNK         0.0800 
    247 H247       -0.6482  -17.5300  -53.2696 H         1 UNK         0.0800 
@<TRIPOS>BOND
     1    1    2 1    
     2    1  127 1    
     3    1  128 1    
     4    1  129 1    
     5    2    3 2    
     6    2    4 am   BACKBONE|DICT|INTERRES
     7    4    5 1    
     8    4  130 1    
     9    5    6 1    
    10    5   65 1    
    11    5  131 1    
    12    6    7 1    
    13    6  132 1    
    14    6  133 1    
    15    7    8 1    
    16    8    9 1    
    17    8  134 1    
    18    8  135 1    
    19    9   10 ar   
    20    9   14 ar   
    21   10   11 ar   
    22   10  136 1    
    23   11   12 ar   
    24   11  126 1    
    25   12   13 ar   
    26   12  137 1    
    27   13   14 ar   
    28   13   15 1    
    29   14  138 1    
    30   15   16 1    
    31   15  139 1    
    32   15  140 1    
    33   16   17 1    
    34   17   18 1    
    35   17  141 1    
    36   17  142 1    
    37   18   19 1    
    38   18   67 1    
    39   18  143 1    
    40   19   20 am   BACKBONE|DICT|INTERRES
    41   19  144 1    
    42   20   21 2    
    43   20   22 1    
    44   22   23 1    
    45   22   24 1    
    46   22  145 1    
    47   23  146 1    
    48   23  147 1    
    49   23  148 1    
    50   24   25 am   BACKBONE|DICT|INTERRES
    51   24  149 1    
    52   25   26 2    
    53   25   27 1    
    54   27   28 1    
    55   27   29 1    
    56   27  150 1    
    57   28  151 1    
    58   28  152 1    
    59   28  153 1    
    60   29   30 am   BACKBONE|DICT|INTERRES
    61   29  154 1    
    62   30   31 2    
    63   30   32 1    
    64   32   33 1    
    65   32   34 1    
    66   32  155 1    
    67   33  156 1    
    68   33  157 1    
    69   33  158 1    
    70   34   35 am   BACKBONE|DICT|INTERRES
    71   34  159 1    
    72   35   36 2    
    73   35   37 1    
    74   37   38 1    
    75   37   39 1    
    76   37  160 1    
    77   38  161 1    
    78   38  162 1    
    79   38  163 1    
    80   39   40 am   BACKBONE|DICT|INTERRES
    81   39  164 1    
    82   40   41 2    
    83   40   42 1    
    84   42   43 1    
    85   42   44 1    
    86   42  165 1    
    87   43  166 1    
    88   43  167 1    
    89   43  168 1    
    90   44   45 am   BACKBONE|DICT|INTERRES
    91   44  169 1    
    92   45   46 2    
    93   45   47 1    
    94   47   48 1    
    95   47   49 1    
    96   47  170 1    
    97   48  171 1    
    98   48  172 1    
    99   48  173 1    
   100   49   50 am   BACKBONE|DICT|INTERRES
   101   49  174 1    
   102   50   51 2    
   103   50   52 1    
   104   52   53 1    
   105   52   54 1    
   106   52  175 1    
   107   53  176 1    
   108   53  177 1    
   109   53  178 1    
   110   54   55 am   BACKBONE|DICT|INTERRES
   111   54  179 1    
   112   55   56 2    
   113   55   57 1    
   114   57   58 1    
   115   57   59 1    
   116   57  180 1    
   117   58  181 1    
   118   58  182 1    
   119   58  183 1    
   120   59   60 am   BACKBONE|DICT|INTERRES
   121   59  184 1    
   122   60   61 2    
   123   60   62 1    
   124   62   63 1    
   125   62   64 1    
   126   62  185 1    
   127   63  186 1    
   128   63  187 1    
   129   63  188 1    
   130   64   65 am   BACKBONE|DICT|INTERRES
   131   64  189 1    
   132   65   66 2    
   133   67   68 2    
   134   67   69 am   BACKBONE|DICT|INTERRES
   135   69   70 1    
   136   69  190 1    
   137   70   71 1    
   138   70   72 1    
   139   70  191 1    
   140   71  192 1    
   141   71  193 1    
   142   71  194 1    
   143   72   73 2    
   144   72   74 am   BACKBONE|DICT|INTERRES
   145   74   75 1    
   146   74  195 1    
   147   75   76 1    
   148   75   77 1    
   149   75  196 1    
   150   76  197 1    
   151   76  198 1    
   152   76  199 1    
   153   77   78 2    
   154   77   79 am   BACKBONE|DICT|INTERRES
   155   79   80 1    
   156   79  200 1    
   157   80   81 1    
   158   80   82 1    
   159   80  201 1    
   160   81  202 1    
   161   81  203 1    
   162   81  204 1    
   163   82   83 2    
   164   82   84 am   BACKBONE|DICT|INTERRES
   165   84   85 1    
   166   84  205 1    
   167   85   86 1    
   168   85   87 1    
   169   85  206 1    
   170   86  207 1    
   171   86  208 1    
   172   86  209 1    
   173   87   88 2    
   174   87   89 am   BACKBONE|DICT|INTERRES
   175   89   90 1    
   176   89  210 1    
   177   90   91 1    
   178   90   92 1    
   179   90  211 1    
   180   91  212 1    
   181   91  213 1    
   182   91  214 1    
   183   92   93 2    
   184   92   94 am   BACKBONE|DICT|INTERRES
   185   94   95 1    
   186   94  215 1    
   187   95   96 1    
   188   95   97 1    
   189   95  216 1    
   190   96  217 1    
   191   96  218 1    
   192   96  219 1    
   193   97   98 2    
   194   97   99 am   BACKBONE|DICT|INTERRES
   195   99  100 1    
   196   99  220 1    
   197  100  101 1    
   198  100  102 1    
   199  100  221 1    
   200  101  222 1    
   201  101  223 1    
   202  101  224 1    
   203  102  103 2    
   204  102  104 am   BACKBONE|DICT|INTERRES
   205  104  105 1    
   206  104  225 1    
   207  105  106 1    
   208  105  107 1    
   209  105  226 1    
   210  106  227 1    
   211  106  228 1    
   212  106  229 1    
   213  107  108 2    
   214  107  109 am   BACKBONE|DICT|INTERRES
   215  109  110 1    
   216  109  230 1    
   217  110  111 1    
   218  110  112 1    
   219  110  231 1    
   220  111  232 1    
   221  111  233 1    
   222  111  234 1    
   223  112  113 2    
   224  112  114 am   BACKBONE|DICT|INTERRES
   225  114  115 1    
   226  114  235 1    
   227  115  116 1    
   228  115  117 1    
   229  115  236 1    
   230  116  237 1    
   231  116  238 1    
   232  116  239 1    
   233  117  118 2    
   234  117  119 am   BACKBONE|DICT|INTERRES
   235  119  120 1    
   236  119  240 1    
   237  120  121 1    
   238  120  124 1    
   239  120  241 1    
   240  121  122 am   BACKBONE|DICT|INTERRES
   241  121  123 2    
   242  122  242 1    
   243  122  243 1    
   244  124  125 1    
   245  124  244 1    
   246  124  245 1    
   247  125  126 1    
   248  126  246 1    
   249  126  247 1    
@<TRIPOS>SUBSTRUCTURE
     1 UNK         1 GROUP             0       ****    0 ROOT    
