@<TRIPOS>MOLECULE
3R540
247   249    1
SMALL
USER_CHARGES


@<TRIPOS>ATOM
      1 CA         -3.9652  -11.4309  -48.7070 C.3       0 UNK        -0.1800 
      2 C          -2.8421  -12.4329  -48.4863 C.2       0 UNK         0.5000 
      3 O          -1.9602  -12.1918  -47.6626 O.2       0 UNK        -0.5000 
      4 N          -2.8755  -13.5646  -49.2035 N.am      1 UNK        -0.5000 
      5 CA         -1.8773  -14.6390  -49.1264 C.3       1 UNK         0.1400 
      6 C6         -2.0836  -15.6755  -50.2616 C.3       23 UNK        -0.0398 
      7 S7         -0.9816  -17.1348  -50.2431 S.3       23 UNK        -0.2404 
      8 C8          0.5695  -16.4055  -50.8523 C.3       23 UNK        -0.0205 
      9 C9          1.6824  -17.4408  -50.9037 C.ar      23 UNK        -0.0193 
     10 C10         2.0790  -17.9973  -52.1236 C.ar      23 UNK        -0.1150 
     11 C11         3.1086  -18.9431  -52.1727 C.ar      23 UNK        -0.0193 
     12 C12         3.7305  -19.3414  -50.9861 C.ar      23 UNK        -0.1150 
     13 C13         3.3287  -18.8096  -49.7584 C.ar      23 UNK        -0.0193 
     14 C14         2.3202  -17.8412  -49.7260 C.ar      23 UNK        -0.1150 
     15 C15         3.9802  -19.2983  -48.4734 C.3       23 UNK        -0.0205 
     16 S16         3.2410  -20.8642  -47.9031 S.3       23 UNK        -0.2404 
     17 C17         1.6813  -20.2581  -47.1846 C.3       23 UNK        -0.0398 
     18 CA          0.5661  -21.3233  -47.1134 C.3       11 UNK         0.1400 
     19 N           0.9441  -22.4637  -46.2786 N.am      11 UNK        -0.5000 
     20 C           0.3063  -23.6399  -46.2589 C.2       10 UNK         0.5000 
     21 O          -0.6620  -23.9071  -46.9715 O.2       10 UNK        -0.5000 
     22 CA          0.8184  -24.6720  -45.2367 C.3       10 UNK         0.1400 
     23 CB          2.0461  -25.4151  -45.7844 C.3       10 UNK        -0.1800 
     24 N           1.1520  -24.0679  -43.9432 N.am      10 UNK        -0.5000 
     25 C           0.2494  -23.5178  -43.1193 C.2       9 UNK         0.5000 
     26 O          -0.9548  -23.4755  -43.3618 O.2       9 UNK        -0.5000 
     27 CA          0.7733  -22.8752  -41.8228 C.3       9 UNK         0.1400 
     28 CB          0.9292  -23.9356  -40.7229 C.3       9 UNK        -0.1800 
     29 N           2.0298  -22.1344  -41.9583 N.am      9 UNK        -0.5000 
     30 C           2.2791  -21.1476  -42.8283 C.2       8 UNK         0.5000 
     31 O           1.5070  -20.8129  -43.7277 O.2       8 UNK        -0.5000 
     32 CA          3.5990  -20.3819  -42.6185 C.3       8 UNK         0.1400 
     33 CB          4.0985  -19.7179  -43.9139 C.3       8 UNK        -0.1800 
     34 N           3.4370  -19.3644  -41.5775 N.am      8 UNK        -0.5000 
     35 C           3.3581  -19.6220  -40.2625 C.2       7 UNK         0.5000 
     36 O           3.5050  -20.7495  -39.7868 O.2       7 UNK        -0.5000 
     37 CA          3.0753  -18.4448  -39.3062 C.3       7 UNK         0.1400 
     38 CB          4.3652  -18.0142  -38.5909 C.3       7 UNK        -0.1800 
     39 N           2.4876  -17.2740  -39.9570 N.am      7 UNK        -0.5000 
     40 C           1.2347  -17.1862  -40.4235 C.2       6 UNK         0.5000 
     41 O           0.4054  -18.0916  -40.3318 O.2       6 UNK        -0.5000 
     42 CA          0.8465  -15.8678  -41.1285 C.3       6 UNK         0.1400 
     43 CB          1.6394  -14.6414  -40.6263 C.3       6 UNK        -0.1800 
     44 N           0.9416  -15.9678  -42.5867 N.am      6 UNK        -0.5000 
     45 C           2.0061  -16.3570  -43.3055 C.2       5 UNK         0.5000 
     46 O           3.0920  -16.6830  -42.8241 O.2       5 UNK        -0.5000 
     47 CA          1.8208  -16.3894  -44.8294 C.3       5 UNK         0.1400 
     48 CB          0.8038  -17.4709  -45.2178 C.3       5 UNK        -0.1800 
     49 N           1.3900  -15.1044  -45.3714 N.am      5 UNK        -0.5000 
     50 C           2.0949  -13.9650  -45.3382 C.2       4 UNK         0.5000 
     51 O           3.2383  -13.8732  -44.8904 O.2       4 UNK        -0.5000 
     52 CA          1.3936  -12.7096  -45.8906 C.3       4 UNK         0.1400 
     53 CB          1.5130  -12.6466  -47.4213 C.3       4 UNK        -0.1800 
     54 N          -0.0177  -12.6491  -45.5093 N.am      4 UNK        -0.5000 
     55 C          -0.4610  -12.4730  -44.2563 C.2       3 UNK         0.5000 
     56 O           0.2726  -12.2496  -43.2933 O.2       3 UNK        -0.5000 
     57 CA         -1.9791  -12.5960  -44.0371 C.3       3 UNK         0.1400 
     58 CB         -2.6877  -11.2624  -44.3202 C.3       3 UNK        -0.1800 
     59 N          -2.5701  -13.6513  -44.8609 N.am      3 UNK        -0.5000 
     60 C          -2.4024  -14.9628  -44.6410 C.2       2 UNK         0.5000 
     61 O          -1.7584  -15.4220  -43.6965 O.2       2 UNK        -0.5000 
     62 CA         -3.0322  -15.9224  -45.6698 C.3       2 UNK         0.1400 
     63 CB         -4.4919  -16.2263  -45.3067 C.3       2 UNK        -0.1800 
     64 N          -2.9578  -15.4247  -47.0462 N.am      2 UNK        -0.5000 
     65 C          -1.8062  -15.2676  -47.7166 C.2       1 UNK         0.5000 
     66 O          -0.7067  -15.5361  -47.2374 O.2       1 UNK        -0.5000 
     67 C          -0.7456  -20.6891  -46.6090 C.2       11 UNK         0.5000 
     68 O          -1.6181  -20.3659  -47.4150 O.2       11 UNK        -0.5000 
     69 N          -0.8743  -20.5527  -45.2816 N.am      12 UNK        -0.5000 
     70 CA         -2.0568  -20.0155  -44.6101 C.3       12 UNK         0.1400 
     71 CB         -1.7385  -19.7736  -43.1278 C.3       12 UNK        -0.1800 
     72 C          -3.3030  -20.9047  -44.7752 C.2       12 UNK         0.5000 
     73 O          -4.4086  -20.3744  -44.8737 O.2       12 UNK        -0.5000 
     74 N          -3.1052  -22.2295  -44.8294 N.am      13 UNK        -0.5000 
     75 CA         -4.1476  -23.2137  -45.1184 C.3       13 UNK         0.1400 
     76 CB         -3.6394  -24.6229  -44.7778 C.3       13 UNK        -0.1800 
     77 C          -4.6332  -23.1520  -46.5776 C.2       13 UNK         0.5000 
     78 O          -5.8294  -23.3146  -46.8158 O.2       13 UNK        -0.5000 
     79 N          -3.7092  -22.9133  -47.5210 N.am      14 UNK        -0.5000 
     80 CA         -4.0100  -22.7164  -48.9403 C.3       14 UNK         0.1400 
     81 CB         -2.7121  -22.7848  -49.7613 C.3       14 UNK        -0.1800 
     82 C          -4.7446  -21.3888  -49.1899 C.2       14 UNK         0.5000 
     83 O          -5.7624  -21.3719  -49.8856 O.2       14 UNK        -0.5000 
     84 N          -4.2090  -20.3014  -48.6143 N.am      15 UNK        -0.5000 
     85 CA         -4.7529  -18.9369  -48.5787 C.3       15 UNK         0.1400 
     86 CB         -6.0702  -18.9205  -47.7746 C.3       15 UNK        -0.1800 
     87 C          -4.9431  -18.2621  -49.9550 C.2       15 UNK         0.5000 
     88 O          -5.5445  -17.1888  -50.0128 O.2       15 UNK        -0.5000 
     89 N          -4.4582  -18.9002  -51.0318 N.am      16 UNK        -0.5000 
     90 CA         -4.7439  -18.6033  -52.4402 C.3       16 UNK         0.1400 
     91 CB         -4.1463  -17.2429  -52.8547 C.3       16 UNK        -0.1800 
     92 C          -6.2495  -18.7307  -52.7770 C.2       16 UNK         0.5000 
     93 O          -6.7395  -18.0224  -53.6589 O.2       16 UNK        -0.5000 
     94 N          -6.9610  -19.6112  -52.0569 N.am      17 UNK        -0.5000 
     95 CA         -8.4119  -19.7725  -52.1382 C.3       17 UNK         0.1400 
     96 CB         -9.0893  -18.9090  -51.0604 C.3       17 UNK        -0.1800 
     97 C          -8.8277  -21.2446  -52.0159 C.2       17 UNK         0.5000 
     98 O          -9.5819  -21.7288  -52.8607 O.2       17 UNK        -0.5000 
     99 N          -8.3282  -21.9394  -50.9842 N.am      18 UNK        -0.5000 
    100 CA        -8.5535  -23.3730  -50.7761 C.3       18 UNK         0.1400 
    101 CB        -8.3314  -23.7123  -49.2960 C.3       18 UNK        -0.1800 
    102 C         -7.6356  -24.2239  -51.6717 C.2       18 UNK         0.5000 
    103 O         -8.0285  -25.3098  -52.0997 O.2       18 UNK        -0.5000 
    104 N         -6.4469  -23.6901  -51.9640 N.am      19 UNK        -0.5000 
    105 CA        -5.5059  -24.1698  -52.9639 C.3       19 UNK         0.1400 
    106 CB        -4.4927  -25.1282  -52.3179 C.3       19 UNK        -0.1800 
    107 C         -4.8263  -22.9372  -53.5758 C.2       19 UNK         0.5000 
    108 O         -4.8102  -21.8748  -52.9478 O.2       19 UNK        -0.5000 
    109 N         -4.3021  -23.0918  -54.7963 N.am      20 UNK        -0.5000 
    110 CA        -3.6610  -22.0291  -55.5722 C.3       20 UNK         0.1400 
    111 CB        -3.3742  -22.5604  -56.9860 C.3       20 UNK        -0.1800 
    112 C         -2.3644  -21.5007  -54.9295 C.2       20 UNK         0.5000 
    113 O         -1.7086  -22.2162  -54.1674 O.2       20 UNK        -0.5000 
    114 N         -1.9899  -20.2694  -55.2998 N.am      21 UNK        -0.5000 
    115 CA        -0.7657  -19.5816  -54.8820 C.3       21 UNK         0.1400 
    116 CB        -0.9510  -18.0695  -55.1041 C.3       21 UNK        -0.1800 
    117 C          0.4846  -20.1345  -55.6013 C.2       21 UNK         0.5000 
    118 O          1.1488  -19.4097  -56.3438 O.2       21 UNK        -0.5000 
    119 N          0.7676  -21.4208  -55.3704 N.am      22 UNK        -0.5000 
    120 CA         1.9303  -22.1827  -55.8632 C.3       22 UNK         0.1400 
    121 C          1.9236  -22.4853  -57.3933 C.2       22 UNK         0.5000 
    122 N          0.8247  -22.2760  -58.1078 N.am      22 UNK        -0.7600 
    123 O          2.9201  -22.9501  -57.9409 O.2       22 UNK        -0.5000 
    124 C124        3.2960  -21.6122  -55.3810 C.3       23 UNK        -0.0398 
    125 S125        3.3495  -21.3309  -53.5756 S.3       23 UNK        -0.2404 
    126 C126        3.5576  -19.5215  -53.5069 C.3       23 UNK        -0.0205 
    127 H127       -4.4942  -11.2499  -47.7714 H         1 UNK         0.0600 
    128 H128       -4.6864  -11.7850  -49.4439 H         1 UNK         0.0600 
    129 H129       -3.5567  -10.4832  -49.0574 H         1 UNK         0.0600 
    130 H130       -3.6292  -13.7057  -49.8613 H         1 UNK         0.3000 
    131 H131       -0.9074  -14.1681  -49.2977 H         1 UNK         0.0600 
    132 H132       -1.9824  -15.1841  -51.2302 H         1 UNK         0.0800 
    133 H133       -3.1067  -16.0462  -50.2287 H         1 UNK         0.0800 
    134 H134        0.4035  -15.9709  -51.8393 H         1 UNK         0.0800 
    135 H135        0.8709  -15.5873  -50.1967 H         1 UNK         0.0800 
    136 H136        1.5909  -17.6866  -53.0361 H         1 UNK         0.1150 
    137 H137        4.5167  -20.0830  -51.0172 H         1 UNK         0.1150 
    138 H138        2.0109  -17.4120  -48.7831 H         1 UNK         0.1150 
    139 H139        5.0468  -19.4534  -48.6425 H         1 UNK         0.0800 
    140 H140        3.9030  -18.5449  -47.6877 H         1 UNK         0.0800 
    141 H141        1.3297  -19.4098  -47.7698 H         1 UNK         0.0800 
    142 H142        1.9175  -19.8802  -46.1921 H         1 UNK         0.0800 
    143 H143        0.3836  -21.6892  -48.1263 H         1 UNK         0.0600 
    144 H144        1.6939  -22.3058  -45.6209 H         1 UNK         0.3000 
    145 H145        0.0220  -25.4017  -45.0752 H         1 UNK         0.0600 
    146 H146        2.3680  -26.2015  -45.1015 H         1 UNK         0.0600 
    147 H147        1.8202  -25.8888  -46.7408 H         1 UNK         0.0600 
    148 H148        2.8891  -24.7413  -45.9430 H         1 UNK         0.0600 
    149 H149        2.1247  -24.0562  -43.6738 H         1 UNK         0.3000 
    150 H150        0.0200  -22.1589  -41.4908 H         1 UNK         0.0600 
    151 H151        0.0008  -24.4900  -40.5788 H         1 UNK         0.0600 
    152 H152        1.1839  -23.4775  -39.7669 H         1 UNK         0.0600 
    153 H153        1.7091  -24.6577  -40.9678 H         1 UNK         0.0600 
    154 H154        2.7033  -22.2703  -41.2149 H         1 UNK         0.3000 
    155 H155        4.3614  -21.0962  -42.3007 H         1 UNK         0.0600 
    156 H156        3.3923  -18.9811  -44.2935 H         1 UNK         0.0600 
    157 H157        4.2484  -20.4597  -44.6993 H         1 UNK         0.0600 
    158 H158        5.0516  -19.2135  -43.7555 H         1 UNK         0.0600 
    159 H159        3.3009  -18.4095  -41.8964 H         1 UNK         0.3000 
    160 H160        2.3710  -18.8025  -38.5523 H         1 UNK         0.0600 
    161 H161        5.1057  -17.6309  -39.2941 H         1 UNK         0.0600 
    162 H162        4.8186  -18.8534  -38.0616 H         1 UNK         0.0600 
    163 H163        4.1670  -17.2363  -37.8532 H         1 UNK         0.0600 
    164 H164        3.1094  -16.4968  -40.1280 H         1 UNK         0.3000 
    165 H165       -0.2061  -15.6942  -40.9001 H         1 UNK         0.0600 
    166 H166        1.2281  -13.7211  -41.0411 H         1 UNK         0.0600 
    167 H167        1.5861  -14.5561  -39.5402 H         1 UNK         0.0600 
    168 H168        2.6923  -14.6820  -40.9071 H         1 UNK         0.0600 
    169 H169        0.0817  -15.7532  -43.0845 H         1 UNK         0.3000 
    170 H170        2.7821  -16.6433  -45.2807 H         1 UNK         0.0600 
    171 H171        1.0444  -18.4196  -44.7421 H         1 UNK         0.0600 
    172 H172       -0.2061  -17.2121  -44.9056 H         1 UNK         0.0600 
    173 H173        0.7850  -17.6241  -46.2957 H         1 UNK         0.0600 
    174 H174        0.4916  -15.1017  -45.8466 H         1 UNK         0.3000 
    175 H175        1.8943  -11.8335  -45.4734 H         1 UNK         0.0600 
    176 H176        1.0389  -13.5041  -47.8988 H         1 UNK         0.0600 
    177 H177        1.0468  -11.7439  -47.8168 H         1 UNK         0.0600 
    178 H178        2.5589  -12.6365  -47.7301 H         1 UNK         0.0600 
    179 H179       -0.6988  -12.7528  -46.2554 H         1 UNK         0.3000 
    180 H180       -2.1440  -12.8486  -42.9873 H         1 UNK         0.0600 
    181 H181       -3.7562  -11.3325  -44.1162 H         1 UNK         0.0600 
    182 H182       -2.5638  -10.9477  -45.3566 H         1 UNK         0.0600 
    183 H183       -2.2878  -10.4687  -43.6879 H         1 UNK         0.0600 
    184 H184       -3.0679  -13.3557  -45.6875 H         1 UNK         0.3000 
    185 H185       -2.4735  -16.8574  -45.6277 H         1 UNK         0.0600 
    186 H186       -4.9076  -16.9917  -45.9598 H         1 UNK         0.0600 
    187 H187       -4.5700  -16.6005  -44.2849 H         1 UNK         0.0600 
    188 H188       -5.1214  -15.3388  -45.3818 H         1 UNK         0.0600 
    189 H189       -3.8238  -15.1546  -47.4893 H         1 UNK         0.3000 
    190 H190       -0.0890  -20.8079  -44.6867 H         1 UNK         0.3000 
    191 H191       -2.2837  -19.0525  -45.0679 H         1 UNK         0.0600 
    192 H192       -2.5851  -19.3136  -42.6170 H         1 UNK         0.0600 
    193 H193       -0.8849  -19.1054  -43.0080 H         1 UNK         0.0600 
    194 H194       -1.5093  -20.7051  -42.6111 H         1 UNK         0.0600 
    195 H195       -2.1785  -22.5948  -44.6336 H         1 UNK         0.3000 
    196 H196       -5.0035  -22.9993  -44.4750 H         1 UNK         0.0600 
    197 H197       -2.7462  -24.8784  -45.3489 H         1 UNK         0.0600 
    198 H198       -3.3954  -24.7075  -43.7188 H         1 UNK         0.0600 
    199 H199       -4.3973  -25.3762  -44.9966 H         1 UNK         0.0600 
    200 H200       -2.7411  -22.8225  -47.2413 H         1 UNK         0.3000 
    201 H201       -4.6643  -23.5262  -49.2700 H         1 UNK         0.0600 
    202 H202       -2.2455  -23.7664  -49.6760 H         1 UNK         0.0600 
    203 H203       -1.9826  -22.0432  -49.4369 H         1 UNK         0.0600 
    204 H204       -2.9060  -22.6049  -50.8197 H         1 UNK         0.0600 
    205 H205       -3.3279  -20.4183  -48.1163 H         1 UNK         0.3000 
    206 H206       -4.0199  -18.3334  -48.0413 H         1 UNK         0.0600 
    207 H207       -5.9366  -19.3600  -46.7871 H         1 UNK         0.0600 
    208 H208       -6.4338  -17.9031  -47.6276 H         1 UNK         0.0600 
    209 H209       -6.8604  -19.4753  -48.2808 H         1 UNK         0.0600 
    210 H210       -3.9891  -19.7792  -50.8671 H         1 UNK         0.3000 
    211 H211       -4.2314  -19.3667  -53.0251 H         1 UNK         0.0600 
    212 H212       -4.2217  -17.0962  -53.9325 H         1 UNK         0.0600 
    213 H213       -3.0906  -17.1841  -52.5936 H         1 UNK         0.0600 
    214 H214       -4.6591  -16.4081  -52.3770 H         1 UNK         0.0600 
    215 H215       -6.4699  -20.1905  -51.3841 H         1 UNK         0.3000 
    216 H216       -8.7639  -19.4320  -53.1144 H         1 UNK         0.0600 
    217 H217       -8.7525  -19.1768  -50.0583 H         1 UNK         0.0600 
    218 H218      -10.1733  -19.0265  -51.0878 H         1 UNK         0.0600 
    219 H219       -8.8723  -17.8514  -51.2116 H         1 UNK         0.0600 
    220 H220       -7.6624  -21.5012  -50.3566 H         1 UNK         0.3000 
    221 H221       -9.5890  -23.6129  -51.0273 H         1 UNK         0.0600 
    222 H222       -8.9898  -23.1292  -48.6522 H         1 UNK         0.0600 
    223 H223       -7.3040  -23.5145  -48.9922 H         1 UNK         0.0600 
    224 H224       -8.5333  -24.7664  -49.1019 H         1 UNK         0.0600 
    225 H225       -6.2186  -22.7734  -51.5940 H         1 UNK         0.3000 
    226 H226       -6.0471  -24.6903  -53.7570 H         1 UNK         0.0600 
    227 H227       -3.9435  -24.6505  -51.5086 H         1 UNK         0.0600 
    228 H228       -4.9907  -26.0070  -51.9080 H         1 UNK         0.0600 
    229 H229       -3.7630  -25.4787  -53.0486 H         1 UNK         0.0600 
    230 H230       -4.3284  -24.0040  -55.2274 H         1 UNK         0.3000 
    231 H231       -4.3677  -21.1996  -55.6463 H         1 UNK         0.0600 
    232 H232       -2.6780  -23.4002  -56.9660 H         1 UNK         0.0600 
    233 H233       -2.9363  -21.7869  -57.6181 H         1 UNK         0.0600 
    234 H234       -4.2891  -22.8946  -57.4757 H         1 UNK         0.0600 
    235 H235       -2.5639  -19.7706  -55.9641 H         1 UNK         0.3000 
    236 H236       -0.6209  -19.7431  -53.8113 H         1 UNK         0.0600 
    237 H237       -1.7984  -17.6882  -54.5372 H         1 UNK         0.0600 
    238 H238       -0.0711  -17.5132  -54.7798 H         1 UNK         0.0600 
    239 H239       -1.1192  -17.8336  -56.1556 H         1 UNK         0.0600 
    240 H240        0.1184  -21.9367  -54.7834 H         1 UNK         0.3000 
    241 H241        1.8251  -23.1648  -55.4015 H         1 UNK         0.0600 
    242 H242        0.8261  -22.4846  -59.0940 H         1 UNK         0.3800 
    243 H243        0.0015  -21.8910  -57.6753 H         1 UNK         0.3800 
    244 H244        3.5338  -20.6900  -55.9129 H         1 UNK         0.0800 
    245 H245        4.1004  -22.3087  -55.6229 H         1 UNK         0.0800 
    246 H246        3.0005  -19.0555  -54.3202 H         1 UNK         0.0800 
    247 H247        4.6071  -19.2751  -53.6727 H         1 UNK         0.0800 
@<TRIPOS>BOND
     1    1    2 1    
     2    1  127 1    
     3    1  128 1    
     4    1  129 1    
     5    2    3 2    
     6    2    4 am   BACKBONE|DICT|INTERRES
     7    4    5 1    
     8    4  130 1    
     9    5    6 1    
    10    5   65 1    
    11    5  131 1    
    12    6    7 1    
    13    6  132 1    
    14    6  133 1    
    15    7    8 1    
    16    8    9 1    
    17    8  134 1    
    18    8  135 1    
    19    9   10 ar   
    20    9   14 ar   
    21   10   11 ar   
    22   10  136 1    
    23   11   12 ar   
    24   11  126 1    
    25   12   13 ar   
    26   12  137 1    
    27   13   14 ar   
    28   13   15 1    
    29   14  138 1    
    30   15   16 1    
    31   15  139 1    
    32   15  140 1    
    33   16   17 1    
    34   17   18 1    
    35   17  141 1    
    36   17  142 1    
    37   18   19 1    
    38   18   67 1    
    39   18  143 1    
    40   19   20 am   BACKBONE|DICT|INTERRES
    41   19  144 1    
    42   20   21 2    
    43   20   22 1    
    44   22   23 1    
    45   22   24 1    
    46   22  145 1    
    47   23  146 1    
    48   23  147 1    
    49   23  148 1    
    50   24   25 am   BACKBONE|DICT|INTERRES
    51   24  149 1    
    52   25   26 2    
    53   25   27 1    
    54   27   28 1    
    55   27   29 1    
    56   27  150 1    
    57   28  151 1    
    58   28  152 1    
    59   28  153 1    
    60   29   30 am   BACKBONE|DICT|INTERRES
    61   29  154 1    
    62   30   31 2    
    63   30   32 1    
    64   32   33 1    
    65   32   34 1    
    66   32  155 1    
    67   33  156 1    
    68   33  157 1    
    69   33  158 1    
    70   34   35 am   BACKBONE|DICT|INTERRES
    71   34  159 1    
    72   35   36 2    
    73   35   37 1    
    74   37   38 1    
    75   37   39 1    
    76   37  160 1    
    77   38  161 1    
    78   38  162 1    
    79   38  163 1    
    80   39   40 am   BACKBONE|DICT|INTERRES
    81   39  164 1    
    82   40   41 2    
    83   40   42 1    
    84   42   43 1    
    85   42   44 1    
    86   42  165 1    
    87   43  166 1    
    88   43  167 1    
    89   43  168 1    
    90   44   45 am   BACKBONE|DICT|INTERRES
    91   44  169 1    
    92   45   46 2    
    93   45   47 1    
    94   47   48 1    
    95   47   49 1    
    96   47  170 1    
    97   48  171 1    
    98   48  172 1    
    99   48  173 1    
   100   49   50 am   BACKBONE|DICT|INTERRES
   101   49  174 1    
   102   50   51 2    
   103   50   52 1    
   104   52   53 1    
   105   52   54 1    
   106   52  175 1    
   107   53  176 1    
   108   53  177 1    
   109   53  178 1    
   110   54   55 am   BACKBONE|DICT|INTERRES
   111   54  179 1    
   112   55   56 2    
   113   55   57 1    
   114   57   58 1    
   115   57   59 1    
   116   57  180 1    
   117   58  181 1    
   118   58  182 1    
   119   58  183 1    
   120   59   60 am   BACKBONE|DICT|INTERRES
   121   59  184 1    
   122   60   61 2    
   123   60   62 1    
   124   62   63 1    
   125   62   64 1    
   126   62  185 1    
   127   63  186 1    
   128   63  187 1    
   129   63  188 1    
   130   64   65 am   BACKBONE|DICT|INTERRES
   131   64  189 1    
   132   65   66 2    
   133   67   68 2    
   134   67   69 am   BACKBONE|DICT|INTERRES
   135   69   70 1    
   136   69  190 1    
   137   70   71 1    
   138   70   72 1    
   139   70  191 1    
   140   71  192 1    
   141   71  193 1    
   142   71  194 1    
   143   72   73 2    
   144   72   74 am   BACKBONE|DICT|INTERRES
   145   74   75 1    
   146   74  195 1    
   147   75   76 1    
   148   75   77 1    
   149   75  196 1    
   150   76  197 1    
   151   76  198 1    
   152   76  199 1    
   153   77   78 2    
   154   77   79 am   BACKBONE|DICT|INTERRES
   155   79   80 1    
   156   79  200 1    
   157   80   81 1    
   158   80   82 1    
   159   80  201 1    
   160   81  202 1    
   161   81  203 1    
   162   81  204 1    
   163   82   83 2    
   164   82   84 am   BACKBONE|DICT|INTERRES
   165   84   85 1    
   166   84  205 1    
   167   85   86 1    
   168   85   87 1    
   169   85  206 1    
   170   86  207 1    
   171   86  208 1    
   172   86  209 1    
   173   87   88 2    
   174   87   89 am   BACKBONE|DICT|INTERRES
   175   89   90 1    
   176   89  210 1    
   177   90   91 1    
   178   90   92 1    
   179   90  211 1    
   180   91  212 1    
   181   91  213 1    
   182   91  214 1    
   183   92   93 2    
   184   92   94 am   BACKBONE|DICT|INTERRES
   185   94   95 1    
   186   94  215 1    
   187   95   96 1    
   188   95   97 1    
   189   95  216 1    
   190   96  217 1    
   191   96  218 1    
   192   96  219 1    
   193   97   98 2    
   194   97   99 am   BACKBONE|DICT|INTERRES
   195   99  100 1    
   196   99  220 1    
   197  100  101 1    
   198  100  102 1    
   199  100  221 1    
   200  101  222 1    
   201  101  223 1    
   202  101  224 1    
   203  102  103 2    
   204  102  104 am   BACKBONE|DICT|INTERRES
   205  104  105 1    
   206  104  225 1    
   207  105  106 1    
   208  105  107 1    
   209  105  226 1    
   210  106  227 1    
   211  106  228 1    
   212  106  229 1    
   213  107  108 2    
   214  107  109 am   BACKBONE|DICT|INTERRES
   215  109  110 1    
   216  109  230 1    
   217  110  111 1    
   218  110  112 1    
   219  110  231 1    
   220  111  232 1    
   221  111  233 1    
   222  111  234 1    
   223  112  113 2    
   224  112  114 am   BACKBONE|DICT|INTERRES
   225  114  115 1    
   226  114  235 1    
   227  115  116 1    
   228  115  117 1    
   229  115  236 1    
   230  116  237 1    
   231  116  238 1    
   232  116  239 1    
   233  117  118 2    
   234  117  119 am   BACKBONE|DICT|INTERRES
   235  119  120 1    
   236  119  240 1    
   237  120  121 1    
   238  120  124 1    
   239  120  241 1    
   240  121  122 am   BACKBONE|DICT|INTERRES
   241  121  123 2    
   242  122  242 1    
   243  122  243 1    
   244  124  125 1    
   245  124  244 1    
   246  124  245 1    
   247  125  126 1    
   248  126  246 1    
   249  126  247 1    
@<TRIPOS>SUBSTRUCTURE
     1 UNK         1 GROUP             0       ****    0 ROOT    
