@<TRIPOS>MOLECULE
3R540
247   249    1
SMALL
USER_CHARGES


@<TRIPOS>ATOM
      1 CA          3.3914  -10.9131  -48.3889 C.3       0 UNK        -0.1800 
      2 C           1.8915  -10.8428  -48.1389 C.2       0 UNK         0.5000 
      3 O           1.3631   -9.7585  -47.8951 O.2       0 UNK        -0.5000 
      4 N           1.2127  -11.9972  -48.1988 N.am      1 UNK        -0.5000 
      5 CA         -0.2244  -12.1774  -47.9473 C.3       1 UNK         0.1400 
      6 C6         -1.1126  -11.5225  -49.0383 C.3       23 UNK        -0.0398 
      7 S7         -2.7364  -12.3386  -49.2049 S.3       23 UNK        -0.2404 
      8 C8         -2.2959  -13.7903  -50.2086 C.3       23 UNK        -0.0205 
      9 C9         -3.5343  -14.5842  -50.5864 C.ar      23 UNK        -0.0193 
     10 C10        -4.1495  -14.3708  -51.8228 C.ar      23 UNK        -0.1150 
     11 C11        -5.2792  -15.1059  -52.1920 C.ar      23 UNK        -0.0193 
     12 C12        -5.8124  -16.0355  -51.2931 C.ar      23 UNK        -0.1150 
     13 C13        -5.2169  -16.2457  -50.0451 C.ar      23 UNK        -0.0193 
     14 C14        -4.0690  -15.5260  -49.7015 C.ar      23 UNK        -0.1150 
     15 C15        -5.8394  -17.2259  -49.0626 C.3       23 UNK        -0.0205 
     16 S16        -5.2453  -18.9232  -49.3298 S.3       23 UNK        -0.2404 
     17 C17        -3.7934  -18.9999  -48.2249 C.3       23 UNK        -0.0398 
     18 CA         -3.4019  -20.4555  -47.8682 C.3       11 UNK         0.1400 
     19 N          -2.0757  -20.5385  -47.2514 N.am      11 UNK        -0.5000 
     20 C          -1.4168  -21.6854  -47.0247 C.2       10 UNK         0.5000 
     21 O          -1.8161  -22.7857  -47.4013 O.2       10 UNK        -0.5000 
     22 CA         -0.1203  -21.5986  -46.1986 C.3       10 UNK         0.1400 
     23 CB          1.0816  -21.2602  -47.0909 C.3       10 UNK        -0.1800 
     24 N          -0.2104  -20.6263  -45.1091 N.am      10 UNK        -0.5000 
     25 C          -1.0387  -20.7338  -44.0607 C.2       9 UNK         0.5000 
     26 O          -1.7861  -21.6925  -43.8780 O.2       9 UNK        -0.5000 
     27 CA         -1.0860  -19.5449  -43.0854 C.3       9 UNK         0.1400 
     28 CB          0.1067  -19.5671  -42.1172 C.3       9 UNK        -0.1800 
     29 N          -1.1295  -18.2637  -43.7890 N.am      9 UNK        -0.5000 
     30 C          -2.1564  -17.8470  -44.5442 C.2       8 UNK         0.5000 
     31 O          -3.1973  -18.4839  -44.7002 O.2       8 UNK        -0.5000 
     32 CA         -1.9637  -16.5172  -45.2931 C.3       8 UNK         0.1400 
     33 CB         -2.3988  -15.3339  -44.4191 C.3       8 UNK        -0.1800 
     34 N          -0.5791  -16.3384  -45.7386 N.am      8 UNK        -0.5000 
     35 C          -0.0352  -17.0626  -46.7283 C.2       7 UNK         0.5000 
     36 O          -0.6505  -17.9188  -47.3644 O.2       7 UNK        -0.5000 
     37 CA          1.4532  -16.8221  -47.0231 C.3       7 UNK         0.1400 
     38 CB          1.6455  -15.5553  -47.8663 C.3       7 UNK        -0.1800 
     39 N           2.2574  -16.7088  -45.8086 N.am      7 UNK        -0.5000 
     40 C           2.4991  -17.7033  -44.9468 C.2       6 UNK         0.5000 
     41 O           1.9988  -18.8211  -45.0588 O.2       6 UNK        -0.5000 
     42 CA          3.4114  -17.4097  -43.7384 C.3       6 UNK         0.1400 
     43 CB          4.6107  -18.3757  -43.6829 C.3       6 UNK        -0.1800 
     44 N           3.8410  -16.0104  -43.6190 N.am      6 UNK        -0.5000 
     45 C           4.6810  -15.3074  -44.3960 C.2       5 UNK         0.5000 
     46 O           5.2736  -15.7781  -45.3661 O.2       5 UNK        -0.5000 
     47 CA          4.8493  -13.8081  -44.0691 C.3       5 UNK         0.1400 
     48 CB          4.2704  -12.9428  -45.2027 C.3       5 UNK        -0.1800 
     49 N           4.1937  -13.4298  -42.8157 N.am      5 UNK        -0.5000 
     50 C           4.7279  -13.5655  -41.5939 C.2       4 UNK         0.5000 
     51 O           5.8812  -13.9432  -41.3876 O.2       4 UNK        -0.5000 
     52 CA          3.7993  -13.2578  -40.4020 C.3       4 UNK         0.1400 
     53 CB          3.9562  -11.7942  -39.9627 C.3       4 UNK        -0.1800 
     54 N           2.3865  -13.5202  -40.6958 N.am      4 UNK        -0.5000 
     55 C           1.8574  -14.7358  -40.9021 C.2       3 UNK         0.5000 
     56 O           2.5006  -15.7816  -40.8320 O.2       3 UNK        -0.5000 
     57 CA          0.3793  -14.7837  -41.3284 C.3       3 UNK         0.1400 
     58 CB         -0.5435  -14.8385  -40.1028 C.3       3 UNK        -0.1800 
     59 N           0.0120  -13.6412  -42.1684 N.am      3 UNK        -0.5000 
     60 C           0.4233  -13.4776  -43.4310 C.2       2 UNK         0.5000 
     61 O           1.1050  -14.3065  -44.0450 O.2       2 UNK        -0.5000 
     62 CA          0.0174  -12.1666  -44.1130 C.3       2 UNK         0.1400 
     63 CB          0.8998  -11.0024  -43.6315 C.3       2 UNK        -0.1800 
     64 N           0.1810  -12.3290  -45.5504 N.am      2 UNK        -0.5000 
     65 C          -0.6048  -11.8035  -46.4951 C.2       1 UNK         0.5000 
     66 O          -1.5586  -11.0612  -46.2549 O.2       1 UNK        -0.5000 
     67 C          -4.4714  -21.1684  -47.0051 C.2       11 UNK         0.5000 
     68 O          -5.2245  -21.9921  -47.5275 O.2       11 UNK        -0.5000 
     69 N          -4.4890  -20.8781  -45.6954 N.am      12 UNK        -0.5000 
     70 CA         -5.3981  -21.4861  -44.7200 C.3       12 UNK         0.1400 
     71 CB         -5.2553  -20.7687  -43.3695 C.3       12 UNK        -0.1800 
     72 C          -5.1990  -23.0054  -44.5535 C.2       12 UNK         0.5000 
     73 O          -6.1814  -23.7306  -44.3881 O.2       12 UNK        -0.5000 
     74 N          -3.9450  -23.4688  -44.6344 N.am      13 UNK        -0.5000 
     75 CA         -3.5357  -24.8738  -44.5825 C.3       13 UNK         0.1400 
     76 CB         -2.0416  -24.9404  -44.2191 C.3       13 UNK        -0.1800 
     77 C          -3.8570  -25.6303  -45.8902 C.2       13 UNK         0.5000 
     78 O          -2.9508  -26.1407  -46.5525 O.2       13 UNK        -0.5000 
     79 N          -5.1495  -25.6738  -46.2458 N.am      14 UNK        -0.5000 
     80 CA         -5.7396  -26.3536  -47.4063 C.3       14 UNK         0.1400 
     81 CB         -5.7079  -27.8816  -47.1968 C.3       14 UNK        -0.1800 
     82 C          -5.1076  -25.9267  -48.7479 C.2       14 UNK         0.5000 
     83 O          -4.8722  -26.7670  -49.6204 O.2       14 UNK        -0.5000 
     84 N          -4.7854  -24.6289  -48.8637 N.am      15 UNK        -0.5000 
     85 CA         -4.0952  -23.9885  -49.9871 C.3       15 UNK         0.1400 
     86 CB         -5.0022  -23.9914  -51.2348 C.3       15 UNK        -0.1800 
     87 C          -2.6908  -24.5603  -50.2787 C.2       15 UNK         0.5000 
     88 O          -2.1926  -24.3826  -51.3915 O.2       15 UNK        -0.5000 
     89 N          -2.0922  -25.2648  -49.3062 N.am      16 UNK        -0.5000 
     90 CA         -0.8729  -26.0707  -49.4180 C.3       16 UNK         0.1400 
     91 CB          0.3626  -25.1725  -49.6236 C.3       16 UNK        -0.1800 
     92 C          -1.0048  -27.1775  -50.4878 C.2       16 UNK         0.5000 
     93 O          -0.0557  -27.4351  -51.2288 O.2       16 UNK        -0.5000 
     94 N          -2.2005  -27.7852  -50.5572 N.am      17 UNK        -0.5000 
     95 CA         -2.6559  -28.7384  -51.5737 C.3       17 UNK         0.1400 
     96 CB         -1.8063  -30.0274  -51.5710 C.3       17 UNK        -0.1800 
     97 C          -2.7773  -28.0754  -52.9619 C.2       17 UNK         0.5000 
     98 O          -2.2982  -28.6205  -53.9577 O.2       17 UNK        -0.5000 
     99 N          -3.4334  -26.9045  -52.9816 N.am      18 UNK        -0.5000 
    100 CA        -3.7179  -26.0560  -54.1452 C.3       18 UNK         0.1400 
    101 CB        -4.7006  -26.7594  -55.1050 C.3       18 UNK        -0.1800 
    102 C         -2.4405  -25.5457  -54.8436 C.2       18 UNK         0.5000 
    103 O         -2.2959  -25.6955  -56.0589 O.2       18 UNK        -0.5000 
    104 N         -1.5358  -24.9559  -54.0531 N.am      19 UNK        -0.5000 
    105 CA        -0.2482  -24.4319  -54.5089 C.3       19 UNK         0.1400 
    106 CB         0.8666  -25.4065  -54.0965 C.3       19 UNK        -0.1800 
    107 C          0.0465  -23.0205  -53.9728 C.2       19 UNK         0.5000 
    108 O          0.6545  -22.2280  -54.6935 O.2       19 UNK        -0.5000 
    109 N         -0.3585  -22.7240  -52.7298 N.am      20 UNK        -0.5000 
    110 CA        -0.0388  -21.4657  -52.0499 C.3       20 UNK         0.1400 
    111 CB         0.1501  -21.7302  -50.5496 C.3       20 UNK        -0.1800 
    112 C         -1.1026  -20.3774  -52.2521 C.2       20 UNK         0.5000 
    113 O         -0.7580  -19.1941  -52.2202 O.2       20 UNK        -0.5000 
    114 N         -2.3692  -20.7816  -52.4307 N.am      21 UNK        -0.5000 
    115 CA        -3.5150  -19.8785  -52.5520 C.3       21 UNK         0.1400 
    116 CB        -4.8221  -20.6809  -52.6067 C.3       21 UNK        -0.1800 
    117 C         -3.3870  -18.9338  -53.7574 C.2       21 UNK         0.5000 
    118 O         -3.3838  -19.3939  -54.9012 O.2       21 UNK        -0.5000 
    119 N         -3.2538  -17.6387  -53.4549 N.am      22 UNK        -0.5000 
    120 CA        -3.0397  -16.5397  -54.4079 C.3       22 UNK         0.1400 
    121 C         -1.6617  -16.5760  -55.1373 C.2       22 UNK         0.5000 
    122 N         -0.6694  -17.3057  -54.6384 N.am      22 UNK        -0.7600 
    123 O         -1.4736  -15.9095  -56.1517 O.2       22 UNK        -0.5000 
    124 C124       -4.2378  -16.3035  -55.3737 C.3       23 UNK        -0.0398 
    125 S125       -5.8981  -16.3682  -54.6018 S.3       23 UNK        -0.2404 
    126 C126       -5.9368  -14.8798  -53.5485 C.3       23 UNK        -0.0205 
    127 H127        3.7244  -11.9331  -48.5824 H         1 UNK         0.0600 
    128 H128        3.9333  -10.5394  -47.5200 H         1 UNK         0.0600 
    129 H129        3.6582  -10.2989  -49.2489 H         1 UNK         0.0600 
    130 H130        1.7196  -12.8372  -48.4368 H         1 UNK         0.3000 
    131 H131       -0.3788  -13.2546  -48.0091 H         1 UNK         0.0600 
    132 H132       -0.6151  -11.5710  -50.0079 H         1 UNK         0.0800 
    133 H133       -1.2614  -10.4597  -48.8402 H         1 UNK         0.0800 
    134 H134       -1.7673  -13.4681  -51.1073 H         1 UNK         0.0800 
    135 H135       -1.6063  -14.4302  -49.6566 H         1 UNK         0.0800 
    136 H136       -3.7409  -13.6362  -52.5026 H         1 UNK         0.1150 
    137 H137       -6.6959  -16.5954  -51.5669 H         1 UNK         0.1150 
    138 H138       -3.6021  -15.6841  -48.7393 H         1 UNK         0.1150 
    139 H139       -5.6530  -16.9120  -48.0346 H         1 UNK         0.0800 
    140 H140       -6.9237  -17.2179  -49.1832 H         1 UNK         0.0800 
    141 H141       -3.9831  -18.4203  -47.3208 H         1 UNK         0.0800 
    142 H142       -2.9667  -18.5060  -48.7378 H         1 UNK         0.0800 
    143 H143       -3.3265  -20.9989  -48.8106 H         1 UNK         0.0600 
    144 H144       -1.6454  -19.6642  -46.9700 H         1 UNK         0.3000 
    145 H145        0.0559  -22.5802  -45.7543 H         1 UNK         0.0600 
    146 H146        2.0063  -21.2388  -46.5141 H         1 UNK         0.0600 
    147 H147        1.2076  -22.0091  -47.8728 H         1 UNK         0.0600 
    148 H148        0.9659  -20.2885  -47.5723 H         1 UNK         0.0600 
    149 H149        0.4275  -19.8357  -45.1562 H         1 UNK         0.3000 
    150 H150       -2.0006  -19.6341  -42.4953 H         1 UNK         0.0600 
    151 H151        0.1165  -20.4912  -41.5379 H         1 UNK         0.0600 
    152 H152        0.0565  -18.7403  -41.4083 H         1 UNK         0.0600 
    153 H153        1.0598  -19.5028  -42.6413 H         1 UNK         0.0600 
    154 H154       -0.2967  -17.6970  -43.7566 H         1 UNK         0.3000 
    155 H155       -2.6063  -16.5332  -46.1763 H         1 UNK         0.0600 
    156 H156       -2.2335  -14.3828  -44.9256 H         1 UNK         0.0600 
    157 H157       -3.4629  -15.3971  -44.1881 H         1 UNK         0.0600 
    158 H158       -1.8645  -15.3168  -43.4700 H         1 UNK         0.0600 
    159 H159        0.0002  -15.6790  -45.2319 H         1 UNK         0.3000 
    160 H160        1.8188  -17.6763  -47.5971 H         1 UNK         0.0600 
    161 H161        1.4038  -14.6641  -47.2900 H         1 UNK         0.0600 
    162 H162        1.0095  -15.5682  -48.7528 H         1 UNK         0.0600 
    163 H163        2.6776  -15.4642  -48.2058 H         1 UNK         0.0600 
    164 H164        2.6794  -15.8129  -45.6176 H         1 UNK         0.3000 
    165 H165        2.8001  -17.6032  -42.8564 H         1 UNK         0.0600 
    166 H166        5.2387  -18.2989  -44.5706 H         1 UNK         0.0600 
    167 H167        5.2341  -18.1803  -42.8104 H         1 UNK         0.0600 
    168 H168        4.2735  -19.4107  -43.6147 H         1 UNK         0.0600 
    169 H169        3.4123  -15.5166  -42.8475 H         1 UNK         0.3000 
    170 H170        5.9195  -13.6043  -43.9942 H         1 UNK         0.0600 
    171 H171        4.7695  -13.1519  -46.1498 H         1 UNK         0.0600 
    172 H172        3.2057  -13.1237  -45.3482 H         1 UNK         0.0600 
    173 H173        4.4045  -11.8807  -44.9964 H         1 UNK         0.0600 
    174 H174        3.2354  -13.1238  -42.8862 H         1 UNK         0.3000 
    175 H175        4.1005  -13.9007  -39.5721 H         1 UNK         0.0600 
    176 H176        3.6505  -11.1021  -40.7485 H         1 UNK         0.0600 
    177 H177        3.3582  -11.5821  -39.0761 H         1 UNK         0.0600 
    178 H178        4.9944  -11.5704  -39.7137 H         1 UNK         0.0600 
    179 H179        1.7821  -12.7150  -40.7645 H         1 UNK         0.3000 
    180 H180        0.2305  -15.6994  -41.9052 H         1 UNK         0.0600 
    181 H181       -0.4546  -13.9415  -39.4887 H         1 UNK         0.0600 
    182 H182       -0.3023  -15.6947  -39.4712 H         1 UNK         0.0600 
    183 H183       -1.5872  -14.9402  -40.4009 H         1 UNK         0.0600 
    184 H184       -0.5594  -12.9284  -41.7371 H         1 UNK         0.3000 
    185 H185       -1.0287  -11.9654  -43.8724 H         1 UNK         0.0600 
    186 H186        0.7994  -10.8454  -42.5571 H         1 UNK         0.0600 
    187 H187        1.9549  -11.1802  -43.8433 H         1 UNK         0.0600 
    188 H188        0.6174  -10.0701  -44.1211 H         1 UNK         0.0600 
    189 H189        0.9241  -12.9603  -45.8133 H         1 UNK         0.3000 
    190 H190       -3.8602  -20.1637  -45.3386 H         1 UNK         0.3000 
    191 H191       -6.4170  -21.3284  -45.0792 H         1 UNK         0.0600 
    192 H192       -4.2460  -20.8627  -42.9682 H         1 UNK         0.0600 
    193 H193       -5.4802  -19.7060  -43.4620 H         1 UNK         0.0600 
    194 H194       -5.9427  -21.1836  -42.6313 H         1 UNK         0.0600 
    195 H195       -3.1924  -22.7916  -44.7136 H         1 UNK         0.3000 
    196 H196       -4.0918  -25.3659  -43.7822 H         1 UNK         0.0600 
    197 H197       -1.8462  -24.4548  -43.2629 H         1 UNK         0.0600 
    198 H198       -1.4245  -24.4524  -44.9744 H         1 UNK         0.0600 
    199 H199       -1.7032  -25.9736  -44.1330 H         1 UNK         0.0600 
    200 H200       -5.7992  -25.1671  -45.6506 H         1 UNK         0.3000 
    201 H201       -6.7847  -26.0441  -47.4494 H         1 UNK         0.0600 
    202 H202       -6.2439  -28.3985  -47.9937 H         1 UNK         0.0600 
    203 H203       -6.1819  -28.1603  -46.2557 H         1 UNK         0.0600 
    204 H204       -4.6874  -28.2662  -47.1850 H         1 UNK         0.0600 
    205 H205       -5.0015  -24.0047  -48.0934 H         1 UNK         0.3000 
    206 H206       -3.9329  -22.9511  -49.7046 H         1 UNK         0.0600 
    207 H207       -5.9355  -23.4641  -51.0374 H         1 UNK         0.0600 
    208 H208       -5.2571  -25.0006  -51.5558 H         1 UNK         0.0600 
    209 H209       -4.5235  -23.4942  -52.0773 H         1 UNK         0.0600 
    210 H210       -2.5614  -25.3321  -48.4084 H         1 UNK         0.3000 
    211 H211       -0.7567  -26.5795  -48.4602 H         1 UNK         0.0600 
    212 H212        0.4012  -24.3805  -48.8756 H         1 UNK         0.0600 
    213 H213        1.2830  -25.7502  -49.5341 H         1 UNK         0.0600 
    214 H214        0.3652  -24.7098  -50.6099 H         1 UNK         0.0600 
    215 H215       -2.9284  -27.4619  -49.9283 H         1 UNK         0.3000 
    216 H216       -3.6695  -29.0211  -51.2853 H         1 UNK         0.0600 
    217 H217       -2.2473  -30.7821  -52.2230 H         1 UNK         0.0600 
    218 H218       -0.7899  -29.8509  -51.9232 H         1 UNK         0.0600 
    219 H219       -1.7460  -30.4577  -50.5714 H         1 UNK         0.0600 
    220 H220       -3.7601  -26.5485  -52.0946 H         1 UNK         0.3000 
    221 H221       -4.2234  -25.1679  -53.7677 H         1 UNK         0.0600 
    222 H222       -4.2601  -27.6457  -55.5625 H         1 UNK         0.0600 
    223 H223       -5.6074  -27.0665  -54.5841 H         1 UNK         0.0600 
    224 H224       -5.0022  -26.0913  -55.9126 H         1 UNK         0.0600 
    225 H225       -1.7467  -24.8607  -53.0621 H         1 UNK         0.3000 
    226 H226       -0.2406  -24.3538  -55.5980 H         1 UNK         0.0600 
    227 H227        0.7039  -26.3949  -54.5267 H         1 UNK         0.0600 
    228 H228        1.8410  -25.0568  -54.4397 H         1 UNK         0.0600 
    229 H229        0.9194  -25.5199  -53.0132 H         1 UNK         0.0600 
    230 H230       -0.8881  -23.4075  -52.1955 H         1 UNK         0.3000 
    231 H231        0.9051  -21.0709  -52.4324 H         1 UNK         0.0600 
    232 H232        0.3347  -20.8006  -50.0096 H         1 UNK         0.0600 
    233 H233        1.0076  -22.3787  -50.3736 H         1 UNK         0.0600 
    234 H234       -0.7286  -22.1976  -50.1044 H         1 UNK         0.0600 
    235 H235       -2.5539  -21.7708  -52.4952 H         1 UNK         0.3000 
    236 H236       -3.5396  -19.2715  -51.6456 H         1 UNK         0.0600 
    237 H237       -5.0010  -21.1933  -51.6626 H         1 UNK         0.0600 
    238 H238       -5.6754  -20.0222  -52.7754 H         1 UNK         0.0600 
    239 H239       -4.8126  -21.4192  -53.4091 H         1 UNK         0.0600 
    240 H240       -3.2570  -17.3661  -52.4827 H         1 UNK         0.3000 
    241 H241       -2.9577  -15.6479  -53.7927 H         1 UNK         0.0600 
    242 H242        0.2215  -17.3157  -55.1086 H         1 UNK         0.3800 
    243 H243       -0.7998  -17.8589  -53.7984 H         1 UNK         0.3800 
    244 H244       -4.2233  -17.0536  -56.1659 H         1 UNK         0.0800 
    245 H245       -4.1326  -15.3402  -55.8751 H         1 UNK         0.0800 
    246 H246       -6.9777  -14.5981  -53.3845 H         1 UNK         0.0800 
    247 H247       -5.4757  -14.0451  -54.0786 H         1 UNK         0.0800 
@<TRIPOS>BOND
     1    1    2 1    
     2    1  127 1    
     3    1  128 1    
     4    1  129 1    
     5    2    3 2    
     6    2    4 am   BACKBONE|DICT|INTERRES
     7    4    5 1    
     8    4  130 1    
     9    5    6 1    
    10    5   65 1    
    11    5  131 1    
    12    6    7 1    
    13    6  132 1    
    14    6  133 1    
    15    7    8 1    
    16    8    9 1    
    17    8  134 1    
    18    8  135 1    
    19    9   10 ar   
    20    9   14 ar   
    21   10   11 ar   
    22   10  136 1    
    23   11   12 ar   
    24   11  126 1    
    25   12   13 ar   
    26   12  137 1    
    27   13   14 ar   
    28   13   15 1    
    29   14  138 1    
    30   15   16 1    
    31   15  139 1    
    32   15  140 1    
    33   16   17 1    
    34   17   18 1    
    35   17  141 1    
    36   17  142 1    
    37   18   19 1    
    38   18   67 1    
    39   18  143 1    
    40   19   20 am   BACKBONE|DICT|INTERRES
    41   19  144 1    
    42   20   21 2    
    43   20   22 1    
    44   22   23 1    
    45   22   24 1    
    46   22  145 1    
    47   23  146 1    
    48   23  147 1    
    49   23  148 1    
    50   24   25 am   BACKBONE|DICT|INTERRES
    51   24  149 1    
    52   25   26 2    
    53   25   27 1    
    54   27   28 1    
    55   27   29 1    
    56   27  150 1    
    57   28  151 1    
    58   28  152 1    
    59   28  153 1    
    60   29   30 am   BACKBONE|DICT|INTERRES
    61   29  154 1    
    62   30   31 2    
    63   30   32 1    
    64   32   33 1    
    65   32   34 1    
    66   32  155 1    
    67   33  156 1    
    68   33  157 1    
    69   33  158 1    
    70   34   35 am   BACKBONE|DICT|INTERRES
    71   34  159 1    
    72   35   36 2    
    73   35   37 1    
    74   37   38 1    
    75   37   39 1    
    76   37  160 1    
    77   38  161 1    
    78   38  162 1    
    79   38  163 1    
    80   39   40 am   BACKBONE|DICT|INTERRES
    81   39  164 1    
    82   40   41 2    
    83   40   42 1    
    84   42   43 1    
    85   42   44 1    
    86   42  165 1    
    87   43  166 1    
    88   43  167 1    
    89   43  168 1    
    90   44   45 am   BACKBONE|DICT|INTERRES
    91   44  169 1    
    92   45   46 2    
    93   45   47 1    
    94   47   48 1    
    95   47   49 1    
    96   47  170 1    
    97   48  171 1    
    98   48  172 1    
    99   48  173 1    
   100   49   50 am   BACKBONE|DICT|INTERRES
   101   49  174 1    
   102   50   51 2    
   103   50   52 1    
   104   52   53 1    
   105   52   54 1    
   106   52  175 1    
   107   53  176 1    
   108   53  177 1    
   109   53  178 1    
   110   54   55 am   BACKBONE|DICT|INTERRES
   111   54  179 1    
   112   55   56 2    
   113   55   57 1    
   114   57   58 1    
   115   57   59 1    
   116   57  180 1    
   117   58  181 1    
   118   58  182 1    
   119   58  183 1    
   120   59   60 am   BACKBONE|DICT|INTERRES
   121   59  184 1    
   122   60   61 2    
   123   60   62 1    
   124   62   63 1    
   125   62   64 1    
   126   62  185 1    
   127   63  186 1    
   128   63  187 1    
   129   63  188 1    
   130   64   65 am   BACKBONE|DICT|INTERRES
   131   64  189 1    
   132   65   66 2    
   133   67   68 2    
   134   67   69 am   BACKBONE|DICT|INTERRES
   135   69   70 1    
   136   69  190 1    
   137   70   71 1    
   138   70   72 1    
   139   70  191 1    
   140   71  192 1    
   141   71  193 1    
   142   71  194 1    
   143   72   73 2    
   144   72   74 am   BACKBONE|DICT|INTERRES
   145   74   75 1    
   146   74  195 1    
   147   75   76 1    
   148   75   77 1    
   149   75  196 1    
   150   76  197 1    
   151   76  198 1    
   152   76  199 1    
   153   77   78 2    
   154   77   79 am   BACKBONE|DICT|INTERRES
   155   79   80 1    
   156   79  200 1    
   157   80   81 1    
   158   80   82 1    
   159   80  201 1    
   160   81  202 1    
   161   81  203 1    
   162   81  204 1    
   163   82   83 2    
   164   82   84 am   BACKBONE|DICT|INTERRES
   165   84   85 1    
   166   84  205 1    
   167   85   86 1    
   168   85   87 1    
   169   85  206 1    
   170   86  207 1    
   171   86  208 1    
   172   86  209 1    
   173   87   88 2    
   174   87   89 am   BACKBONE|DICT|INTERRES
   175   89   90 1    
   176   89  210 1    
   177   90   91 1    
   178   90   92 1    
   179   90  211 1    
   180   91  212 1    
   181   91  213 1    
   182   91  214 1    
   183   92   93 2    
   184   92   94 am   BACKBONE|DICT|INTERRES
   185   94   95 1    
   186   94  215 1    
   187   95   96 1    
   188   95   97 1    
   189   95  216 1    
   190   96  217 1    
   191   96  218 1    
   192   96  219 1    
   193   97   98 2    
   194   97   99 am   BACKBONE|DICT|INTERRES
   195   99  100 1    
   196   99  220 1    
   197  100  101 1    
   198  100  102 1    
   199  100  221 1    
   200  101  222 1    
   201  101  223 1    
   202  101  224 1    
   203  102  103 2    
   204  102  104 am   BACKBONE|DICT|INTERRES
   205  104  105 1    
   206  104  225 1    
   207  105  106 1    
   208  105  107 1    
   209  105  226 1    
   210  106  227 1    
   211  106  228 1    
   212  106  229 1    
   213  107  108 2    
   214  107  109 am   BACKBONE|DICT|INTERRES
   215  109  110 1    
   216  109  230 1    
   217  110  111 1    
   218  110  112 1    
   219  110  231 1    
   220  111  232 1    
   221  111  233 1    
   222  111  234 1    
   223  112  113 2    
   224  112  114 am   BACKBONE|DICT|INTERRES
   225  114  115 1    
   226  114  235 1    
   227  115  116 1    
   228  115  117 1    
   229  115  236 1    
   230  116  237 1    
   231  116  238 1    
   232  116  239 1    
   233  117  118 2    
   234  117  119 am   BACKBONE|DICT|INTERRES
   235  119  120 1    
   236  119  240 1    
   237  120  121 1    
   238  120  124 1    
   239  120  241 1    
   240  121  122 am   BACKBONE|DICT|INTERRES
   241  121  123 2    
   242  122  242 1    
   243  122  243 1    
   244  124  125 1    
   245  124  244 1    
   246  124  245 1    
   247  125  126 1    
   248  126  246 1    
   249  126  247 1    
@<TRIPOS>SUBSTRUCTURE
     1 UNK         1 GROUP             0       ****    0 ROOT    
