@<TRIPOS>MOLECULE
3R540
247   249    1
SMALL
USER_CHARGES


@<TRIPOS>ATOM
      1 CA         -1.5861  -10.3118  -48.8410 C.3       0 UNK        -0.1800 
      2 C          -0.8991  -11.0153  -47.6795 C.2       0 UNK         0.5000 
      3 O           0.0513  -10.4768  -47.1111 O.2       0 UNK        -0.5000 
      4 N          -1.3785  -12.2114  -47.3177 N.am      1 UNK        -0.5000 
      5 CA         -0.8584  -13.0491  -46.2300 C.3       1 UNK         0.1400 
      6 C6         -1.1524  -14.5521  -46.4674 C.3       23 UNK        -0.0398 
      7 S7         -0.3511  -15.1657  -47.9855 S.3       23 UNK        -0.2404 
      8 C8         -0.9945  -16.8630  -48.0420 C.3       23 UNK        -0.0205 
      9 C9         -0.3883  -17.6324  -49.2034 C.ar      23 UNK        -0.0193 
     10 C10        -0.9389  -17.5295  -50.4843 C.ar      23 UNK        -0.1150 
     11 C11        -0.3661  -18.2083  -51.5657 C.ar      23 UNK        -0.0193 
     12 C12         0.7651  -19.0027  -51.3457 C.ar      23 UNK        -0.1150 
     13 C13         1.3152  -19.1261  -50.0664 C.ar      23 UNK        -0.0193 
     14 C14         0.7372  -18.4338  -48.9996 C.ar      23 UNK        -0.1150 
     15 C15         2.5517  -19.9843  -49.8496 C.3       23 UNK        -0.0205 
     16 S16         2.1307  -21.7355  -49.5861 S.3       23 UNK        -0.2404 
     17 C17         1.6463  -21.7467  -47.8269 C.3       23 UNK        -0.0398 
     18 CA          0.3420  -22.5393  -47.5719 C.3       11 UNK         0.1400 
     19 N           0.2986  -23.0841  -46.2149 N.am      11 UNK        -0.5000 
     20 C          -0.5180  -24.0659  -45.8112 C.2       10 UNK         0.5000 
     21 O          -1.3027  -24.6542  -46.5553 O.2       10 UNK        -0.5000 
     22 CA         -0.4749  -24.4156  -44.3118 C.3       10 UNK         0.1400 
     23 CB          0.6573  -25.4113  -44.0194 C.3       10 UNK        -0.1800 
     24 N          -0.3117  -23.2301  -43.4661 N.am      10 UNK        -0.5000 
     25 C          -1.2461  -22.2801  -43.3251 C.2       9 UNK         0.5000 
     26 O          -2.3521  -22.3307  -43.8612 O.2       9 UNK        -0.5000 
     27 CA         -0.8728  -21.0467  -42.4829 C.3       9 UNK         0.1400 
     28 CB         -1.1682  -21.2992  -40.9972 C.3       9 UNK        -0.1800 
     29 N           0.5162  -20.6004  -42.6298 N.am      9 UNK        -0.5000 
     30 C           1.1076  -20.2427  -43.7796 C.2       8 UNK         0.5000 
     31 O           0.5797  -20.3686  -44.8847 O.2       8 UNK        -0.5000 
     32 CA          2.4993  -19.6013  -43.6556 C.3       8 UNK         0.1400 
     33 CB          2.9783  -18.9396  -44.9635 C.3       8 UNK        -0.1800 
     34 N           2.4538  -18.6152  -42.5821 N.am      8 UNK        -0.5000 
     35 C           3.4764  -18.1806  -41.8427 C.2       7 UNK         0.5000 
     36 O           4.6339  -18.5784  -41.9854 O.2       7 UNK        -0.5000 
     37 CA          3.1338  -17.1207  -40.7687 C.3       7 UNK         0.1400 
     38 CB          4.3858  -16.5420  -40.0858 C.3       7 UNK        -0.1800 
     39 N           2.3354  -16.0094  -41.2959 N.am      7 UNK        -0.5000 
     40 C           1.0324  -16.0420  -41.6146 C.2       6 UNK         0.5000 
     41 O           0.3328  -17.0484  -41.4916 O.2       6 UNK        -0.5000 
     42 CA          0.4060  -14.7552  -42.1859 C.3       6 UNK         0.1400 
     43 CB         -0.4970  -14.0917  -41.1360 C.3       6 UNK        -0.1800 
     44 N           1.4102  -13.7953  -42.6554 N.am      6 UNK        -0.5000 
     45 C           2.0855  -13.9242  -43.8089 C.2       5 UNK         0.5000 
     46 O           1.8636  -14.8244  -44.6178 O.2       5 UNK        -0.5000 
     47 CA          3.1978  -12.9027  -44.1204 C.3       5 UNK         0.1400 
     48 CB          2.8503  -12.0557  -45.3544 C.3       5 UNK        -0.1800 
     49 N           3.4964  -12.0161  -42.9950 N.am      5 UNK        -0.5000 
     50 C           4.3001  -12.3410  -41.9722 C.2       4 UNK         0.5000 
     51 O           4.8754  -13.4255  -41.8811 O.2       4 UNK        -0.5000 
     52 CA          4.4687  -11.3005  -40.8460 C.3       4 UNK         0.1400 
     53 CB          5.7194  -10.4429  -41.0904 C.3       4 UNK        -0.1800 
     54 N           3.3104  -10.4192  -40.6769 N.am      4 UNK        -0.5000 
     55 C           2.0865  -10.8282  -40.3182 C.2       3 UNK         0.5000 
     56 O           1.8143  -12.0045  -40.0769 O.2       3 UNK        -0.5000 
     57 CA          0.9608   -9.7735  -40.2601 C.3       3 UNK         0.1400 
     58 CB          1.4378   -8.3204  -40.4846 C.3       3 UNK        -0.1800 
     59 N          -0.1280  -10.1033  -41.1877 N.am      3 UNK        -0.5000 
     60 C          -0.0197  -10.2920  -42.5103 C.2       2 UNK         0.5000 
     61 O           1.0386  -10.1839  -43.1360 O.2       2 UNK        -0.5000 
     62 CA         -1.3171  -10.6431  -43.2541 C.3       2 UNK         0.1400 
     63 CB         -2.1071   -9.3671  -43.5843 C.3       2 UNK        -0.1800 
     64 N          -0.9917  -11.3227  -44.5035 N.am      2 UNK        -0.5000 
     65 C          -1.3806  -12.5491  -44.8645 C.2       1 UNK         0.5000 
     66 O          -2.1307  -13.2549  -44.1887 O.2       1 UNK        -0.5000 
     67 C          -0.9229  -21.7097  -47.8677 C.2       11 UNK         0.5000 
     68 O          -1.5036  -21.8587  -48.9396 O.2       11 UNK        -0.5000 
     69 N          -1.3698  -20.9116  -46.8862 N.am      12 UNK        -0.5000 
     70 CA         -2.6177  -20.1476  -46.9304 C.3       12 UNK         0.1400 
     71 CB         -2.7219  -19.2560  -45.6829 C.3       12 UNK        -0.1800 
     72 C          -3.8611  -21.0484  -47.0593 C.2       12 UNK         0.5000 
     73 O          -4.7510  -20.7437  -47.8529 O.2       12 UNK        -0.5000 
     74 N          -3.8850  -22.1606  -46.3109 N.am      13 UNK        -0.5000 
     75 CA         -4.9221  -23.1895  -46.3910 C.3       13 UNK         0.1400 
     76 CB         -4.7375  -24.2053  -45.2540 C.3       13 UNK        -0.1800 
     77 C          -4.9440  -23.8929  -47.7592 C.2       13 UNK         0.5000 
     78 O          -6.0186  -24.0646  -48.3343 O.2       13 UNK        -0.5000 
     79 N          -3.7594  -24.2448  -48.2795 N.am      14 UNK        -0.5000 
     80 CA         -3.5904  -24.8194  -49.6144 C.3       14 UNK         0.1400 
     81 CB         -2.1500  -25.3198  -49.7883 C.3       14 UNK        -0.1800 
     82 C          -3.9804  -23.8427  -50.7394 C.2       14 UNK         0.5000 
     83 O          -4.5514  -24.2761  -51.7391 O.2       14 UNK        -0.5000 
     84 N          -3.6948  -22.5472  -50.5584 N.am      15 UNK        -0.5000 
     85 CA         -4.1052  -21.4655  -51.4526 C.3       15 UNK         0.1400 
     86 CB         -3.4043  -20.1612  -51.0488 C.3       15 UNK        -0.1800 
     87 C          -5.6310  -21.2831  -51.4784 C.2       15 UNK         0.5000 
     88 O          -6.2086  -21.1927  -52.5613 O.2       15 UNK        -0.5000 
     89 N          -6.2616  -21.2870  -50.2948 N.am      16 UNK        -0.5000 
     90 CA         -7.7153  -21.2166  -50.1216 C.3       16 UNK         0.1400 
     91 CB         -8.0462  -21.0593  -48.6299 C.3       16 UNK        -0.1800 
     92 C          -8.4531  -22.4295  -50.7217 C.2       16 UNK         0.5000 
     93 O          -9.5308  -22.2651  -51.2943 O.2       16 UNK        -0.5000 
     94 N          -7.8402  -23.6159  -50.6156 N.am      17 UNK        -0.5000 
     95 CA         -8.3054  -24.8620  -51.2279 C.3       17 UNK         0.1400 
     96 CB         -7.6183  -26.0404  -50.5190 C.3       17 UNK        -0.1800 
     97 C          -8.0536  -24.9388  -52.7494 C.2       17 UNK         0.5000 
     98 O          -8.5781  -25.8484  -53.3930 O.2       17 UNK        -0.5000 
     99 N          -7.2395  -24.0165  -53.2877 N.am      18 UNK        -0.5000 
    100 CA        -6.7353  -23.9537  -54.6656 C.3       18 UNK         0.1400 
    101 CB        -7.8838  -23.7288  -55.6705 C.3       18 UNK        -0.1800 
    102 C         -5.8307  -25.1506  -55.0374 C.2       18 UNK         0.5000 
    103 O         -5.7195  -25.5039  -56.2124 O.2       18 UNK        -0.5000 
    104 N         -5.1879  -25.7429  -54.0245 N.am      19 UNK        -0.5000 
    105 CA        -4.2743  -26.8760  -54.1364 C.3       19 UNK         0.1400 
    106 CB        -4.3990  -27.7303  -52.8649 C.3       19 UNK        -0.1800 
    107 C         -2.8175  -26.4224  -54.3325 C.2       19 UNK         0.5000 
    108 O         -2.0319  -27.1649  -54.9223 O.2       19 UNK        -0.5000 
    109 N         -2.4774  -25.2222  -53.8365 N.am      20 UNK        -0.5000 
    110 CA        -1.1338  -24.6416  -53.9242 C.3       20 UNK         0.1400 
    111 CB        -1.0389  -23.4207  -52.9947 C.3       20 UNK        -0.1800 
    112 C         -0.7313  -24.2365  -55.3540 C.2       20 UNK         0.5000 
    113 O          0.4572  -24.2695  -55.6746 O.2       20 UNK        -0.5000 
    114 N         -1.7243  -23.8366  -56.1668 N.am      21 UNK        -0.5000 
    115 CA        -1.5932  -23.3068  -57.5331 C.3       21 UNK         0.1400 
    116 CB        -1.1258  -24.4120  -58.5028 C.3       21 UNK        -0.1800 
    117 C         -0.7202  -22.0313  -57.6054 C.2       21 UNK         0.5000 
    118 O         -0.0255  -21.8029  -58.5972 O.2       21 UNK        -0.5000 
    119 N         -0.7639  -21.2343  -56.5314 N.am      22 UNK        -0.5000 
    120 CA         0.0605  -20.0384  -56.3050 C.3       22 UNK         0.1400 
    121 C         -0.4294  -18.7442  -57.0203 C.2       22 UNK         0.5000 
    122 N         -1.5743  -18.7456  -57.6920 N.am      22 UNK        -0.7600 
    123 O          0.2515  -17.7230  -56.9781 O.2       22 UNK        -0.5000 
    124 C124        0.3021  -19.8249  -54.7876 C.3       23 UNK        -0.0398 
    125 S125       -1.2430  -19.6269  -53.8259 S.3       23 UNK        -0.2404 
    126 C126       -0.9612  -18.0438  -52.9630 C.3       23 UNK        -0.0205 
    127 H127       -1.9897   -9.3539  -48.5131 H         1 UNK         0.0600 
    128 H128       -0.8709  -10.1257  -49.6422 H         1 UNK         0.0600 
    129 H129       -2.4053  -10.9054  -49.2475 H         1 UNK         0.0600 
    130 H130       -2.1694  -12.5936  -47.8160 H         1 UNK         0.3000 
    131 H131        0.2268  -12.9420  -46.2041 H         1 UNK         0.0600 
    132 H132       -2.2269  -14.7323  -46.5309 H         1 UNK         0.0800 
    133 H133       -0.7834  -15.1499  -45.6317 H         1 UNK         0.0800 
    134 H134       -0.7600  -17.3628  -47.1020 H         1 UNK         0.0800 
    135 H135       -2.0819  -16.8453  -48.1289 H         1 UNK         0.0800 
    136 H136       -1.8058  -16.9027  -50.6395 H         1 UNK         0.1150 
    137 H137        1.2227  -19.5299  -52.1692 H         1 UNK         0.1150 
    138 H138        1.1683  -18.5063  -48.0111 H         1 UNK         0.1150 
    139 H139        3.2006  -19.9106  -50.7235 H         1 UNK         0.0800 
    140 H140        3.1385  -19.6118  -49.0083 H         1 UNK         0.0800 
    141 H141        1.5748  -20.7326  -47.4341 H         1 UNK         0.0800 
    142 H142        2.4737  -22.2101  -47.2878 H         1 UNK         0.0800 
    143 H143        0.3323  -23.3958  -48.2499 H         1 UNK         0.0600 
    144 H144        0.8467  -22.5980  -45.5200 H         1 UNK         0.3000 
    145 H145       -1.4232  -24.8923  -44.0540 H         1 UNK         0.0600 
    146 H146        0.6493  -25.7212  -42.9743 H         1 UNK         0.0600 
    147 H147        0.5500  -26.3121  -44.6253 H         1 UNK         0.0600 
    148 H148        1.6374  -24.9845  -44.2361 H         1 UNK         0.0600 
    149 H149        0.5719  -23.1167  -42.9914 H         1 UNK         0.3000 
    150 H150       -1.5087  -20.2244  -42.8157 H         1 UNK         0.0600 
    151 H151       -2.2033  -21.6114  -40.8518 H         1 UNK         0.0600 
    152 H152       -1.0176  -20.3953  -40.4064 H         1 UNK         0.0600 
    153 H153       -0.5281  -22.0808  -40.5862 H         1 UNK         0.0600 
    154 H154        1.0315  -20.4671  -41.7718 H         1 UNK         0.3000 
    155 H155        3.1968  -20.3967  -43.3861 H         1 UNK         0.0600 
    156 H156        2.2951  -18.1532  -45.2877 H         1 UNK         0.0600 
    157 H157        3.0505  -19.6698  -45.7696 H         1 UNK         0.0600 
    158 H158        3.9660  -18.4943  -44.8443 H         1 UNK         0.0600 
    159 H159        1.5349  -18.2304  -42.3747 H         1 UNK         0.3000 
    160 H160        2.5454  -17.6285  -40.0018 H         1 UNK         0.0600 
    161 H161        4.1170  -15.8252  -39.3096 H         1 UNK         0.0600 
    162 H162        5.0337  -16.0334  -40.8008 H         1 UNK         0.0600 
    163 H163        4.9731  -17.3281  -39.6096 H         1 UNK         0.0600 
    164 H164        2.8378  -15.1492  -41.4631 H         1 UNK         0.3000 
    165 H165       -0.2213  -15.0432  -43.0320 H         1 UNK         0.0600 
    166 H166       -0.9155  -13.1567  -41.5040 H         1 UNK         0.0600 
    167 H167       -1.3348  -14.7421  -40.8820 H         1 UNK         0.0600 
    168 H168        0.0408  -13.8825  -40.2115 H         1 UNK         0.0600 
    169 H169        1.6520  -13.0449  -42.0194 H         1 UNK         0.3000 
    170 H170        4.0948  -13.4768  -44.3622 H         1 UNK         0.0600 
    171 H171        2.6916  -12.6860  -46.2303 H         1 UNK         0.0600 
    172 H172        1.9447  -11.4697  -45.2047 H         1 UNK         0.0600 
    173 H173        3.6574  -11.3647  -45.5976 H         1 UNK         0.0600 
    174 H174        3.0013  -11.1314  -42.9767 H         1 UNK         0.3000 
    175 H175        4.6085  -11.8502  -39.9128 H         1 UNK         0.0600 
    176 H176        5.6277   -9.8481  -42.0002 H         1 UNK         0.0600 
    177 H177        5.8997   -9.7611  -40.2590 H         1 UNK         0.0600 
    178 H178        6.6074  -11.0678  -41.1948 H         1 UNK         0.0600 
    179 H179        3.4499   -9.4413  -40.8860 H         1 UNK         0.3000 
    180 H180        0.5430   -9.8323  -39.2541 H         1 UNK         0.0600 
    181 H181        1.8638   -8.1717  -41.4775 H         1 UNK         0.0600 
    182 H182        2.1910   -8.0338  -39.7496 H         1 UNK         0.0600 
    183 H183        0.6085   -7.6210  -40.3777 H         1 UNK         0.0600 
    184 H184       -1.0329  -10.2326  -40.7573 H         1 UNK         0.3000 
    185 H185       -1.9268  -11.2820  -42.6127 H         1 UNK         0.0600 
    186 H186       -2.3806   -8.8270  -42.6771 H         1 UNK         0.0600 
    187 H187       -1.5287   -8.6869  -44.2112 H         1 UNK         0.0600 
    188 H188       -3.0311   -9.6033  -44.1125 H         1 UNK         0.0600 
    189 H189       -0.3638  -10.8198  -45.1232 H         1 UNK         0.3000 
    190 H190       -0.8010  -20.8137  -46.0489 H         1 UNK         0.3000 
    191 H191       -2.5738  -19.5041  -47.8112 H         1 UNK         0.0600 
    192 H192       -2.9006  -19.8423  -44.7821 H         1 UNK         0.0600 
    193 H193       -3.5478  -18.5507  -45.7805 H         1 UNK         0.0600 
    194 H194       -1.8129  -18.6775  -45.5222 H         1 UNK         0.0600 
    195 H195       -3.1516  -22.3050  -45.6230 H         1 UNK         0.3000 
    196 H196       -5.8888  -22.7005  -46.2541 H         1 UNK         0.0600 
    197 H197       -3.7703  -24.7050  -45.3113 H         1 UNK         0.0600 
    198 H198       -5.5088  -24.9756  -45.2894 H         1 UNK         0.0600 
    199 H199       -4.8056  -23.7212  -44.2796 H         1 UNK         0.0600 
    200 H200       -2.9174  -24.1054  -47.7312 H         1 UNK         0.3000 
    201 H201       -4.2539  -25.6831  -49.6896 H         1 UNK         0.0600 
    202 H202       -1.9066  -26.0797  -49.0457 H         1 UNK         0.0600 
    203 H203       -1.4271  -24.5108  -49.6840 H         1 UNK         0.0600 
    204 H204       -2.0070  -25.7693  -50.7718 H         1 UNK         0.0600 
    205 H205       -3.1213  -22.2813  -49.7615 H         1 UNK         0.3000 
    206 H206       -3.7838  -21.7231  -52.4631 H         1 UNK         0.0600 
    207 H207       -2.3219  -20.2874  -51.0406 H         1 UNK         0.0600 
    208 H208       -3.6350  -19.3609  -51.7524 H         1 UNK         0.0600 
    209 H209       -3.7041  -19.8213  -50.0589 H         1 UNK         0.0600 
    210 H210       -5.7035  -21.3209  -49.4458 H         1 UNK         0.3000 
    211 H211       -8.0679  -20.3247  -50.6436 H         1 UNK         0.0600 
    212 H212       -7.6946  -21.9109  -48.0471 H         1 UNK         0.0600 
    213 H213       -9.1225  -20.9761  -48.4747 H         1 UNK         0.0600 
    214 H214       -7.5870  -20.1607  -48.2174 H         1 UNK         0.0600 
    215 H215       -6.9957  -23.6746  -50.0549 H         1 UNK         0.3000 
    216 H216       -9.3821  -24.9468  -51.0684 H         1 UNK         0.0600 
    217 H217       -7.9737  -26.9954  -50.9082 H         1 UNK         0.0600 
    218 H218       -7.8222  -26.0306  -49.4481 H         1 UNK         0.0600 
    219 H219       -6.5368  -26.0138  -50.6543 H         1 UNK         0.0600 
    220 H220       -6.8663  -23.3077  -52.6686 H         1 UNK         0.3000 
    221 H221       -6.0919  -23.0738  -54.7050 H         1 UNK         0.0600 
    222 H222       -8.5300  -24.6029  -55.7528 H         1 UNK         0.0600 
    223 H223       -8.5017  -22.8798  -55.3779 H         1 UNK         0.0600 
    224 H224       -7.4949  -23.5170  -56.6672 H         1 UNK         0.0600 
    225 H225       -5.2719  -25.3251  -53.1013 H         1 UNK         0.3000 
    226 H226       -4.5562  -27.4915  -54.9933 H         1 UNK         0.0600 
    227 H227       -5.4199  -28.0883  -52.7306 H         1 UNK         0.0600 
    228 H228       -3.7508  -28.6060  -52.9167 H         1 UNK         0.0600 
    229 H229       -4.1223  -27.1681  -51.9721 H         1 UNK         0.0600 
    230 H230       -3.1799  -24.6948  -53.3334 H         1 UNK         0.3000 
    231 H231       -0.4167  -25.3891  -53.5783 H         1 UNK         0.0600 
    232 H232       -1.2006  -23.6946  -51.9543 H         1 UNK         0.0600 
    233 H233       -1.7690  -22.6564  -53.2588 H         1 UNK         0.0600 
    234 H234       -0.0519  -22.9592  -53.0506 H         1 UNK         0.0600 
    235 H235       -2.6638  -23.8667  -55.7982 H         1 UNK         0.3000 
    236 H236       -2.5949  -23.0036  -57.8407 H         1 UNK         0.0600 
    237 H237       -1.1635  -24.0676  -59.5369 H         1 UNK         0.0600 
    238 H238       -0.1008  -24.7233  -58.2993 H         1 UNK         0.0600 
    239 H239       -1.7638  -25.2930  -58.4320 H         1 UNK         0.0600 
    240 H240       -1.3779  -21.4837  -55.7705 H         1 UNK         0.3000 
    241 H241        1.0391  -20.2416  -56.7443 H         1 UNK         0.0600 
    242 H242       -1.8796  -17.9050  -58.1570 H         1 UNK         0.3800 
    243 H243       -2.1397  -19.5777  -57.7359 H         1 UNK         0.3800 
    244 H244        0.8316  -20.6889  -54.3837 H         1 UNK         0.0800 
    245 H245        0.9677  -18.9763  -54.6233 H         1 UNK         0.0800 
    246 H246       -0.3210  -17.3914  -53.5576 H         1 UNK         0.0800 
    247 H247       -1.9244  -17.5359  -52.8970 H         1 UNK         0.0800 
@<TRIPOS>BOND
     1    1    2 1    
     2    1  127 1    
     3    1  128 1    
     4    1  129 1    
     5    2    3 2    
     6    2    4 am   BACKBONE|DICT|INTERRES
     7    4    5 1    
     8    4  130 1    
     9    5    6 1    
    10    5   65 1    
    11    5  131 1    
    12    6    7 1    
    13    6  132 1    
    14    6  133 1    
    15    7    8 1    
    16    8    9 1    
    17    8  134 1    
    18    8  135 1    
    19    9   10 ar   
    20    9   14 ar   
    21   10   11 ar   
    22   10  136 1    
    23   11   12 ar   
    24   11  126 1    
    25   12   13 ar   
    26   12  137 1    
    27   13   14 ar   
    28   13   15 1    
    29   14  138 1    
    30   15   16 1    
    31   15  139 1    
    32   15  140 1    
    33   16   17 1    
    34   17   18 1    
    35   17  141 1    
    36   17  142 1    
    37   18   19 1    
    38   18   67 1    
    39   18  143 1    
    40   19   20 am   BACKBONE|DICT|INTERRES
    41   19  144 1    
    42   20   21 2    
    43   20   22 1    
    44   22   23 1    
    45   22   24 1    
    46   22  145 1    
    47   23  146 1    
    48   23  147 1    
    49   23  148 1    
    50   24   25 am   BACKBONE|DICT|INTERRES
    51   24  149 1    
    52   25   26 2    
    53   25   27 1    
    54   27   28 1    
    55   27   29 1    
    56   27  150 1    
    57   28  151 1    
    58   28  152 1    
    59   28  153 1    
    60   29   30 am   BACKBONE|DICT|INTERRES
    61   29  154 1    
    62   30   31 2    
    63   30   32 1    
    64   32   33 1    
    65   32   34 1    
    66   32  155 1    
    67   33  156 1    
    68   33  157 1    
    69   33  158 1    
    70   34   35 am   BACKBONE|DICT|INTERRES
    71   34  159 1    
    72   35   36 2    
    73   35   37 1    
    74   37   38 1    
    75   37   39 1    
    76   37  160 1    
    77   38  161 1    
    78   38  162 1    
    79   38  163 1    
    80   39   40 am   BACKBONE|DICT|INTERRES
    81   39  164 1    
    82   40   41 2    
    83   40   42 1    
    84   42   43 1    
    85   42   44 1    
    86   42  165 1    
    87   43  166 1    
    88   43  167 1    
    89   43  168 1    
    90   44   45 am   BACKBONE|DICT|INTERRES
    91   44  169 1    
    92   45   46 2    
    93   45   47 1    
    94   47   48 1    
    95   47   49 1    
    96   47  170 1    
    97   48  171 1    
    98   48  172 1    
    99   48  173 1    
   100   49   50 am   BACKBONE|DICT|INTERRES
   101   49  174 1    
   102   50   51 2    
   103   50   52 1    
   104   52   53 1    
   105   52   54 1    
   106   52  175 1    
   107   53  176 1    
   108   53  177 1    
   109   53  178 1    
   110   54   55 am   BACKBONE|DICT|INTERRES
   111   54  179 1    
   112   55   56 2    
   113   55   57 1    
   114   57   58 1    
   115   57   59 1    
   116   57  180 1    
   117   58  181 1    
   118   58  182 1    
   119   58  183 1    
   120   59   60 am   BACKBONE|DICT|INTERRES
   121   59  184 1    
   122   60   61 2    
   123   60   62 1    
   124   62   63 1    
   125   62   64 1    
   126   62  185 1    
   127   63  186 1    
   128   63  187 1    
   129   63  188 1    
   130   64   65 am   BACKBONE|DICT|INTERRES
   131   64  189 1    
   132   65   66 2    
   133   67   68 2    
   134   67   69 am   BACKBONE|DICT|INTERRES
   135   69   70 1    
   136   69  190 1    
   137   70   71 1    
   138   70   72 1    
   139   70  191 1    
   140   71  192 1    
   141   71  193 1    
   142   71  194 1    
   143   72   73 2    
   144   72   74 am   BACKBONE|DICT|INTERRES
   145   74   75 1    
   146   74  195 1    
   147   75   76 1    
   148   75   77 1    
   149   75  196 1    
   150   76  197 1    
   151   76  198 1    
   152   76  199 1    
   153   77   78 2    
   154   77   79 am   BACKBONE|DICT|INTERRES
   155   79   80 1    
   156   79  200 1    
   157   80   81 1    
   158   80   82 1    
   159   80  201 1    
   160   81  202 1    
   161   81  203 1    
   162   81  204 1    
   163   82   83 2    
   164   82   84 am   BACKBONE|DICT|INTERRES
   165   84   85 1    
   166   84  205 1    
   167   85   86 1    
   168   85   87 1    
   169   85  206 1    
   170   86  207 1    
   171   86  208 1    
   172   86  209 1    
   173   87   88 2    
   174   87   89 am   BACKBONE|DICT|INTERRES
   175   89   90 1    
   176   89  210 1    
   177   90   91 1    
   178   90   92 1    
   179   90  211 1    
   180   91  212 1    
   181   91  213 1    
   182   91  214 1    
   183   92   93 2    
   184   92   94 am   BACKBONE|DICT|INTERRES
   185   94   95 1    
   186   94  215 1    
   187   95   96 1    
   188   95   97 1    
   189   95  216 1    
   190   96  217 1    
   191   96  218 1    
   192   96  219 1    
   193   97   98 2    
   194   97   99 am   BACKBONE|DICT|INTERRES
   195   99  100 1    
   196   99  220 1    
   197  100  101 1    
   198  100  102 1    
   199  100  221 1    
   200  101  222 1    
   201  101  223 1    
   202  101  224 1    
   203  102  103 2    
   204  102  104 am   BACKBONE|DICT|INTERRES
   205  104  105 1    
   206  104  225 1    
   207  105  106 1    
   208  105  107 1    
   209  105  226 1    
   210  106  227 1    
   211  106  228 1    
   212  106  229 1    
   213  107  108 2    
   214  107  109 am   BACKBONE|DICT|INTERRES
   215  109  110 1    
   216  109  230 1    
   217  110  111 1    
   218  110  112 1    
   219  110  231 1    
   220  111  232 1    
   221  111  233 1    
   222  111  234 1    
   223  112  113 2    
   224  112  114 am   BACKBONE|DICT|INTERRES
   225  114  115 1    
   226  114  235 1    
   227  115  116 1    
   228  115  117 1    
   229  115  236 1    
   230  116  237 1    
   231  116  238 1    
   232  116  239 1    
   233  117  118 2    
   234  117  119 am   BACKBONE|DICT|INTERRES
   235  119  120 1    
   236  119  240 1    
   237  120  121 1    
   238  120  124 1    
   239  120  241 1    
   240  121  122 am   BACKBONE|DICT|INTERRES
   241  121  123 2    
   242  122  242 1    
   243  122  243 1    
   244  124  125 1    
   245  124  244 1    
   246  124  245 1    
   247  125  126 1    
   248  126  246 1    
   249  126  247 1    
@<TRIPOS>SUBSTRUCTURE
     1 UNK         1 GROUP             0       ****    0 ROOT    
