@<TRIPOS>MOLECULE
3R540
247   249    1
SMALL
USER_CHARGES


@<TRIPOS>ATOM
      1 CA         -2.2723  -12.9039  -52.7345 C.3       0 UNK        -0.1800 
      2 C          -1.9651  -12.9675  -51.2448 C.2       0 UNK         0.5000 
      3 O          -2.0575  -11.9518  -50.5547 O.2       0 UNK        -0.5000 
      4 N          -1.5885  -14.1528  -50.7523 N.am      1 UNK        -0.5000 
      5 CA         -1.3295  -14.4405  -49.3389 C.3       1 UNK         0.1400 
      6 C6         -0.5347  -15.7613  -49.1442 C.3       23 UNK        -0.0398 
      7 S7         -1.1459  -17.1754  -50.1348 S.3       23 UNK        -0.2404 
      8 C8          0.2017  -17.3898  -51.3434 C.3       23 UNK        -0.0205 
      9 C9          1.2128  -18.4335  -50.8899 C.ar      23 UNK        -0.0193 
     10 C10         1.2285  -19.6926  -51.4939 C.ar      23 UNK        -0.1150 
     11 C11         2.1357  -20.6723  -51.0851 C.ar      23 UNK        -0.0193 
     12 C12         3.0527  -20.3771  -50.0731 C.ar      23 UNK        -0.1150 
     13 C13         3.0489  -19.1214  -49.4571 C.ar      23 UNK        -0.0193 
     14 C14         2.1318  -18.1518  -49.8749 C.ar      23 UNK        -0.1150 
     15 C15         4.0206  -18.8187  -48.3254 C.3       23 UNK        -0.0205 
     16 S16         3.7265  -19.8656  -46.8632 S.3       23 UNK        -0.2404 
     17 C17         1.9865  -19.4882  -46.4595 C.3       23 UNK        -0.0398 
     18 CA          0.9852  -20.5583  -46.9647 C.3       11 UNK         0.1400 
     19 N           1.3718  -21.9248  -46.6075 N.am      11 UNK        -0.5000 
     20 C           0.8613  -23.0311  -47.1642 C.2       10 UNK         0.5000 
     21 O           0.0112  -23.0201  -48.0528 O.2       10 UNK        -0.5000 
     22 CA          1.3527  -24.3776  -46.6014 C.3       10 UNK         0.1400 
     23 CB          2.6540  -24.8043  -47.2969 C.3       10 UNK        -0.1800 
     24 N           1.5662  -24.3414  -45.1533 N.am      10 UNK        -0.5000 
     25 C           0.6003  -24.1373  -44.2457 C.2       9 UNK         0.5000 
     26 O          -0.5908  -24.0246  -44.5317 O.2       9 UNK        -0.5000 
     27 CA          1.0458  -23.9677  -42.7801 C.3       9 UNK         0.1400 
     28 CB          1.0522  -25.3236  -42.0593 C.3       9 UNK        -0.1800 
     29 N           2.3607  -23.3332  -42.6343 N.am      9 UNK        -0.5000 
     30 C           2.6725  -22.1099  -43.0815 C.2       8 UNK         0.5000 
     31 O           1.8784  -21.3781  -43.6809 O.2       8 UNK        -0.5000 
     32 CA          4.1231  -21.6555  -42.8729 C.3       8 UNK         0.1400 
     33 CB          5.0769  -22.4258  -43.8054 C.3       8 UNK        -0.1800 
     34 N           4.2071  -20.2293  -43.1576 N.am      8 UNK        -0.5000 
     35 C           5.1513  -19.3874  -42.7255 C.2       7 UNK         0.5000 
     36 O           6.0876  -19.7263  -42.0005 O.2       7 UNK        -0.5000 
     37 CA          5.0428  -17.9196  -43.1851 C.3       7 UNK         0.1400 
     38 CB          6.0394  -17.6417  -44.3217 C.3       7 UNK        -0.1800 
     39 N           3.6987  -17.5566  -43.6417 N.am      7 UNK        -0.5000 
     40 C           2.6782  -17.2562  -42.8289 C.2       6 UNK         0.5000 
     41 O           2.7596  -17.2356  -41.5989 O.2       6 UNK        -0.5000 
     42 CA          1.3327  -16.9469  -43.5101 C.3       6 UNK         0.1400 
     43 CB          0.3111  -18.0567  -43.2265 C.3       6 UNK        -0.1800 
     44 N           0.7680  -15.6718  -43.0796 N.am      6 UNK        -0.5000 
     45 C           1.3080  -14.4653  -43.3002 C.2       5 UNK         0.5000 
     46 O           2.3809  -14.3002  -43.8830 O.2       5 UNK        -0.5000 
     47 CA          0.5122  -13.2340  -42.8205 C.3       5 UNK         0.1400 
     48 CB          0.3460  -12.2088  -43.9564 C.3       5 UNK        -0.1800 
     49 N          -0.8215  -13.5969  -42.3374 N.am      5 UNK        -0.5000 
     50 C          -1.2385  -13.5311  -41.0658 C.2       4 UNK         0.5000 
     51 O          -0.5260  -13.1602  -40.1325 O.2       4 UNK        -0.5000 
     52 CA         -2.7004  -13.9374  -40.7790 C.3       4 UNK         0.1400 
     53 CB         -3.5688  -12.6882  -40.5623 C.3       4 UNK        -0.1800 
     54 N          -3.3014  -14.7454  -41.8424 N.am      4 UNK        -0.5000 
     55 C          -3.0010  -16.0269  -42.0924 C.2       3 UNK         0.5000 
     56 O          -2.2252  -16.6899  -41.4059 O.2       3 UNK        -0.5000 
     57 CA         -3.6299  -16.6553  -43.3522 C.3       3 UNK         0.1400 
     58 CB         -4.8954  -17.4503  -43.0005 C.3       3 UNK        -0.1800 
     59 N          -3.9421  -15.6850  -44.4085 N.am      3 UNK        -0.5000 
     60 C          -3.0229  -14.9671  -45.0666 C.2       2 UNK         0.5000 
     61 O          -1.8220  -14.9768  -44.7875 O.2       2 UNK        -0.5000 
     62 CA         -3.5208  -14.0666  -46.2032 C.3       2 UNK         0.1400 
     63 CB         -3.7596  -12.6400  -45.6847 C.3       2 UNK        -0.1800 
     64 N          -2.4827  -14.0361  -47.2279 N.am      2 UNK        -0.5000 
     65 C          -2.6263  -14.4189  -48.5007 C.2       1 UNK         0.5000 
     66 O          -3.7002  -14.7609  -49.0024 O.2       1 UNK        -0.5000 
     67 C          -0.4356  -20.2469  -46.4604 C.2       11 UNK         0.5000 
     68 O          -1.2086  -19.6175  -47.1785 O.2       11 UNK        -0.5000 
     69 N          -0.7679  -20.7238  -45.2509 N.am      12 UNK        -0.5000 
     70 CA         -2.1040  -20.6129  -44.6631 C.3       12 UNK         0.1400 
     71 CB         -2.0590  -21.0190  -43.1828 C.3       12 UNK        -0.1800 
     72 C          -3.1502  -21.4383  -45.4341 C.2       12 UNK         0.5000 
     73 O          -4.2456  -20.9397  -45.6934 O.2       12 UNK        -0.5000 
     74 N          -2.7785  -22.6654  -45.8259 N.am      13 UNK        -0.5000 
     75 CA         -3.5855  -23.5498  -46.6672 C.3       13 UNK         0.1400 
     76 CB         -2.9176  -24.9299  -46.7569 C.3       13 UNK        -0.1800 
     77 C          -3.8302  -22.9675  -48.0705 C.2       13 UNK         0.5000 
     78 O          -4.9520  -23.0482  -48.5705 O.2       13 UNK        -0.5000 
     79 N          -2.7934  -22.3568  -48.6619 N.am      14 UNK        -0.5000 
     80 CA         -2.8859  -21.6277  -49.9241 C.3       14 UNK         0.1400 
     81 CB         -1.4874  -21.2578  -50.4246 C.3       14 UNK        -0.1800 
     82 C          -3.7712  -20.3785  -49.8070 C.2       14 UNK         0.5000 
     83 O          -4.6337  -20.1784  -50.6568 O.2       14 UNK        -0.5000 
     84 N          -3.5948  -19.5859  -48.7412 N.am      15 UNK        -0.5000 
     85 CA         -4.4074  -18.4041  -48.4446 C.3       15 UNK         0.1400 
     86 CB         -3.8758  -17.7104  -47.1860 C.3       15 UNK        -0.1800 
     87 C          -5.9049  -18.7276  -48.2915 C.2       15 UNK         0.5000 
     88 O          -6.7411  -18.0134  -48.8451 O.2       15 UNK        -0.5000 
     89 N          -6.2132  -19.8395  -47.6091 N.am      16 UNK        -0.5000 
     90 CA         -7.5640  -20.3907  -47.4703 C.3       16 UNK         0.1400 
     91 CB         -7.5346  -21.5408  -46.4527 C.3       16 UNK        -0.1800 
     92 C          -8.1872  -20.8570  -48.8047 C.2       16 UNK         0.5000 
     93 O          -9.4124  -20.8716  -48.9250 O.2       16 UNK        -0.5000 
     94 N          -7.3427  -21.1964  -49.7873 N.am      17 UNK        -0.5000 
     95 CA         -7.7191  -21.5553  -51.1558 C.3       17 UNK         0.1400 
     96 CB         -6.7686  -22.6587  -51.6545 C.3       17 UNK        -0.1800 
     97 C          -7.7233  -20.3409  -52.1127 C.2       17 UNK         0.5000 
     98 O          -7.8841  -20.5351  -53.3183 O.2       17 UNK        -0.5000 
     99 N          -7.5633  -19.1224  -51.5706 N.am      18 UNK        -0.5000 
    100 CA        -7.4842  -17.8328  -52.2656 C.3       18 UNK         0.1400 
    101 CB        -8.7702  -17.5339  -53.0664 C.3       18 UNK        -0.1800 
    102 C         -6.1881  -17.6738  -53.0886 C.2       18 UNK         0.5000 
    103 O         -6.2237  -17.1787  -54.2169 O.2       18 UNK        -0.5000 
    104 N         -5.0667  -18.0735  -52.4753 N.am      19 UNK        -0.5000 
    105 CA        -3.6929  -18.0598  -52.9810 C.3       19 UNK         0.1400 
    106 CB        -3.2550  -16.6417  -53.4126 C.3       19 UNK        -0.1800 
    107 C         -3.4435  -19.1523  -54.0408 C.2       19 UNK         0.5000 
    108 O         -4.2255  -20.0997  -54.1466 O.2       19 UNK        -0.5000 
    109 N         -2.3235  -19.0270  -54.7688 N.am      20 UNK        -0.5000 
    110 CA        -1.7671  -20.0101  -55.7038 C.3       20 UNK         0.1400 
    111 CB        -2.6832  -20.1962  -56.9353 C.3       20 UNK        -0.1800 
    112 C         -1.3984  -21.3162  -54.9688 C.2       20 UNK         0.5000 
    113 O         -0.5591  -21.2686  -54.0702 O.2       20 UNK        -0.5000 
    114 N         -2.0099  -22.4446  -55.3536 N.am      21 UNK        -0.5000 
    115 CA        -1.8716  -23.7977  -54.7971 C.3       21 UNK         0.1400 
    116 CB        -2.2395  -23.8400  -53.2997 C.3       21 UNK        -0.1800 
    117 C         -0.5022  -24.4531  -55.0651 C.2       21 UNK         0.5000 
    118 O         -0.4614  -25.5396  -55.6438 O.2       21 UNK        -0.5000 
    119 N          0.5861  -23.7870  -54.6635 N.am      22 UNK        -0.5000 
    120 CA         1.9766  -24.2142  -54.8953 C.3       22 UNK         0.1400 
    121 C          2.5774  -23.7494  -56.2558 C.2       22 UNK         0.5000 
    122 N          1.8610  -22.9920  -57.0781 N.am      22 UNK        -0.7600 
    123 O          3.7072  -24.1021  -56.5842 O.2       22 UNK        -0.5000 
    124 C124        2.8963  -23.8834  -53.6900 C.3       23 UNK        -0.0398 
    125 S125        3.0198  -22.1057  -53.2805 S.3       23 UNK        -0.2404 
    126 C126        2.0992  -22.0557  -51.7140 C.3       23 UNK        -0.0205 
    127 H127       -3.3374  -12.7325  -52.8904 H         1 UNK         0.0600 
    128 H128       -1.9963  -13.8267  -53.2451 H         1 UNK         0.0600 
    129 H129       -1.7220  -12.0849  -53.1979 H         1 UNK         0.0600 
    130 H130       -1.5717  -14.9614  -51.3557 H         1 UNK         0.3000 
    131 H131       -0.6993  -13.6310  -48.9632 H         1 UNK         0.0600 
    132 H132       -0.5177  -16.0616  -48.0946 H         1 UNK         0.0800 
    133 H133        0.5077  -15.5722  -49.3979 H         1 UNK         0.0800 
    134 H134       -0.2404  -17.6919  -52.2935 H         1 UNK         0.0800 
    135 H135        0.7040  -16.4414  -51.5385 H         1 UNK         0.0800 
    136 H136        0.5222  -19.9179  -52.2779 H         1 UNK         0.1150 
    137 H137        3.7544  -21.1311  -49.7450 H         1 UNK         0.1150 
    138 H138        2.1275  -17.1817  -49.4013 H         1 UNK         0.1150 
    139 H139        5.0397  -18.9826  -48.6777 H         1 UNK         0.0800 
    140 H140        3.9632  -17.7700  -48.0301 H         1 UNK         0.0800 
    141 H141        1.7254  -18.5069  -46.8598 H         1 UNK         0.0800 
    142 H142        1.9289  -19.3950  -45.3772 H         1 UNK         0.0800 
    143 H143        0.9561  -20.5000  -48.0545 H         1 UNK         0.0600 
    144 H144        2.0272  -22.0141  -45.8442 H         1 UNK         0.3000 
    145 H145        0.5874  -25.1274  -46.8123 H         1 UNK         0.0600 
    146 H146        2.9748  -25.7912  -46.9631 H         1 UNK         0.0600 
    147 H147        2.5192  -24.8556  -48.3782 H         1 UNK         0.0600 
    148 H148        3.4655  -24.1021  -47.1006 H         1 UNK         0.0600 
    149 H149        2.5181  -24.4265  -44.8296 H         1 UNK         0.3000 
    150 H150        0.3132  -23.3237  -42.2895 H         1 UNK         0.0600 
    151 H151        1.7912  -26.0032  -42.4854 H         1 UNK         0.0600 
    152 H152        0.0781  -25.8094  -42.1331 H         1 UNK         0.0600 
    153 H153        1.2750  -25.2059  -40.9987 H         1 UNK         0.0600 
    154 H154        3.0683  -23.8752  -42.1594 H         1 UNK         0.3000 
    155 H155        4.3929  -21.8347  -41.8302 H         1 UNK         0.0600 
    156 H156        4.8242  -22.2687  -44.8550 H         1 UNK         0.0600 
    157 H157        5.0406  -23.4986  -43.6140 H         1 UNK         0.0600 
    158 H158        6.1106  -22.1107  -43.6626 H         1 UNK         0.0600 
    159 H159        3.4360  -19.8739  -43.7055 H         1 UNK         0.3000 
    160 H160        5.3108  -17.2870  -42.3362 H         1 UNK         0.0600 
    161 H161        5.8276  -18.2496  -45.2020 H         1 UNK         0.0600 
    162 H162        7.0605  -17.8636  -44.0088 H         1 UNK         0.0600 
    163 H163        6.0136  -16.5941  -44.6221 H         1 UNK         0.0600 
    164 H164        3.5654  -17.5206  -44.6414 H         1 UNK         0.3000 
    165 H165        1.4860  -16.8933  -44.5899 H         1 UNK         0.0600 
    166 H166       -0.5844  -17.9281  -43.8332 H         1 UNK         0.0600 
    167 H167        0.7183  -19.0407  -43.4500 H         1 UNK         0.0600 
    168 H168        0.0117  -18.0683  -42.1780 H         1 UNK         0.0600 
    169 H169       -0.1044  -15.7164  -42.5737 H         1 UNK         0.3000 
    170 H170        1.0963  -12.7687  -42.0243 H         1 UNK         0.0600 
    171 H171        1.3138  -11.8575  -44.3163 H         1 UNK         0.0600 
    172 H172       -0.1867  -12.6353  -44.8071 H         1 UNK         0.0600 
    173 H173       -0.2091  -11.3336  -43.6185 H         1 UNK         0.0600 
    174 H174       -1.4490  -13.9625  -43.0450 H         1 UNK         0.3000 
    175 H175       -2.7041  -14.5215  -39.8563 H         1 UNK         0.0600 
    176 H176       -3.6100  -12.0665  -41.4576 H         1 UNK         0.0600 
    177 H177       -4.5899  -12.9590  -40.2930 H         1 UNK         0.0600 
    178 H178       -3.1739  -12.0724  -39.7531 H         1 UNK         0.0600 
    179 H179       -3.9521  -14.2775  -42.4558 H         1 UNK         0.3000 
    180 H180       -2.8991  -17.3562  -43.7585 H         1 UNK         0.0600 
    181 H181       -4.6864  -18.1974  -42.2334 H         1 UNK         0.0600 
    182 H182       -5.2812  -17.9821  -43.8709 H         1 UNK         0.0600 
    183 H183       -5.6864  -16.8019  -42.6219 H         1 UNK         0.0600 
    184 H184       -4.9142  -15.6040  -44.6701 H         1 UNK         0.3000 
    185 H185       -4.4561  -14.4659  -46.5998 H         1 UNK         0.0600 
    186 H186       -4.0855  -11.9806  -46.4894 H         1 UNK         0.0600 
    187 H187       -4.5358  -12.6259  -44.9187 H         1 UNK         0.0600 
    188 H188       -2.8569  -12.2109  -45.2470 H         1 UNK         0.0600 
    189 H189       -1.5563  -13.8433  -46.8720 H         1 UNK         0.3000 
    190 H190       -0.0664  -21.2216  -44.7162 H         1 UNK         0.3000 
    191 H191       -2.4059  -19.5655  -44.7156 H         1 UNK         0.0600 
    192 H192       -1.3494  -20.4088  -42.6245 H         1 UNK         0.0600 
    193 H193       -3.0360  -20.8888  -42.7158 H         1 UNK         0.0600 
    194 H194       -1.7729  -22.0631  -43.0574 H         1 UNK         0.0600 
    195 H195       -1.8820  -23.0292  -45.5143 H         1 UNK         0.3000 
    196 H196       -4.5572  -23.6724  -46.1846 H         1 UNK         0.0600 
    197 H197       -3.5147  -25.6141  -47.3609 H         1 UNK         0.0600 
    198 H198       -2.8067  -25.3787  -45.7696 H         1 UNK         0.0600 
    199 H199       -1.9277  -24.8695  -47.2096 H         1 UNK         0.0600 
    200 H200       -1.8804  -22.3887  -48.2199 H         1 UNK         0.3000 
    201 H201       -3.3406  -22.2924  -50.6616 H         1 UNK         0.0600 
    202 H202       -0.8658  -22.1444  -50.5415 H         1 UNK         0.0600 
    203 H203       -0.9774  -20.5791  -49.7405 H         1 UNK         0.0600 
    204 H204       -1.5453  -20.7668  -51.3966 H         1 UNK         0.0600 
    205 H205       -2.8185  -19.7709  -48.1102 H         1 UNK         0.3000 
    206 H206       -4.3004  -17.7122  -49.2828 H         1 UNK         0.0600 
    207 H207       -2.8471  -17.3769  -47.3221 H         1 UNK         0.0600 
    208 H208       -4.4792  -16.8328  -46.9600 H         1 UNK         0.0600 
    209 H209       -3.9058  -18.3630  -46.3144 H         1 UNK         0.0600 
    210 H210       -5.4648  -20.3484  -47.1467 H         1 UNK         0.3000 
    211 H211       -8.2038  -19.6010  -47.0715 H         1 UNK         0.0600 
    212 H212       -6.8927  -22.3563  -46.7866 H         1 UNK         0.0600 
    213 H213       -8.5329  -21.9509  -46.2959 H         1 UNK         0.0600 
    214 H214       -7.1661  -21.2012  -45.4845 H         1 UNK         0.0600 
    215 H215       -6.3470  -21.1441  -49.6091 H         1 UNK         0.3000 
    216 H216       -8.7310  -21.9649  -51.1561 H         1 UNK         0.0600 
    217 H217       -7.0832  -23.0372  -52.6275 H         1 UNK         0.0600 
    218 H218       -6.7509  -23.5052  -50.9677 H         1 UNK         0.0600 
    219 H219       -5.7467  -22.2950  -51.7624 H         1 UNK         0.0600 
    220 H220       -7.4161  -19.0716  -50.5694 H         1 UNK         0.3000 
    221 H221       -7.4229  -17.0815  -51.4770 H         1 UNK         0.0600 
    222 H222       -8.8745  -18.1866  -53.9332 H         1 UNK         0.0600 
    223 H223       -9.6583  -17.6528  -52.4460 H         1 UNK         0.0600 
    224 H224       -8.7671  -16.5072  -53.4342 H         1 UNK         0.0600 
    225 H225       -5.1746  -18.6165  -51.6236 H         1 UNK         0.3000 
    226 H226       -3.0758  -18.3400  -52.1271 H         1 UNK         0.0600 
    227 H227       -2.1743  -16.5787  -53.5385 H         1 UNK         0.0600 
    228 H228       -3.7128  -16.3431  -54.3560 H         1 UNK         0.0600 
    229 H229       -3.5297  -15.9032  -52.6592 H         1 UNK         0.0600 
    230 H230       -1.7352  -18.2255  -54.5951 H         1 UNK         0.3000 
    231 H231       -0.8248  -19.5924  -56.0612 H         1 UNK         0.0600 
    232 H232       -3.6538  -20.6194  -56.6756 H         1 UNK         0.0600 
    233 H233       -2.2203  -20.8524  -57.6734 H         1 UNK         0.0600 
    234 H234       -2.8651  -19.2414  -57.4289 H         1 UNK         0.0600 
    235 H235       -2.6752  -22.3665  -56.1099 H         1 UNK         0.3000 
    236 H236       -2.6131  -24.4014  -55.3229 H         1 UNK         0.0600 
    237 H237       -3.2248  -23.4077  -53.1235 H         1 UNK         0.0600 
    238 H238       -2.2642  -24.8676  -52.9356 H         1 UNK         0.0600 
    239 H239       -1.5223  -23.2974  -52.6842 H         1 UNK         0.0600 
    240 H240        0.4550  -22.8695  -54.2449 H         1 UNK         0.3000 
    241 H241        1.9742  -25.3035  -54.9669 H         1 UNK         0.0600 
    242 H242        2.2560  -22.7046  -57.9598 H         1 UNK         0.3800 
    243 H243        0.9293  -22.7074  -56.8262 H         1 UNK         0.3800 
    244 H244        2.5442  -24.4309  -52.8150 H         1 UNK         0.0800 
    245 H245        3.9053  -24.2582  -53.8699 H         1 UNK         0.0800 
    246 H246        1.0659  -22.3511  -51.8994 H         1 UNK         0.0800 
    247 H247        2.5119  -22.7903  -51.0206 H         1 UNK         0.0800 
@<TRIPOS>BOND
     1    1    2 1    
     2    1  127 1    
     3    1  128 1    
     4    1  129 1    
     5    2    3 2    
     6    2    4 am   BACKBONE|DICT|INTERRES
     7    4    5 1    
     8    4  130 1    
     9    5    6 1    
    10    5   65 1    
    11    5  131 1    
    12    6    7 1    
    13    6  132 1    
    14    6  133 1    
    15    7    8 1    
    16    8    9 1    
    17    8  134 1    
    18    8  135 1    
    19    9   10 ar   
    20    9   14 ar   
    21   10   11 ar   
    22   10  136 1    
    23   11   12 ar   
    24   11  126 1    
    25   12   13 ar   
    26   12  137 1    
    27   13   14 ar   
    28   13   15 1    
    29   14  138 1    
    30   15   16 1    
    31   15  139 1    
    32   15  140 1    
    33   16   17 1    
    34   17   18 1    
    35   17  141 1    
    36   17  142 1    
    37   18   19 1    
    38   18   67 1    
    39   18  143 1    
    40   19   20 am   BACKBONE|DICT|INTERRES
    41   19  144 1    
    42   20   21 2    
    43   20   22 1    
    44   22   23 1    
    45   22   24 1    
    46   22  145 1    
    47   23  146 1    
    48   23  147 1    
    49   23  148 1    
    50   24   25 am   BACKBONE|DICT|INTERRES
    51   24  149 1    
    52   25   26 2    
    53   25   27 1    
    54   27   28 1    
    55   27   29 1    
    56   27  150 1    
    57   28  151 1    
    58   28  152 1    
    59   28  153 1    
    60   29   30 am   BACKBONE|DICT|INTERRES
    61   29  154 1    
    62   30   31 2    
    63   30   32 1    
    64   32   33 1    
    65   32   34 1    
    66   32  155 1    
    67   33  156 1    
    68   33  157 1    
    69   33  158 1    
    70   34   35 am   BACKBONE|DICT|INTERRES
    71   34  159 1    
    72   35   36 2    
    73   35   37 1    
    74   37   38 1    
    75   37   39 1    
    76   37  160 1    
    77   38  161 1    
    78   38  162 1    
    79   38  163 1    
    80   39   40 am   BACKBONE|DICT|INTERRES
    81   39  164 1    
    82   40   41 2    
    83   40   42 1    
    84   42   43 1    
    85   42   44 1    
    86   42  165 1    
    87   43  166 1    
    88   43  167 1    
    89   43  168 1    
    90   44   45 am   BACKBONE|DICT|INTERRES
    91   44  169 1    
    92   45   46 2    
    93   45   47 1    
    94   47   48 1    
    95   47   49 1    
    96   47  170 1    
    97   48  171 1    
    98   48  172 1    
    99   48  173 1    
   100   49   50 am   BACKBONE|DICT|INTERRES
   101   49  174 1    
   102   50   51 2    
   103   50   52 1    
   104   52   53 1    
   105   52   54 1    
   106   52  175 1    
   107   53  176 1    
   108   53  177 1    
   109   53  178 1    
   110   54   55 am   BACKBONE|DICT|INTERRES
   111   54  179 1    
   112   55   56 2    
   113   55   57 1    
   114   57   58 1    
   115   57   59 1    
   116   57  180 1    
   117   58  181 1    
   118   58  182 1    
   119   58  183 1    
   120   59   60 am   BACKBONE|DICT|INTERRES
   121   59  184 1    
   122   60   61 2    
   123   60   62 1    
   124   62   63 1    
   125   62   64 1    
   126   62  185 1    
   127   63  186 1    
   128   63  187 1    
   129   63  188 1    
   130   64   65 am   BACKBONE|DICT|INTERRES
   131   64  189 1    
   132   65   66 2    
   133   67   68 2    
   134   67   69 am   BACKBONE|DICT|INTERRES
   135   69   70 1    
   136   69  190 1    
   137   70   71 1    
   138   70   72 1    
   139   70  191 1    
   140   71  192 1    
   141   71  193 1    
   142   71  194 1    
   143   72   73 2    
   144   72   74 am   BACKBONE|DICT|INTERRES
   145   74   75 1    
   146   74  195 1    
   147   75   76 1    
   148   75   77 1    
   149   75  196 1    
   150   76  197 1    
   151   76  198 1    
   152   76  199 1    
   153   77   78 2    
   154   77   79 am   BACKBONE|DICT|INTERRES
   155   79   80 1    
   156   79  200 1    
   157   80   81 1    
   158   80   82 1    
   159   80  201 1    
   160   81  202 1    
   161   81  203 1    
   162   81  204 1    
   163   82   83 2    
   164   82   84 am   BACKBONE|DICT|INTERRES
   165   84   85 1    
   166   84  205 1    
   167   85   86 1    
   168   85   87 1    
   169   85  206 1    
   170   86  207 1    
   171   86  208 1    
   172   86  209 1    
   173   87   88 2    
   174   87   89 am   BACKBONE|DICT|INTERRES
   175   89   90 1    
   176   89  210 1    
   177   90   91 1    
   178   90   92 1    
   179   90  211 1    
   180   91  212 1    
   181   91  213 1    
   182   91  214 1    
   183   92   93 2    
   184   92   94 am   BACKBONE|DICT|INTERRES
   185   94   95 1    
   186   94  215 1    
   187   95   96 1    
   188   95   97 1    
   189   95  216 1    
   190   96  217 1    
   191   96  218 1    
   192   96  219 1    
   193   97   98 2    
   194   97   99 am   BACKBONE|DICT|INTERRES
   195   99  100 1    
   196   99  220 1    
   197  100  101 1    
   198  100  102 1    
   199  100  221 1    
   200  101  222 1    
   201  101  223 1    
   202  101  224 1    
   203  102  103 2    
   204  102  104 am   BACKBONE|DICT|INTERRES
   205  104  105 1    
   206  104  225 1    
   207  105  106 1    
   208  105  107 1    
   209  105  226 1    
   210  106  227 1    
   211  106  228 1    
   212  106  229 1    
   213  107  108 2    
   214  107  109 am   BACKBONE|DICT|INTERRES
   215  109  110 1    
   216  109  230 1    
   217  110  111 1    
   218  110  112 1    
   219  110  231 1    
   220  111  232 1    
   221  111  233 1    
   222  111  234 1    
   223  112  113 2    
   224  112  114 am   BACKBONE|DICT|INTERRES
   225  114  115 1    
   226  114  235 1    
   227  115  116 1    
   228  115  117 1    
   229  115  236 1    
   230  116  237 1    
   231  116  238 1    
   232  116  239 1    
   233  117  118 2    
   234  117  119 am   BACKBONE|DICT|INTERRES
   235  119  120 1    
   236  119  240 1    
   237  120  121 1    
   238  120  124 1    
   239  120  241 1    
   240  121  122 am   BACKBONE|DICT|INTERRES
   241  121  123 2    
   242  122  242 1    
   243  122  243 1    
   244  124  125 1    
   245  124  244 1    
   246  124  245 1    
   247  125  126 1    
   248  126  246 1    
   249  126  247 1    
@<TRIPOS>SUBSTRUCTURE
     1 UNK         1 GROUP             0       ****    0 ROOT    
