@<TRIPOS>MOLECULE
3R540
247   249    1
SMALL
USER_CHARGES


@<TRIPOS>ATOM
      1 CA         -1.9118   -9.4792  -47.6295 C.3       0 UNK        -0.1800 
      2 C          -0.8522  -10.5026  -47.2485 C.2       0 UNK         0.5000 
      3 O          -0.5890  -10.6987  -46.0620 O.2       0 UNK        -0.5000 
      4 N          -0.2414  -11.1561  -48.2459 N.am      1 UNK        -0.5000 
      5 CA          0.8278  -12.1503  -48.0908 C.3       1 UNK         0.1400 
      6 C6          0.3344  -13.4325  -47.3579 C.3       23 UNK        -0.0398 
      7 S7          1.2304  -14.9206  -47.9073 S.3       23 UNK        -0.2404 
      8 C8         -0.0064  -15.6589  -49.0156 C.3       23 UNK        -0.0205 
      9 C9          0.6150  -16.7228  -49.9033 C.ar      23 UNK        -0.0193 
     10 C10         0.8840  -16.4519  -51.2475 C.ar      23 UNK        -0.1150 
     11 C11         1.4322  -17.4366  -52.0763 C.ar      23 UNK        -0.0193 
     12 C12         1.7367  -18.6908  -51.5387 C.ar      23 UNK        -0.1150 
     13 C13         1.4891  -18.9668  -50.1908 C.ar      23 UNK        -0.0193 
     14 C14         0.9183  -17.9817  -49.3820 C.ar      23 UNK        -0.1150 
     15 C15         1.8601  -20.3219  -49.6102 C.3       23 UNK        -0.0205 
     16 S16         0.5995  -21.5784  -49.9671 S.3       23 UNK        -0.2404 
     17 C17        -0.7399  -21.1657  -48.7964 C.3       23 UNK        -0.0398 
     18 CA         -0.9276  -22.2916  -47.7498 C.3       11 UNK         0.1400 
     19 N          -0.0508  -22.1456  -46.5825 N.am      11 UNK        -0.5000 
     20 C           0.2238  -23.1565  -45.7455 C.2       10 UNK         0.5000 
     21 O          -0.2336  -24.2920  -45.8755 O.2       10 UNK        -0.5000 
     22 CA          1.1218  -22.8436  -44.5390 C.3       10 UNK         0.1400 
     23 CB          2.5865  -22.6885  -44.9753 C.3       10 UNK        -0.1800 
     24 N           0.6857  -21.6565  -43.8039 N.am      10 UNK        -0.5000 
     25 C          -0.4899  -21.5474  -43.1678 C.2       9 UNK         0.5000 
     26 O          -1.3315  -22.4444  -43.1308 O.2       9 UNK        -0.5000 
     27 CA         -0.8020  -20.1992  -42.4920 C.3       9 UNK         0.1400 
     28 CB         -0.0949  -20.0930  -41.1338 C.3       9 UNK        -0.1800 
     29 N          -0.4537  -19.0468  -43.3232 N.am      9 UNK        -0.5000 
     30 C          -0.9907  -18.7927  -44.5260 C.2       8 UNK         0.5000 
     31 O          -1.8468  -19.4953  -45.0603 O.2       8 UNK        -0.5000 
     32 CA         -0.4416  -17.5772  -45.2881 C.3       8 UNK         0.1400 
     33 CB         -1.1179  -16.2863  -44.8114 C.3       8 UNK        -0.1800 
     34 N           1.0111  -17.4585  -45.1707 N.am      8 UNK        -0.5000 
     35 C           1.8693  -18.3725  -45.6470 C.2       7 UNK         0.5000 
     36 O           1.5214  -19.4031  -46.2263 O.2       7 UNK        -0.5000 
     37 CA          3.3611  -18.1185  -45.3769 C.3       7 UNK         0.1400 
     38 CB          3.8668  -16.8934  -46.1552 C.3       7 UNK        -0.1800 
     39 N           3.6350  -17.9408  -43.9518 N.am      7 UNK        -0.5000 
     40 C           3.4184  -18.8695  -43.0088 C.2       6 UNK         0.5000 
     41 O           3.0010  -20.0017  -43.2431 O.2       6 UNK        -0.5000 
     42 CA          3.6833  -18.4596  -41.5498 C.3       6 UNK         0.1400 
     43 CB          5.1228  -18.8119  -41.1468 C.3       6 UNK        -0.1800 
     44 N           3.4433  -17.0412  -41.2835 N.am      6 UNK        -0.5000 
     45 C           2.2725  -16.4056  -41.4293 C.2       5 UNK         0.5000 
     46 O           1.2406  -16.9566  -41.8255 O.2       5 UNK        -0.5000 
     47 CA          2.2656  -14.9141  -41.0315 C.3       5 UNK         0.1400 
     48 CB          3.5974  -14.1945  -41.3464 C.3       5 UNK        -0.1800 
     49 N           1.1458  -14.1615  -41.5976 N.am      5 UNK        -0.5000 
     50 C           0.8853  -13.9376  -42.8923 C.2       4 UNK         0.5000 
     51 O           1.5327  -14.4127  -43.8293 O.2       4 UNK        -0.5000 
     52 CA         -0.2847  -12.9811  -43.1989 C.3       4 UNK         0.1400 
     53 CB         -1.3596  -12.9057  -42.0919 C.3       4 UNK        -0.1800 
     54 N           0.2273  -11.6548  -43.5440 N.am      4 UNK        -0.5000 
     55 C           0.9695  -10.8337  -42.7855 C.2       3 UNK         0.5000 
     56 O           1.1580  -10.9800  -41.5763 O.2       3 UNK        -0.5000 
     57 CA          1.6721   -9.6979  -43.5580 C.3       3 UNK         0.1400 
     58 CB          2.5014   -8.7587  -42.6575 C.3       3 UNK        -0.1800 
     59 N           2.4886  -10.2507  -44.6469 N.am      3 UNK        -0.5000 
     60 C           3.5021  -11.1273  -44.5444 C.2       2 UNK         0.5000 
     61 O           4.0240  -11.4480  -43.4760 O.2       2 UNK        -0.5000 
     62 CA          3.9771  -11.7883  -45.8591 C.3       2 UNK         0.1400 
     63 CB          4.9220  -12.9794  -45.6129 C.3       2 UNK        -0.1800 
     64 N           2.8414  -12.2618  -46.6537 N.am      2 UNK        -0.5000 
     65 C           2.0990  -11.5106  -47.4757 C.2       1 UNK         0.5000 
     66 O           2.3689  -10.3326  -47.7241 O.2       1 UNK        -0.5000 
     67 C          -2.4078  -22.4914  -47.3618 C.2       11 UNK         0.5000 
     68 O          -3.1248  -23.1598  -48.1072 O.2       11 UNK        -0.5000 
     69 N          -2.8465  -21.9625  -46.2110 N.am      12 UNK        -0.5000 
     70 CA         -4.1648  -22.2454  -45.6411 C.3       12 UNK         0.1400 
     71 CB         -4.4807  -21.2572  -44.5089 C.3       12 UNK        -0.1800 
     72 C          -4.2804  -23.7010  -45.1553 C.2       12 UNK         0.5000 
     73 O          -5.2553  -24.3721  -45.4931 O.2       12 UNK        -0.5000 
     74 N          -3.2700  -24.1763  -44.4121 N.am      13 UNK        -0.5000 
     75 CA         -3.1839  -25.5446  -43.8935 C.3       13 UNK         0.1400 
     76 CB         -1.9965  -25.6538  -42.9252 C.3       13 UNK        -0.1800 
     77 C          -3.0796  -26.6082  -45.0023 C.2       13 UNK         0.5000 
     78 O          -3.7072  -27.6623  -44.8958 O.2       13 UNK        -0.5000 
     79 N          -2.3175  -26.2995  -46.0599 N.am      14 UNK        -0.5000 
     80 CA         -2.1713  -27.1313  -47.2567 C.3       14 UNK         0.1400 
     81 CB         -0.9173  -26.6756  -48.0204 C.3       14 UNK        -0.1800 
     82 C          -3.3992  -27.0941  -48.1902 C.2       14 UNK         0.5000 
     83 O          -3.4741  -27.9103  -49.1088 O.2       14 UNK        -0.5000 
     84 N          -4.3073  -26.1303  -47.9695 N.am      15 UNK        -0.5000 
     85 CA         -5.4843  -25.7897  -48.7797 C.3       15 UNK         0.1400 
     86 CB         -6.4788  -26.9651  -48.8611 C.3       15 UNK        -0.1800 
     87 C          -5.1373  -25.2116  -50.1688 C.2       15 UNK         0.5000 
     88 O          -6.0222  -25.0701  -51.0120 O.2       15 UNK        -0.5000 
     89 N          -3.8712  -24.8274  -50.3691 N.am      16 UNK        -0.5000 
     90 CA         -3.3557  -24.1611  -51.5625 C.3       16 UNK         0.1400 
     91 CB         -1.8234  -24.1339  -51.4843 C.3       16 UNK        -0.1800 
     92 C          -3.9235  -22.7406  -51.7299 C.2       16 UNK         0.5000 
     93 O          -4.1482  -22.3056  -52.8599 O.2       16 UNK        -0.5000 
     94 N          -4.1873  -22.0612  -50.6040 N.am      17 UNK        -0.5000 
     95 CA         -4.8659  -20.7652  -50.5638 C.3       17 UNK         0.1400 
     96 CB         -4.7271  -20.1500  -49.1626 C.3       17 UNK        -0.1800 
     97 C          -6.3500  -20.8770  -50.9590 C.2       17 UNK         0.5000 
     98 O          -6.8529  -20.0134  -51.6768 O.2       17 UNK        -0.5000 
     99 N          -7.0115  -21.9541  -50.5102 N.am      18 UNK        -0.5000 
    100 CA        -8.4084  -22.2653  -50.8233 C.3       18 UNK         0.1400 
    101 CB        -8.9236  -23.3426  -49.8561 C.3       18 UNK        -0.1800 
    102 C         -8.5928  -22.7035  -52.2876 C.2       18 UNK         0.5000 
    103 O         -9.5669  -22.3045  -52.9263 O.2       18 UNK        -0.5000 
    104 N         -7.6312  -23.4826  -52.8017 N.am      19 UNK        -0.5000 
    105 CA        -7.5415  -23.9003  -54.2026 C.3       19 UNK         0.1400 
    106 CB        -6.5311  -25.0533  -54.3080 C.3       19 UNK        -0.1800 
    107 C         -7.1445  -22.7590  -55.1618 C.2       19 UNK         0.5000 
    108 O         -7.3217  -22.9074  -56.3714 O.2       19 UNK        -0.5000 
    109 N         -6.6082  -21.6601  -54.6087 N.am      20 UNK        -0.5000 
    110 CA        -6.0746  -20.4789  -55.2910 C.3       20 UNK         0.1400 
    111 CB        -7.1914  -19.7110  -56.0282 C.3       20 UNK        -0.1800 
    112 C         -4.8706  -20.8292  -56.1884 C.2       20 UNK         0.5000 
    113 O         -4.8193  -20.4309  -57.3536 O.2       20 UNK        -0.5000 
    114 N         -3.9254  -21.5923  -55.6212 N.am      21 UNK        -0.5000 
    115 CA        -2.6951  -22.0289  -56.2847 C.3       21 UNK         0.1400 
    116 CB        -2.0422  -23.1373  -55.4463 C.3       21 UNK        -0.1800 
    117 C         -1.7008  -20.8757  -56.5241 C.2       21 UNK         0.5000 
    118 O         -0.9479  -20.9154  -57.4981 O.2       21 UNK        -0.5000 
    119 N         -1.7232  -19.8711  -55.6388 N.am      22 UNK        -0.5000 
    120 CA        -0.9933  -18.6068  -55.7844 C.3       22 UNK         0.1400 
    121 C         -1.6585  -17.7132  -56.8699 C.2       22 UNK         0.5000 
    122 N         -0.9180  -17.2931  -57.8867 N.am      22 UNK        -0.7600 
    123 O         -2.8371  -17.3773  -56.7782 O.2       22 UNK        -0.5000 
    124 C124       -0.8853  -17.8843  -54.4176 C.3       23 UNK        -0.0398 
    125 S125        0.2792  -16.4759  -54.4392 S.3       23 UNK        -0.2404 
    126 C126        1.7204  -17.1452  -53.5445 C.3       23 UNK        -0.0205 
    127 H127       -2.0441   -9.4151  -48.7098 H         1 UNK         0.0600 
    128 H128       -1.6284   -8.4931  -47.2616 H         1 UNK         0.0600 
    129 H129       -2.8694   -9.7485  -47.1841 H         1 UNK         0.0600 
    130 H130       -0.4776  -10.9231  -49.2002 H         1 UNK         0.3000 
    131 H131        1.1006  -12.4237  -49.1113 H         1 UNK         0.0600 
    132 H132        0.4135  -13.3376  -46.2743 H         1 UNK         0.0800 
    133 H133       -0.7288  -13.5875  -47.5473 H         1 UNK         0.0800 
    134 H134       -0.4596  -14.8787  -49.6294 H         1 UNK         0.0800 
    135 H135       -0.8117  -16.0946  -48.4224 H         1 UNK         0.0800 
    136 H136        0.6575  -15.4765  -51.6548 H         1 UNK         0.1150 
    137 H137        2.1729  -19.4555  -52.1662 H         1 UNK         0.1150 
    138 H138        0.7187  -18.1859  -48.3417 H         1 UNK         0.1150 
    139 H139        2.0265  -20.2606  -48.5361 H         1 UNK         0.0800 
    140 H140        2.8079  -20.6490  -50.0399 H         1 UNK         0.0800 
    141 H141       -1.6335  -21.0334  -49.4079 H         1 UNK         0.0800 
    142 H142       -0.5627  -20.2057  -48.3112 H         1 UNK         0.0800 
    143 H143       -0.6509  -23.2322  -48.2312 H         1 UNK         0.0600 
    144 H144        0.3608  -21.2341  -46.4127 H         1 UNK         0.3000 
    145 H145        1.0635  -23.6945  -43.8571 H         1 UNK         0.0600 
    146 H146        2.9192  -23.5556  -45.5473 H         1 UNK         0.0600 
    147 H147        3.2455  -22.5984  -44.1118 H         1 UNK         0.0600 
    148 H148        2.7316  -21.8063  -45.5997 H         1 UNK         0.0600 
    149 H149        1.3468  -20.8860  -43.7616 H         1 UNK         0.3000 
    150 H150       -1.8786  -20.1594  -42.3150 H         1 UNK         0.0600 
    151 H151        0.9872  -20.1554  -41.2402 H         1 UNK         0.0600 
    152 H152       -0.4052  -20.9008  -40.4699 H         1 UNK         0.0600 
    153 H153       -0.3306  -19.1522  -40.6361 H         1 UNK         0.0600 
    154 H154        0.2361  -18.4024  -42.9505 H         1 UNK         0.3000 
    155 H155       -0.6802  -17.7122  -46.3449 H         1 UNK         0.0600 
    156 H156       -0.7635  -15.4273  -45.3795 H         1 UNK         0.0600 
    157 H157       -0.9265  -16.1016  -43.7541 H         1 UNK         0.0600 
    158 H158       -2.1990  -16.3406  -44.9445 H         1 UNK         0.0600 
    159 H159        1.3668  -16.6503  -44.6758 H         1 UNK         0.3000 
    160 H160        3.9151  -18.9946  -45.7206 H         1 UNK         0.0600 
    161 H161        3.6581  -16.9956  -47.2212 H         1 UNK         0.0600 
    162 H162        4.9444  -16.7729  -46.0451 H         1 UNK         0.0600 
    163 H163        3.3911  -15.9726  -45.8153 H         1 UNK         0.0600 
    164 H164        3.9592  -17.0311  -43.6597 H         1 UNK         0.3000 
    165 H165        3.0049  -19.0325  -40.9160 H         1 UNK         0.0600 
    166 H166        5.3259  -19.8710  -41.3113 H         1 UNK         0.0600 
    167 H167        5.8535  -18.2441  -41.7242 H         1 UNK         0.0600 
    168 H168        5.2982  -18.6100  -40.0899 H         1 UNK         0.0600 
    169 H169        4.2348  -16.5126  -40.9468 H         1 UNK         0.3000 
    170 H170        2.1233  -14.8908  -39.9504 H         1 UNK         0.0600 
    171 H171        3.5273  -13.1292  -41.1241 H         1 UNK         0.0600 
    172 H172        3.8725  -14.2905  -42.3976 H         1 UNK         0.0600 
    173 H173        4.4208  -14.5864  -40.7489 H         1 UNK         0.0600 
    174 H174        0.5426  -13.7146  -40.9224 H         1 UNK         0.3000 
    175 H175       -0.7725  -13.3625  -44.0960 H         1 UNK         0.0600 
    176 H176       -0.9846  -12.4704  -41.1658 H         1 UNK         0.0600 
    177 H177       -1.7466  -13.8984  -41.8583 H         1 UNK         0.0600 
    178 H178       -2.2055  -12.3002  -42.4175 H         1 UNK         0.0600 
    179 H179        0.0875  -11.3856  -44.5164 H         1 UNK         0.3000 
    180 H180        0.8867   -9.1016  -44.0251 H         1 UNK         0.0600 
    181 H181        3.2862   -9.2916  -42.1201 H         1 UNK         0.0600 
    182 H182        1.8668   -8.2780  -41.9123 H         1 UNK         0.0600 
    183 H183        2.9728   -7.9686  -43.2418 H         1 UNK         0.0600 
    184 H184        2.1509  -10.0559  -45.5820 H         1 UNK         0.3000 
    185 H185        4.5281  -11.0337  -46.4241 H         1 UNK         0.0600 
    186 H186        4.4405  -13.7556  -45.0162 H         1 UNK         0.0600 
    187 H187        5.2433  -13.4301  -46.5521 H         1 UNK         0.0600 
    188 H188        5.8206  -12.6647  -45.0810 H         1 UNK         0.0600 
    189 H189        2.5545  -13.2166  -46.4843 H         1 UNK         0.3000 
    190 H190       -2.2410  -21.3477  -45.6763 H         1 UNK         0.3000 
    191 H191       -4.9128  -22.1014  -46.4228 H         1 UNK         0.0600 
    192 H192       -4.4992  -20.2318  -44.8779 H         1 UNK         0.0600 
    193 H193       -5.4589  -21.4625  -44.0725 H         1 UNK         0.0600 
    194 H194       -3.7451  -21.3107  -43.7066 H         1 UNK         0.0600 
    195 H195       -2.5151  -23.5479  -44.1481 H         1 UNK         0.3000 
    196 H196       -4.0985  -25.7439  -43.3313 H         1 UNK         0.0600 
    197 H197       -1.9138  -26.6622  -42.5178 H         1 UNK         0.0600 
    198 H198       -2.1118  -24.9715  -42.0829 H         1 UNK         0.0600 
    199 H199       -1.0525  -25.4187  -43.4181 H         1 UNK         0.0600 
    200 H200       -1.7662  -25.4454  -46.0297 H         1 UNK         0.3000 
    201 H201       -2.0256  -28.1675  -46.9448 H         1 UNK         0.0600 
    202 H202       -0.7405  -27.3011  -48.8964 H         1 UNK         0.0600 
    203 H203       -0.0282  -26.7387  -47.3927 H         1 UNK         0.0600 
    204 H204       -1.0104  -25.6457  -48.3661 H         1 UNK         0.0600 
    205 H205       -4.1483  -25.5170  -47.1803 H         1 UNK         0.3000 
    206 H206       -5.9822  -24.9812  -48.2428 H         1 UNK         0.0600 
    207 H207       -6.7108  -27.3539  -47.8696 H         1 UNK         0.0600 
    208 H208       -7.4198  -26.6494  -49.3130 H         1 UNK         0.0600 
    209 H209       -6.0910  -27.7866  -49.4636 H         1 UNK         0.0600 
    210 H210       -3.2416  -24.8921  -49.5817 H         1 UNK         0.3000 
    211 H211       -3.6482  -24.7442  -52.4376 H         1 UNK         0.0600 
    212 H212       -1.4122  -25.1435  -51.4835 H         1 UNK         0.0600 
    213 H213       -1.3890  -23.6065  -52.3330 H         1 UNK         0.0600 
    214 H214       -1.4805  -23.6348  -50.5789 H         1 UNK         0.0600 
    215 H215       -3.9502  -22.4920  -49.7150 H         1 UNK         0.3000 
    216 H216       -4.3775  -20.0997  -51.2789 H         1 UNK         0.0600 
    217 H217       -5.1635  -20.7910  -48.3968 H         1 UNK         0.0600 
    218 H218       -5.2336  -19.1855  -49.1088 H         1 UNK         0.0600 
    219 H219       -3.6837  -19.9779  -48.9025 H         1 UNK         0.0600 
    220 H220       -6.5106  -22.6295  -49.9541 H         1 UNK         0.3000 
    221 H221       -9.0014  -21.3613  -50.6690 H         1 UNK         0.0600 
    222 H222       -8.3752  -24.2788  -49.9596 H         1 UNK         0.0600 
    223 H223       -8.8380  -23.0161  -48.8196 H         1 UNK         0.0600 
    224 H224       -9.9763  -23.5593  -50.0421 H         1 UNK         0.0600 
    225 H225       -6.9147  -23.8449  -52.1785 H         1 UNK         0.3000 
    226 H226       -8.5204  -24.2698  -54.5147 H         1 UNK         0.0600 
    227 H227       -6.8157  -25.8888  -53.6681 H         1 UNK         0.0600 
    228 H228       -6.4719  -25.4314  -55.3293 H         1 UNK         0.0600 
    229 H229       -5.5297  -24.7342  -54.0178 H         1 UNK         0.0600 
    230 H230       -6.4840  -21.6683  -53.6060 H         1 UNK         0.3000 
    231 H231       -5.6905  -19.8238  -54.5076 H         1 UNK         0.0600 
    232 H232       -7.5986  -20.2824  -56.8626 H         1 UNK         0.0600 
    233 H233       -6.8148  -18.7699  -56.4307 H         1 UNK         0.0600 
    234 H234       -8.0130  -19.4699  -55.3537 H         1 UNK         0.0600 
    235 H235       -4.0500  -21.8846  -54.6535 H         1 UNK         0.3000 
    236 H236       -2.9632  -22.4473  -57.2570 H         1 UNK         0.0600 
    237 H237       -1.7272  -22.7624  -54.4728 H         1 UNK         0.0600 
    238 H238       -2.7291  -23.9678  -55.2813 H         1 UNK         0.0600 
    239 H239       -1.1591  -23.5369  -55.9462 H         1 UNK         0.0600 
    240 H240       -2.3994  -19.9166  -54.8917 H         1 UNK         0.3000 
    241 H241        0.0208  -18.8525  -56.1068 H         1 UNK         0.0600 
    242 H242        0.0516  -17.5553  -57.9759 H         1 UNK         0.3800 
    243 H243       -1.3378  -16.7045  -58.5894 H         1 UNK         0.3800 
    244 H244       -1.8620  -17.5195  -54.0950 H         1 UNK         0.0800 
    245 H245       -0.5670  -18.5918  -53.6509 H         1 UNK         0.0800 
    246 H246        2.5345  -16.4216  -53.6011 H         1 UNK         0.0800 
    247 H247        2.0689  -18.0415  -54.0601 H         1 UNK         0.0800 
@<TRIPOS>BOND
     1    1    2 1    
     2    1  127 1    
     3    1  128 1    
     4    1  129 1    
     5    2    3 2    
     6    2    4 am   BACKBONE|DICT|INTERRES
     7    4    5 1    
     8    4  130 1    
     9    5    6 1    
    10    5   65 1    
    11    5  131 1    
    12    6    7 1    
    13    6  132 1    
    14    6  133 1    
    15    7    8 1    
    16    8    9 1    
    17    8  134 1    
    18    8  135 1    
    19    9   10 ar   
    20    9   14 ar   
    21   10   11 ar   
    22   10  136 1    
    23   11   12 ar   
    24   11  126 1    
    25   12   13 ar   
    26   12  137 1    
    27   13   14 ar   
    28   13   15 1    
    29   14  138 1    
    30   15   16 1    
    31   15  139 1    
    32   15  140 1    
    33   16   17 1    
    34   17   18 1    
    35   17  141 1    
    36   17  142 1    
    37   18   19 1    
    38   18   67 1    
    39   18  143 1    
    40   19   20 am   BACKBONE|DICT|INTERRES
    41   19  144 1    
    42   20   21 2    
    43   20   22 1    
    44   22   23 1    
    45   22   24 1    
    46   22  145 1    
    47   23  146 1    
    48   23  147 1    
    49   23  148 1    
    50   24   25 am   BACKBONE|DICT|INTERRES
    51   24  149 1    
    52   25   26 2    
    53   25   27 1    
    54   27   28 1    
    55   27   29 1    
    56   27  150 1    
    57   28  151 1    
    58   28  152 1    
    59   28  153 1    
    60   29   30 am   BACKBONE|DICT|INTERRES
    61   29  154 1    
    62   30   31 2    
    63   30   32 1    
    64   32   33 1    
    65   32   34 1    
    66   32  155 1    
    67   33  156 1    
    68   33  157 1    
    69   33  158 1    
    70   34   35 am   BACKBONE|DICT|INTERRES
    71   34  159 1    
    72   35   36 2    
    73   35   37 1    
    74   37   38 1    
    75   37   39 1    
    76   37  160 1    
    77   38  161 1    
    78   38  162 1    
    79   38  163 1    
    80   39   40 am   BACKBONE|DICT|INTERRES
    81   39  164 1    
    82   40   41 2    
    83   40   42 1    
    84   42   43 1    
    85   42   44 1    
    86   42  165 1    
    87   43  166 1    
    88   43  167 1    
    89   43  168 1    
    90   44   45 am   BACKBONE|DICT|INTERRES
    91   44  169 1    
    92   45   46 2    
    93   45   47 1    
    94   47   48 1    
    95   47   49 1    
    96   47  170 1    
    97   48  171 1    
    98   48  172 1    
    99   48  173 1    
   100   49   50 am   BACKBONE|DICT|INTERRES
   101   49  174 1    
   102   50   51 2    
   103   50   52 1    
   104   52   53 1    
   105   52   54 1    
   106   52  175 1    
   107   53  176 1    
   108   53  177 1    
   109   53  178 1    
   110   54   55 am   BACKBONE|DICT|INTERRES
   111   54  179 1    
   112   55   56 2    
   113   55   57 1    
   114   57   58 1    
   115   57   59 1    
   116   57  180 1    
   117   58  181 1    
   118   58  182 1    
   119   58  183 1    
   120   59   60 am   BACKBONE|DICT|INTERRES
   121   59  184 1    
   122   60   61 2    
   123   60   62 1    
   124   62   63 1    
   125   62   64 1    
   126   62  185 1    
   127   63  186 1    
   128   63  187 1    
   129   63  188 1    
   130   64   65 am   BACKBONE|DICT|INTERRES
   131   64  189 1    
   132   65   66 2    
   133   67   68 2    
   134   67   69 am   BACKBONE|DICT|INTERRES
   135   69   70 1    
   136   69  190 1    
   137   70   71 1    
   138   70   72 1    
   139   70  191 1    
   140   71  192 1    
   141   71  193 1    
   142   71  194 1    
   143   72   73 2    
   144   72   74 am   BACKBONE|DICT|INTERRES
   145   74   75 1    
   146   74  195 1    
   147   75   76 1    
   148   75   77 1    
   149   75  196 1    
   150   76  197 1    
   151   76  198 1    
   152   76  199 1    
   153   77   78 2    
   154   77   79 am   BACKBONE|DICT|INTERRES
   155   79   80 1    
   156   79  200 1    
   157   80   81 1    
   158   80   82 1    
   159   80  201 1    
   160   81  202 1    
   161   81  203 1    
   162   81  204 1    
   163   82   83 2    
   164   82   84 am   BACKBONE|DICT|INTERRES
   165   84   85 1    
   166   84  205 1    
   167   85   86 1    
   168   85   87 1    
   169   85  206 1    
   170   86  207 1    
   171   86  208 1    
   172   86  209 1    
   173   87   88 2    
   174   87   89 am   BACKBONE|DICT|INTERRES
   175   89   90 1    
   176   89  210 1    
   177   90   91 1    
   178   90   92 1    
   179   90  211 1    
   180   91  212 1    
   181   91  213 1    
   182   91  214 1    
   183   92   93 2    
   184   92   94 am   BACKBONE|DICT|INTERRES
   185   94   95 1    
   186   94  215 1    
   187   95   96 1    
   188   95   97 1    
   189   95  216 1    
   190   96  217 1    
   191   96  218 1    
   192   96  219 1    
   193   97   98 2    
   194   97   99 am   BACKBONE|DICT|INTERRES
   195   99  100 1    
   196   99  220 1    
   197  100  101 1    
   198  100  102 1    
   199  100  221 1    
   200  101  222 1    
   201  101  223 1    
   202  101  224 1    
   203  102  103 2    
   204  102  104 am   BACKBONE|DICT|INTERRES
   205  104  105 1    
   206  104  225 1    
   207  105  106 1    
   208  105  107 1    
   209  105  226 1    
   210  106  227 1    
   211  106  228 1    
   212  106  229 1    
   213  107  108 2    
   214  107  109 am   BACKBONE|DICT|INTERRES
   215  109  110 1    
   216  109  230 1    
   217  110  111 1    
   218  110  112 1    
   219  110  231 1    
   220  111  232 1    
   221  111  233 1    
   222  111  234 1    
   223  112  113 2    
   224  112  114 am   BACKBONE|DICT|INTERRES
   225  114  115 1    
   226  114  235 1    
   227  115  116 1    
   228  115  117 1    
   229  115  236 1    
   230  116  237 1    
   231  116  238 1    
   232  116  239 1    
   233  117  118 2    
   234  117  119 am   BACKBONE|DICT|INTERRES
   235  119  120 1    
   236  119  240 1    
   237  120  121 1    
   238  120  124 1    
   239  120  241 1    
   240  121  122 am   BACKBONE|DICT|INTERRES
   241  121  123 2    
   242  122  242 1    
   243  122  243 1    
   244  124  125 1    
   245  124  244 1    
   246  124  245 1    
   247  125  126 1    
   248  126  246 1    
   249  126  247 1    
@<TRIPOS>SUBSTRUCTURE
     1 UNK         1 GROUP             0       ****    0 ROOT    
