@<TRIPOS>MOLECULE
3R540
247   249    1
SMALL
USER_CHARGES


@<TRIPOS>ATOM
      1 CA         -0.7625  -17.5333  -45.5054 C.3       0 UNK        -0.1800 
      2 C          -0.3783  -16.3670  -46.4046 C.2       0 UNK         0.5000 
      3 O          -1.0889  -15.3644  -46.4481 O.2       0 UNK        -0.5000 
      4 N           0.7433  -16.4975  -47.1270 N.am      1 UNK        -0.5000 
      5 CA          1.1986  -15.5761  -48.1786 C.3       1 UNK         0.1400 
      6 C6          2.3869  -16.1757  -48.9772 C.3       23 UNK        -0.0398 
      7 S7          2.4312  -15.5838  -50.7005 S.3       23 UNK        -0.2404 
      8 C8          3.5382  -16.8065  -51.4843 C.3       23 UNK        -0.0205 
      9 C9          2.9114  -18.1740  -51.7606 C.ar      23 UNK        -0.0193 
     10 C10         1.5605  -18.3149  -52.1020 C.ar      23 UNK        -0.1150 
     11 C11         1.0261  -19.5704  -52.4060 C.ar      23 UNK        -0.0193 
     12 C12         1.8577  -20.6947  -52.3742 C.ar      23 UNK        -0.1150 
     13 C13         3.2176  -20.5695  -52.0737 C.ar      23 UNK        -0.0193 
     14 C14         3.7297  -19.3085  -51.7524 C.ar      23 UNK        -0.1150 
     15 C15         4.1647  -21.7626  -52.1914 C.3       23 UNK        -0.0205 
     16 S16         3.5631  -23.2950  -51.4072 S.3       23 UNK        -0.2404 
     17 C17         3.7326  -22.8809  -49.6398 C.3       23 UNK        -0.0398 
     18 CA          2.5842  -23.4354  -48.7623 C.3       11 UNK         0.1400 
     19 N           2.8864  -23.2541  -47.3391 N.am      11 UNK        -0.5000 
     20 C           2.1610  -23.7457  -46.3255 C.2       10 UNK         0.5000 
     21 O           1.1575  -24.4430  -46.4726 O.2       10 UNK        -0.5000 
     22 CA          2.6166  -23.3610  -44.9058 C.3       10 UNK         0.1400 
     23 CB          3.6672  -24.3566  -44.3919 C.3       10 UNK        -0.1800 
     24 N           3.1444  -21.9964  -44.7905 N.am      10 UNK        -0.5000 
     25 C           2.4461  -20.8816  -45.0420 C.2       9 UNK         0.5000 
     26 O           1.3076  -20.8721  -45.5135 O.2       9 UNK        -0.5000 
     27 CA          3.1157  -19.5459  -44.7084 C.3       9 UNK         0.1400 
     28 CB          3.4410  -18.7473  -45.9822 C.3       9 UNK        -0.1800 
     29 N           2.1863  -18.8048  -43.8630 N.am      9 UNK        -0.5000 
     30 C           2.5401  -17.9657  -42.8830 C.2       8 UNK         0.5000 
     31 O           3.7002  -17.5997  -42.6912 O.2       8 UNK        -0.5000 
     32 CA          1.4299  -17.4585  -41.9358 C.3       8 UNK         0.1400 
     33 CB          1.0944  -15.9868  -42.2237 C.3       8 UNK        -0.1800 
     34 N           0.1941  -18.2552  -41.9283 N.am      8 UNK        -0.5000 
     35 C           0.1074  -19.5205  -41.4834 C.2       7 UNK         0.5000 
     36 O           1.0893  -20.1749  -41.1312 O.2       7 UNK        -0.5000 
     37 CA         -1.2908  -20.1664  -41.3811 C.3       7 UNK         0.1400 
     38 CB         -1.5015  -20.8053  -39.9973 C.3       7 UNK        -0.1800 
     39 N          -2.3770  -19.2155  -41.6106 N.am      7 UNK        -0.5000 
     40 C          -3.0683  -19.0727  -42.7486 C.2       6 UNK         0.5000 
     41 O          -2.8548  -19.7222  -43.7711 O.2       6 UNK        -0.5000 
     42 CA         -4.1919  -18.0149  -42.7399 C.3       6 UNK         0.1400 
     43 CB         -5.5491  -18.6867  -42.4810 C.3       6 UNK        -0.1800 
     44 N          -3.9954  -16.9485  -41.7492 N.am      6 UNK        -0.5000 
     45 C          -2.9917  -16.0646  -41.7824 C.2       5 UNK         0.5000 
     46 O          -2.1266  -16.0512  -42.6615 O.2       5 UNK        -0.5000 
     47 CA         -2.9007  -15.0683  -40.6196 C.3       5 UNK         0.1400 
     48 CB         -2.3243  -15.7509  -39.3643 C.3       5 UNK        -0.1800 
     49 N          -2.0252  -13.9909  -41.0553 N.am      5 UNK        -0.5000 
     50 C          -1.8634  -12.7892  -40.4954 C.2       4 UNK         0.5000 
     51 O          -2.4369  -12.4229  -39.4690 O.2       4 UNK        -0.5000 
     52 CA         -0.8984  -11.8313  -41.2211 C.3       4 UNK         0.1400 
     53 CB          0.5161  -11.9471  -40.6322 C.3       4 UNK        -0.1800 
     54 N          -0.8304  -12.0842  -42.6631 N.am      4 UNK        -0.5000 
     55 C          -1.7964  -11.7852  -43.5431 C.2       3 UNK         0.5000 
     56 O          -2.8480  -11.2288  -43.2233 O.2       3 UNK        -0.5000 
     57 CA         -1.5760  -12.1997  -45.0155 C.3       3 UNK         0.1400 
     58 CB         -1.9886  -11.0879  -46.0022 C.3       3 UNK        -0.1800 
     59 N          -0.2302  -12.7023  -45.3252 N.am      3 UNK        -0.5000 
     60 C           0.9316  -12.0278  -45.3046 C.2       2 UNK         0.5000 
     61 O           1.0314  -10.8463  -44.9738 O.2       2 UNK        -0.5000 
     62 CA          2.2090  -12.8049  -45.6877 C.3       2 UNK         0.1400 
     63 CB          3.0485  -13.1040  -44.4361 C.3       2 UNK        -0.1800 
     64 N           1.9406  -14.0644  -46.3850 N.am      2 UNK        -0.5000 
     65 C           1.5248  -14.1577  -47.6562 C.2       1 UNK         0.5000 
     66 O           1.3699  -13.1827  -48.3926 O.2       1 UNK        -0.5000 
     67 C           1.2223  -22.8107  -49.1294 C.2       11 UNK         0.5000 
     68 O           0.3786  -23.4691  -49.7395 O.2       11 UNK        -0.5000 
     69 N           1.0238  -21.5590  -48.7012 N.am      12 UNK        -0.5000 
     70 CA         -0.2112  -20.8154  -48.9091 C.3       12 UNK         0.1400 
     71 CB          0.0486  -19.3342  -48.6464 C.3       12 UNK        -0.1800 
     72 C          -1.3672  -21.3416  -48.0465 C.2       12 UNK         0.5000 
     73 O          -2.5001  -21.3628  -48.5220 O.2       12 UNK        -0.5000 
     74 N          -1.0676  -21.7845  -46.8178 N.am      13 UNK        -0.5000 
     75 CA         -2.0202  -22.4224  -45.9084 C.3       13 UNK         0.1400 
     76 CB         -1.3443  -22.7021  -44.5591 C.3       13 UNK        -0.1800 
     77 C          -2.6138  -23.7111  -46.5035 C.2       13 UNK         0.5000 
     78 O          -3.8345  -23.8765  -46.4913 O.2       13 UNK        -0.5000 
     79 N          -1.7416  -24.5645  -47.0630 N.am      14 UNK        -0.5000 
     80 CA         -2.1071  -25.7814  -47.7898 C.3       14 UNK         0.1400 
     81 CB         -0.8386  -26.5779  -48.1291 C.3       14 UNK        -0.1800 
     82 C          -2.9273  -25.4902  -49.0600 C.2       14 UNK         0.5000 
     83 O          -3.9002  -26.1946  -49.3309 O.2       14 UNK        -0.5000 
     84 N          -2.5691  -24.4188  -49.7795 N.am      15 UNK        -0.5000 
     85 CA         -3.2923  -23.8783  -50.9332 C.3       15 UNK         0.1400 
     86 CB         -2.3033  -23.0877  -51.8035 C.3       15 UNK        -0.1800 
     87 C          -4.5235  -23.0371  -50.5210 C.2       15 UNK         0.5000 
     88 O          -4.7091  -21.9260  -51.0207 O.2       15 UNK        -0.5000 
     89 N          -5.3417  -23.5943  -49.6167 N.am      16 UNK        -0.5000 
     90 CA         -6.6300  -23.0954  -49.1268 C.3       16 UNK         0.1400 
     91 CB         -7.7147  -23.3111  -50.2013 C.3       16 UNK        -0.1800 
     92 C          -6.5921  -21.6516  -48.5794 C.2       16 UNK         0.5000 
     93 O          -7.4884  -20.8591  -48.8741 O.2       16 UNK        -0.5000 
     94 N          -5.5598  -21.3516  -47.7775 N.am      17 UNK        -0.5000 
     95 CA         -5.2930  -20.0621  -47.1287 C.3       17 UNK         0.1400 
     96 CB         -6.3739  -19.7382  -46.0765 C.3       17 UNK        -0.1800 
     97 C          -5.0724  -18.9244  -48.1470 C.2       17 UNK         0.5000 
     98 O          -5.7883  -17.9211  -48.1335 O.2       17 UNK        -0.5000 
     99 N          -4.0632  -19.1215  -49.0044 N.am      18 UNK        -0.5000 
    100 CA        -3.5849  -18.2178  -50.0533 C.3       18 UNK         0.1400 
    101 CB        -3.0663  -16.8923  -49.4515 C.3       18 UNK        -0.1800 
    102 C         -4.6155  -18.0046  -51.1796 C.2       18 UNK         0.5000 
    103 O         -4.7776  -16.8827  -51.6657 O.2       18 UNK        -0.5000 
    104 N         -5.2873  -19.0880  -51.5883 N.am      19 UNK        -0.5000 
    105 CA        -6.1688  -19.1106  -52.7533 C.3       19 UNK         0.1400 
    106 CB        -7.1485  -20.2871  -52.6116 C.3       19 UNK        -0.1800 
    107 C         -5.3584  -19.2297  -54.0589 C.2       19 UNK         0.5000 
    108 O         -4.1423  -19.4317  -54.0311 O.2       19 UNK        -0.5000 
    109 N         -6.0644  -19.1609  -55.1950 N.am      20 UNK        -0.5000 
    110 CA        -5.5144  -19.3173  -56.5474 C.3       20 UNK         0.1400 
    111 CB        -6.5925  -18.9103  -57.5645 C.3       20 UNK        -0.1800 
    112 C         -4.9756  -20.7314  -56.8639 C.2       20 UNK         0.5000 
    113 O         -4.3561  -20.9188  -57.9118 O.2       20 UNK        -0.5000 
    114 N         -5.2042  -21.6948  -55.9591 N.am      21 UNK        -0.5000 
    115 CA        -4.7743  -23.0932  -56.0289 C.3       21 UNK         0.1400 
    116 CB        -5.2579  -23.8162  -54.7610 C.3       21 UNK        -0.1800 
    117 C         -3.2569  -23.2987  -56.2198 C.2       21 UNK         0.5000 
    118 O         -2.8620  -24.3122  -56.7979 O.2       21 UNK        -0.5000 
    119 N         -2.4397  -22.3417  -55.7588 N.am      22 UNK        -0.5000 
    120 CA        -0.9895  -22.3024  -56.0095 C.3       22 UNK         0.1400 
    121 C         -0.5783  -21.7783  -57.4195 C.2       22 UNK         0.5000 
    122 N         -1.4918  -21.3092  -58.2618 N.am      22 UNK        -0.7600 
    123 O          0.5986  -21.8190  -57.7683 O.2       22 UNK        -0.5000 
    124 C124       -0.2168  -21.5963  -54.8670 C.3       23 UNK        -0.0398 
    125 S125       -0.6944  -19.8553  -54.5786 S.3       23 UNK        -0.2404 
    126 C126       -0.4452  -19.7020  -52.7800 C.3       23 UNK        -0.0205 
    127 H127       -0.7853  -17.2157  -44.4669 H         1 UNK         0.0600 
    128 H128       -0.0657  -18.3658  -45.5850 H         1 UNK         0.0600 
    129 H129       -1.7549  -17.8987  -45.7704 H         1 UNK         0.0600 
    130 H130        1.2994  -17.3299  -47.0112 H         1 UNK         0.3000 
    131 H131        0.3501  -15.4702  -48.8589 H         1 UNK         0.0600 
    132 H132        3.3441  -15.9688  -48.4946 H         1 UNK         0.0800 
    133 H133        2.3071  -17.2617  -49.0166 H         1 UNK         0.0800 
    134 H134        4.4290  -16.9154  -50.8636 H         1 UNK         0.0800 
    135 H135        3.8774  -16.3963  -52.4361 H         1 UNK         0.0800 
    136 H136        0.9216  -17.4447  -52.1467 H         1 UNK         0.1150 
    137 H137        1.4567  -21.6674  -52.6163 H         1 UNK         0.1150 
    138 H138        4.7831  -19.2015  -51.5342 H         1 UNK         0.1150 
    139 H139        4.3237  -21.9618  -53.2519 H         1 UNK         0.0800 
    140 H140        5.1456  -21.5217  -51.7784 H         1 UNK         0.0800 
    141 H141        3.8183  -21.7994  -49.5199 H         1 UNK         0.0800 
    142 H142        4.6845  -23.2951  -49.3045 H         1 UNK         0.0800 
    143 H143        2.5085  -24.5105  -48.9403 H         1 UNK         0.0600 
    144 H144        3.6939  -22.6926  -47.1131 H         1 UNK         0.3000 
    145 H145        1.7443  -23.4285  -44.2536 H         1 UNK         0.0600 
    146 H146        3.9208  -24.1602  -43.3500 H         1 UNK         0.0600 
    147 H147        3.2946  -25.3805  -44.4458 H         1 UNK         0.0600 
    148 H148        4.5868  -24.3107  -44.9766 H         1 UNK         0.0600 
    149 H149        4.0760  -21.9120  -44.4097 H         1 UNK         0.3000 
    150 H150        4.0402  -19.7387  -44.1595 H         1 UNK         0.0600 
    151 H151        4.1737  -19.2748  -46.5938 H         1 UNK         0.0600 
    152 H152        3.8618  -17.7710  -45.7408 H         1 UNK         0.0600 
    153 H153        2.5567  -18.5900  -46.5968 H         1 UNK         0.0600 
    154 H154        1.2221  -19.1014  -43.9308 H         1 UNK         0.3000 
    155 H155        1.8430  -17.5052  -40.9259 H         1 UNK         0.0600 
    156 H156        0.6849  -15.8473  -43.2239 H         1 UNK         0.0600 
    157 H157        0.3738  -15.6003  -41.5039 H         1 UNK         0.0600 
    158 H158        1.9872  -15.3667  -42.1419 H         1 UNK         0.0600 
    159 H159       -0.6527  -17.7784  -42.2099 H         1 UNK         0.3000 
    160 H160       -1.3328  -20.9639  -42.1226 H         1 UNK         0.0600 
    161 H161       -1.4277  -20.0672  -39.1976 H         1 UNK         0.0600 
    162 H162       -0.7580  -21.5789  -39.8011 H         1 UNK         0.0600 
    163 H163       -2.4813  -21.2784  -39.9276 H         1 UNK         0.0600 
    164 H164       -2.6302  -18.6311  -40.8278 H         1 UNK         0.3000 
    165 H165       -4.2153  -17.5592  -43.7323 H         1 UNK         0.0600 
    166 H166       -6.3700  -17.9817  -42.6132 H         1 UNK         0.0600 
    167 H167       -5.7174  -19.5141  -43.1707 H         1 UNK         0.0600 
    168 H168       -5.6111  -19.0909  -41.4699 H         1 UNK         0.0600 
    169 H169       -4.6676  -16.9038  -40.9965 H         1 UNK         0.3000 
    170 H170       -3.8946  -14.6669  -40.4129 H         1 UNK         0.0600 
    171 H171       -1.3313  -16.1623  -39.5511 H         1 UNK         0.0600 
    172 H172       -2.2434  -15.0518  -38.5321 H         1 UNK         0.0600 
    173 H173       -2.9633  -16.5697  -39.0323 H         1 UNK         0.0600 
    174 H174       -1.5469  -14.1997  -41.9232 H         1 UNK         0.3000 
    175 H175       -1.2558  -10.8116  -41.0630 H         1 UNK         0.0600 
    176 H176        1.1970  -11.2348  -41.0987 H         1 UNK         0.0600 
    177 H177        0.9300  -12.9470  -40.7698 H         1 UNK         0.0600 
    178 H178        0.5114  -11.7382  -39.5616 H         1 UNK         0.0600 
    179 H179        0.0082  -12.5223  -43.0118 H         1 UNK         0.3000 
    180 H180       -2.2455  -13.0448  -45.1826 H         1 UNK         0.0600 
    181 H181       -1.4128  -10.1748  -45.8500 H         1 UNK         0.0600 
    182 H182       -3.0420  -10.8309  -45.8853 H         1 UNK         0.0600 
    183 H183       -1.8474  -11.4066  -47.0351 H         1 UNK         0.0600 
    184 H184       -0.2136  -13.6673  -45.6380 H         1 UNK         0.3000 
    185 H185        2.7971  -12.1627  -46.3468 H         1 UNK         0.0600 
    186 H186        3.3146  -12.1841  -43.9136 H         1 UNK         0.0600 
    187 H187        2.5076  -13.7349  -43.7320 H         1 UNK         0.0600 
    188 H188        3.9793  -13.6093  -44.6949 H         1 UNK         0.0600 
    189 H189        2.0369  -14.9130  -45.8476 H         1 UNK         0.3000 
    190 H190        1.7395  -21.1104  -48.1502 H         1 UNK         0.3000 
    191 H191       -0.5045  -20.9211  -49.9536 H         1 UNK         0.0600 
    192 H192       -0.8710  -18.7551  -48.7023 H         1 UNK         0.0600 
    193 H193        0.4782  -19.1893  -47.6584 H         1 UNK         0.0600 
    194 H194        0.7381  -18.9254  -49.3830 H         1 UNK         0.0600 
    195 H195       -0.1222  -21.6561  -46.4680 H         1 UNK         0.3000 
    196 H196       -2.8350  -21.7182  -45.7364 H         1 UNK         0.0600 
    197 H197       -2.0789  -23.0123  -43.8153 H         1 UNK         0.0600 
    198 H198       -0.8491  -21.8097  -44.1795 H         1 UNK         0.0600 
    199 H199       -0.5985  -23.4923  -44.6328 H         1 UNK         0.0600 
    200 H200       -0.7483  -24.3603  -46.9976 H         1 UNK         0.3000 
    201 H201       -2.7256  -26.3909  -47.1278 H         1 UNK         0.0600 
    202 H202       -0.2962  -26.8572  -47.2256 H         1 UNK         0.0600 
    203 H203       -0.1596  -26.0044  -48.7611 H         1 UNK         0.0600 
    204 H204       -1.0844  -27.4987  -48.6595 H         1 UNK         0.0600 
    205 H205       -1.7460  -23.9029  -49.4913 H         1 UNK         0.3000 
    206 H206       -3.6654  -24.7099  -51.5342 H         1 UNK         0.0600 
    207 H207       -1.4712  -23.7131  -52.1272 H         1 UNK         0.0600 
    208 H208       -2.7821  -22.6898  -52.6988 H         1 UNK         0.0600 
    209 H209       -1.8945  -22.2487  -51.2452 H         1 UNK         0.0600 
    210 H210       -5.0677  -24.5052  -49.2656 H         1 UNK         0.3000 
    211 H211       -6.8900  -23.7244  -48.2743 H         1 UNK         0.0600 
    212 H212       -7.5138  -22.7287  -51.0988 H         1 UNK         0.0600 
    213 H213       -8.6999  -23.0220  -49.8335 H         1 UNK         0.0600 
    214 H214       -7.7752  -24.3597  -50.4927 H         1 UNK         0.0600 
    215 H215       -4.8551  -22.0657  -47.6387 H         1 UNK         0.3000 
    216 H216       -4.3501  -20.1738  -46.5927 H         1 UNK         0.0600 
    217 H217       -6.1233  -18.8262  -45.5338 H         1 UNK         0.0600 
    218 H218       -6.4622  -20.5408  -45.3444 H         1 UNK         0.0600 
    219 H219       -7.3544  -19.5868  -46.5283 H         1 UNK         0.0600 
    220 H220       -3.5673  -20.0101  -48.9355 H         1 UNK         0.3000 
    221 H221       -2.7353  -18.7236  -50.5138 H         1 UNK         0.0600 
    222 H222       -3.8826  -16.2630  -49.0956 H         1 UNK         0.0600 
    223 H223       -2.3971  -17.0639  -48.6102 H         1 UNK         0.0600 
    224 H224       -2.5134  -16.3177  -50.1953 H         1 UNK         0.0600 
    225 H225       -5.0608  -19.9943  -51.1872 H         1 UNK         0.3000 
    226 H226       -6.7435  -18.1827  -52.7857 H         1 UNK         0.0600 
    227 H227       -7.6479  -20.2696  -51.6426 H         1 UNK         0.0600 
    228 H228       -7.9271  -20.2501  -53.3739 H         1 UNK         0.0600 
    229 H229       -6.6397  -21.2460  -52.7113 H         1 UNK         0.0600 
    230 H230       -7.0608  -19.0053  -55.1391 H         1 UNK         0.3000 
    231 H231       -4.6732  -18.6284  -56.6479 H         1 UNK         0.0600 
    232 H232       -7.4671  -19.5593  -57.5040 H         1 UNK         0.0600 
    233 H233       -6.2118  -18.9673  -58.5852 H         1 UNK         0.0600 
    234 H234       -6.9224  -17.8841  -57.4016 H         1 UNK         0.0600 
    235 H235       -5.7118  -21.4307  -55.1290 H         1 UNK         0.3000 
    236 H236       -5.2707  -23.5422  -56.8913 H         1 UNK         0.0600 
    237 H237       -6.3451  -23.7930  -54.6837 H         1 UNK         0.0600 
    238 H238       -4.9566  -24.8646  -54.7664 H         1 UNK         0.0600 
    239 H239       -4.8495  -23.3609  -53.8582 H         1 UNK         0.0600 
    240 H240       -2.8366  -21.5279  -55.3085 H         1 UNK         0.3000 
    241 H241       -0.6386  -23.3361  -55.9982 H         1 UNK         0.0600 
    242 H242       -2.4757  -21.2658  -58.0130 H         1 UNK         0.3800 
    243 H243       -1.1999  -20.9850  -59.1698 H         1 UNK         0.3800 
    244 H244       -0.3786  -22.1613  -53.9492 H         1 UNK         0.0800 
    245 H245        0.8583  -21.6338  -55.0505 H         1 UNK         0.0800 
    246 H246       -1.0000  -18.8300  -52.4308 H         1 UNK         0.0800 
    247 H247       -0.8861  -20.5572  -52.2743 H         1 UNK         0.0800 
@<TRIPOS>BOND
     1    1    2 1    
     2    1  127 1    
     3    1  128 1    
     4    1  129 1    
     5    2    3 2    
     6    2    4 am   BACKBONE|DICT|INTERRES
     7    4    5 1    
     8    4  130 1    
     9    5    6 1    
    10    5   65 1    
    11    5  131 1    
    12    6    7 1    
    13    6  132 1    
    14    6  133 1    
    15    7    8 1    
    16    8    9 1    
    17    8  134 1    
    18    8  135 1    
    19    9   10 ar   
    20    9   14 ar   
    21   10   11 ar   
    22   10  136 1    
    23   11   12 ar   
    24   11  126 1    
    25   12   13 ar   
    26   12  137 1    
    27   13   14 ar   
    28   13   15 1    
    29   14  138 1    
    30   15   16 1    
    31   15  139 1    
    32   15  140 1    
    33   16   17 1    
    34   17   18 1    
    35   17  141 1    
    36   17  142 1    
    37   18   19 1    
    38   18   67 1    
    39   18  143 1    
    40   19   20 am   BACKBONE|DICT|INTERRES
    41   19  144 1    
    42   20   21 2    
    43   20   22 1    
    44   22   23 1    
    45   22   24 1    
    46   22  145 1    
    47   23  146 1    
    48   23  147 1    
    49   23  148 1    
    50   24   25 am   BACKBONE|DICT|INTERRES
    51   24  149 1    
    52   25   26 2    
    53   25   27 1    
    54   27   28 1    
    55   27   29 1    
    56   27  150 1    
    57   28  151 1    
    58   28  152 1    
    59   28  153 1    
    60   29   30 am   BACKBONE|DICT|INTERRES
    61   29  154 1    
    62   30   31 2    
    63   30   32 1    
    64   32   33 1    
    65   32   34 1    
    66   32  155 1    
    67   33  156 1    
    68   33  157 1    
    69   33  158 1    
    70   34   35 am   BACKBONE|DICT|INTERRES
    71   34  159 1    
    72   35   36 2    
    73   35   37 1    
    74   37   38 1    
    75   37   39 1    
    76   37  160 1    
    77   38  161 1    
    78   38  162 1    
    79   38  163 1    
    80   39   40 am   BACKBONE|DICT|INTERRES
    81   39  164 1    
    82   40   41 2    
    83   40   42 1    
    84   42   43 1    
    85   42   44 1    
    86   42  165 1    
    87   43  166 1    
    88   43  167 1    
    89   43  168 1    
    90   44   45 am   BACKBONE|DICT|INTERRES
    91   44  169 1    
    92   45   46 2    
    93   45   47 1    
    94   47   48 1    
    95   47   49 1    
    96   47  170 1    
    97   48  171 1    
    98   48  172 1    
    99   48  173 1    
   100   49   50 am   BACKBONE|DICT|INTERRES
   101   49  174 1    
   102   50   51 2    
   103   50   52 1    
   104   52   53 1    
   105   52   54 1    
   106   52  175 1    
   107   53  176 1    
   108   53  177 1    
   109   53  178 1    
   110   54   55 am   BACKBONE|DICT|INTERRES
   111   54  179 1    
   112   55   56 2    
   113   55   57 1    
   114   57   58 1    
   115   57   59 1    
   116   57  180 1    
   117   58  181 1    
   118   58  182 1    
   119   58  183 1    
   120   59   60 am   BACKBONE|DICT|INTERRES
   121   59  184 1    
   122   60   61 2    
   123   60   62 1    
   124   62   63 1    
   125   62   64 1    
   126   62  185 1    
   127   63  186 1    
   128   63  187 1    
   129   63  188 1    
   130   64   65 am   BACKBONE|DICT|INTERRES
   131   64  189 1    
   132   65   66 2    
   133   67   68 2    
   134   67   69 am   BACKBONE|DICT|INTERRES
   135   69   70 1    
   136   69  190 1    
   137   70   71 1    
   138   70   72 1    
   139   70  191 1    
   140   71  192 1    
   141   71  193 1    
   142   71  194 1    
   143   72   73 2    
   144   72   74 am   BACKBONE|DICT|INTERRES
   145   74   75 1    
   146   74  195 1    
   147   75   76 1    
   148   75   77 1    
   149   75  196 1    
   150   76  197 1    
   151   76  198 1    
   152   76  199 1    
   153   77   78 2    
   154   77   79 am   BACKBONE|DICT|INTERRES
   155   79   80 1    
   156   79  200 1    
   157   80   81 1    
   158   80   82 1    
   159   80  201 1    
   160   81  202 1    
   161   81  203 1    
   162   81  204 1    
   163   82   83 2    
   164   82   84 am   BACKBONE|DICT|INTERRES
   165   84   85 1    
   166   84  205 1    
   167   85   86 1    
   168   85   87 1    
   169   85  206 1    
   170   86  207 1    
   171   86  208 1    
   172   86  209 1    
   173   87   88 2    
   174   87   89 am   BACKBONE|DICT|INTERRES
   175   89   90 1    
   176   89  210 1    
   177   90   91 1    
   178   90   92 1    
   179   90  211 1    
   180   91  212 1    
   181   91  213 1    
   182   91  214 1    
   183   92   93 2    
   184   92   94 am   BACKBONE|DICT|INTERRES
   185   94   95 1    
   186   94  215 1    
   187   95   96 1    
   188   95   97 1    
   189   95  216 1    
   190   96  217 1    
   191   96  218 1    
   192   96  219 1    
   193   97   98 2    
   194   97   99 am   BACKBONE|DICT|INTERRES
   195   99  100 1    
   196   99  220 1    
   197  100  101 1    
   198  100  102 1    
   199  100  221 1    
   200  101  222 1    
   201  101  223 1    
   202  101  224 1    
   203  102  103 2    
   204  102  104 am   BACKBONE|DICT|INTERRES
   205  104  105 1    
   206  104  225 1    
   207  105  106 1    
   208  105  107 1    
   209  105  226 1    
   210  106  227 1    
   211  106  228 1    
   212  106  229 1    
   213  107  108 2    
   214  107  109 am   BACKBONE|DICT|INTERRES
   215  109  110 1    
   216  109  230 1    
   217  110  111 1    
   218  110  112 1    
   219  110  231 1    
   220  111  232 1    
   221  111  233 1    
   222  111  234 1    
   223  112  113 2    
   224  112  114 am   BACKBONE|DICT|INTERRES
   225  114  115 1    
   226  114  235 1    
   227  115  116 1    
   228  115  117 1    
   229  115  236 1    
   230  116  237 1    
   231  116  238 1    
   232  116  239 1    
   233  117  118 2    
   234  117  119 am   BACKBONE|DICT|INTERRES
   235  119  120 1    
   236  119  240 1    
   237  120  121 1    
   238  120  124 1    
   239  120  241 1    
   240  121  122 am   BACKBONE|DICT|INTERRES
   241  121  123 2    
   242  122  242 1    
   243  122  243 1    
   244  124  125 1    
   245  124  244 1    
   246  124  245 1    
   247  125  126 1    
   248  126  246 1    
   249  126  247 1    
@<TRIPOS>SUBSTRUCTURE
     1 UNK         1 GROUP             0       ****    0 ROOT    
