@<TRIPOS>MOLECULE
3R540
247   249    1
SMALL
USER_CHARGES


@<TRIPOS>ATOM
      1 CA         -5.8265  -15.5653  -49.1011 C.3       0 UNK        -0.1800 
      2 C          -4.6998  -14.6719  -48.6046 C.2       0 UNK         0.5000 
      3 O          -4.9206  -13.8170  -47.7471 O.2       0 UNK        -0.5000 
      4 N          -3.4846  -14.8758  -49.1272 N.am      1 UNK        -0.5000 
      5 CA         -2.2583  -14.1194  -48.8311 C.3       1 UNK         0.1400 
      6 C6         -1.2559  -14.1829  -50.0140 C.3       23 UNK        -0.0398 
      7 S7         -0.7864  -15.8804  -50.4995 S.3       23 UNK        -0.2404 
      8 C8          0.9188  -15.6125  -51.0664 C.3       23 UNK        -0.0205 
      9 C9          1.5628  -16.9274  -51.4705 C.ar      23 UNK        -0.0193 
     10 C10         1.4044  -17.4227  -52.7667 C.ar      23 UNK        -0.1150 
     11 C11         1.9819  -18.6411  -53.1336 C.ar      23 UNK        -0.0193 
     12 C12         2.7040  -19.3738  -52.1878 C.ar      23 UNK        -0.1150 
     13 C13         2.8647  -18.8966  -50.8830 C.ar      23 UNK        -0.0193 
     14 C14         2.3087  -17.6563  -50.5415 C.ar      23 UNK        -0.1150 
     15 C15         3.6367  -19.7527  -49.8763 C.3       23 UNK        -0.0205 
     16 S16         3.2085  -19.4872  -48.1182 S.3       23 UNK        -0.2404 
     17 C17         1.4052  -19.7761  -48.1164 C.3       23 UNK        -0.0398 
     18 CA          0.9958  -21.1613  -47.5599 C.3       11 UNK         0.1400 
     19 N           1.4776  -21.4182  -46.2039 N.am      11 UNK        -0.5000 
     20 C           2.2829  -22.4389  -45.8838 C.2       10 UNK         0.5000 
     21 O           2.6631  -23.2921  -46.6865 O.2       10 UNK        -0.5000 
     22 CA          2.7842  -22.5271  -44.4354 C.3       10 UNK         0.1400 
     23 CB          4.1745  -21.8823  -44.3233 C.3       10 UNK        -0.1800 
     24 N           1.8844  -21.9257  -43.4505 N.am      10 UNK        -0.5000 
     25 C           0.7753  -22.5223  -42.9934 C.2       9 UNK         0.5000 
     26 O           0.3094  -23.5570  -43.4720 O.2       9 UNK        -0.5000 
     27 CA          0.0942  -21.8779  -41.7724 C.3       9 UNK         0.1400 
     28 CB          0.9600  -22.0406  -40.5129 C.3       9 UNK        -0.1800 
     29 N          -0.2051  -20.4634  -41.9681 N.am      9 UNK        -0.5000 
     30 C          -1.1776  -20.0048  -42.7655 C.2       8 UNK         0.5000 
     31 O          -1.9201  -20.7259  -43.4294 O.2       8 UNK        -0.5000 
     32 CA         -1.3080  -18.4753  -42.8756 C.3       8 UNK         0.1400 
     33 CB         -1.9488  -17.8855  -41.6097 C.3       8 UNK        -0.1800 
     34 N          -0.0217  -17.8331  -43.1350 N.am      8 UNK        -0.5000 
     35 C           0.7576  -18.0957  -44.1934 C.2       7 UNK         0.5000 
     36 O           0.4390  -18.8654  -45.1004 O.2       7 UNK        -0.5000 
     37 CA          2.1375  -17.4178  -44.2201 C.3       7 UNK         0.1400 
     38 CB          2.0396  -16.0195  -44.8494 C.3       7 UNK        -0.1800 
     39 N           2.7378  -17.3200  -42.8864 N.am      7 UNK        -0.5000 
     40 C           3.1522  -18.3708  -42.1626 C.2       6 UNK         0.5000 
     41 O           3.0824  -19.5359  -42.5463 O.2       6 UNK        -0.5000 
     42 CA          3.6822  -18.0767  -40.7488 C.3       6 UNK         0.1400 
     43 CB          5.0810  -17.4440  -40.8055 C.3       6 UNK        -0.1800 
     44 N           2.7810  -17.2078  -39.9948 N.am      6 UNK        -0.5000 
     45 C           1.5301  -17.5336  -39.6382 C.2       5 UNK         0.5000 
     46 O           1.0244  -18.6376  -39.8433 O.2       5 UNK        -0.5000 
     47 CA          0.6879  -16.4164  -38.9896 C.3       5 UNK         0.1400 
     48 CB          0.8461  -16.4412  -37.4623 C.3       5 UNK        -0.1800 
     49 N           1.0088  -15.0736  -39.4896 N.am      5 UNK        -0.5000 
     50 C           0.8989  -14.6926  -40.7688 C.2       4 UNK         0.5000 
     51 O           0.5174  -15.4407  -41.6742 O.2       4 UNK        -0.5000 
     52 CA          1.3320  -13.2597  -41.1044 C.3       4 UNK         0.1400 
     53 CB          2.8633  -13.1148  -41.0486 C.3       4 UNK        -0.1800 
     54 N           0.8626  -12.9658  -42.4501 N.am      4 UNK        -0.5000 
     55 C           0.5685  -11.7655  -42.9541 C.2       3 UNK         0.5000 
     56 O           0.7308  -10.7082  -42.3434 O.2       3 UNK        -0.5000 
     57 CA         -0.0076  -11.7401  -44.3849 C.3       3 UNK         0.1400 
     58 CB          1.0726  -11.3115  -45.3900 C.3       3 UNK        -0.1800 
     59 N          -0.5731  -13.0190  -44.8286 N.am      3 UNK        -0.5000 
     60 C          -1.6852  -13.5909  -44.3493 C.2       2 UNK         0.5000 
     61 O          -2.3600  -13.1064  -43.4396 O.2       2 UNK        -0.5000 
     62 CA         -2.1243  -14.9000  -45.0400 C.3       2 UNK         0.1400 
     63 CB         -3.3316  -15.5584  -44.3493 C.3       2 UNK        -0.1800 
     64 N          -2.4749  -14.6609  -46.4386 N.am      2 UNK        -0.5000 
     65 C          -1.6282  -14.4678  -47.4566 C.2       1 UNK         0.5000 
     66 O          -0.4041  -14.5266  -47.3232 O.2       1 UNK        -0.5000 
     67 C          -0.5267  -21.3318  -47.6097 C.2       11 UNK         0.5000 
     68 O          -1.0054  -22.2178  -48.3166 O.2       11 UNK        -0.5000 
     69 N          -1.2653  -20.4712  -46.8932 N.am      12 UNK        -0.5000 
     70 CA         -2.7112  -20.3157  -47.0722 C.3       12 UNK         0.1400 
     71 CB         -3.2167  -19.0679  -46.3351 C.3       12 UNK        -0.1800 
     72 C          -3.5192  -21.5660  -46.6925 C.2       12 UNK         0.5000 
     73 O          -4.3375  -22.0172  -47.4921 O.2       12 UNK        -0.5000 
     74 N          -3.2482  -22.1274  -45.5080 N.am      13 UNK        -0.5000 
     75 CA         -3.8642  -23.3656  -45.0307 C.3       13 UNK         0.1400 
     76 CB         -3.6011  -23.5192  -43.5252 C.3       13 UNK        -0.1800 
     77 C          -3.3694  -24.6082  -45.7928 C.2       13 UNK         0.5000 
     78 O          -4.1444  -25.5441  -45.9895 O.2       13 UNK        -0.5000 
     79 N          -2.0966  -24.5925  -46.2120 N.am      14 UNK        -0.5000 
     80 CA         -1.4423  -25.6861  -46.9299 C.3       14 UNK         0.1400 
     81 CB          0.0764  -25.4607  -46.9253 C.3       14 UNK        -0.1800 
     82 C          -1.9679  -25.8468  -48.3669 C.2       14 UNK         0.5000 
     83 O          -2.2837  -26.9632  -48.7796 O.2       14 UNK        -0.5000 
     84 N          -2.0686  -24.7266  -49.0941 N.am      15 UNK        -0.5000 
     85 CA         -2.5776  -24.6657  -50.4658 C.3       15 UNK         0.1400 
     86 CB         -1.9158  -23.4764  -51.1779 C.3       15 UNK        -0.1800 
     87 C          -4.1149  -24.5576  -50.5280 C.2       15 UNK         0.5000 
     88 O          -4.6808  -24.6267  -51.6186 O.2       15 UNK        -0.5000 
     89 N          -4.7599  -24.3606  -49.3701 N.am      16 UNK        -0.5000 
     90 CA         -6.1971  -24.2270  -49.1003 C.3       16 UNK         0.1400 
     91 CB         -6.9789  -25.4705  -49.5638 C.3       16 UNK        -0.1800 
     92 C          -6.8363  -22.9308  -49.6359 C.2       16 UNK         0.5000 
     93 O          -7.6240  -22.3127  -48.9185 O.2       16 UNK        -0.5000 
     94 N          -6.4914  -22.5376  -50.8672 N.am      17 UNK        -0.5000 
     95 CA         -6.9675  -21.3208  -51.5313 C.3       17 UNK         0.1400 
     96 CB         -7.5617  -21.6993  -52.8980 C.3       17 UNK        -0.1800 
     97 C          -5.8560  -20.2621  -51.6746 C.2       17 UNK         0.5000 
     98 O          -6.0845  -19.2346  -52.3145 O.2       17 UNK        -0.5000 
     99 N          -4.6770  -20.5171  -51.0849 N.am      18 UNK        -0.5000 
    100 CA        -3.4889  -19.6567  -51.0965 C.3       18 UNK         0.1400 
    101 CB        -3.7536  -18.3913  -50.2494 C.3       18 UNK        -0.1800 
    102 C         -3.0144  -19.3660  -52.5391 C.2       18 UNK         0.5000 
    103 O         -2.8565  -20.3058  -53.3194 O.2       18 UNK        -0.5000 
    104 N         -2.8389  -18.0847  -52.8911 N.am      19 UNK        -0.5000 
    105 CA        -2.4305  -17.6128  -54.2170 C.3       19 UNK         0.1400 
    106 CB        -2.2781  -16.0851  -54.1798 C.3       19 UNK        -0.1800 
    107 C         -3.3693  -18.0323  -55.3682 C.2       19 UNK         0.5000 
    108 O         -2.9081  -18.1541  -56.5042 O.2       19 UNK        -0.5000 
    109 N         -4.6524  -18.2845  -55.0684 N.am      20 UNK        -0.5000 
    110 CA        -5.6283  -18.7794  -56.0419 C.3       20 UNK         0.1400 
    111 CB        -7.0520  -18.5481  -55.5164 C.3       20 UNK        -0.1800 
    112 C         -5.4073  -20.2578  -56.4213 C.2       20 UNK         0.5000 
    113 O         -5.8283  -20.6608  -57.5062 O.2       20 UNK        -0.5000 
    114 N         -4.7356  -21.0319  -55.5544 N.am      21 UNK        -0.5000 
    115 CA        -4.2706  -22.3842  -55.8688 C.3       21 UNK         0.1400 
    116 CB        -4.1471  -23.2155  -54.5842 C.3       21 UNK        -0.1800 
    117 C         -2.9380  -22.3596  -56.6391 C.2       21 UNK         0.5000 
    118 O         -2.7112  -23.2419  -57.4684 O.2       21 UNK        -0.5000 
    119 N         -2.0928  -21.3517  -56.3745 N.am      22 UNK        -0.5000 
    120 CA        -0.8612  -21.0824  -57.1358 C.3       22 UNK         0.1400 
    121 C         -1.1481  -20.6773  -58.6088 C.2       22 UNK         0.5000 
    122 N         -2.0744  -19.7556  -58.8462 N.am      22 UNK        -0.7600 
    123 O         -0.5284  -21.1959  -59.5334 O.2       22 UNK        -0.5000 
    124 C124        0.0395  -20.0057  -56.4796 C.3       23 UNK        -0.0398 
    125 S125        0.4469  -20.3073  -54.7298 S.3       23 UNK        -0.2404 
    126 C126        1.8417  -19.1518  -54.5572 C.3       23 UNK        -0.0205 
    127 H127       -6.7927  -15.0869  -48.9400 H         1 UNK         0.0600 
    128 H128       -5.7276  -15.7660  -50.1677 H         1 UNK         0.0600 
    129 H129       -5.8212  -16.5141  -48.5646 H         1 UNK         0.0600 
    130 H130       -3.3597  -15.6180  -49.7988 H         1 UNK         0.3000 
    131 H131       -2.5484  -13.0704  -48.7414 H         1 UNK         0.0600 
    132 H132       -0.3618  -13.5994  -49.7879 H         1 UNK         0.0800 
    133 H133       -1.6993  -13.7038  -50.8879 H         1 UNK         0.0800 
    134 H134        0.9191  -14.9191  -51.9088 H         1 UNK         0.0800 
    135 H135        1.4978  -15.1399  -50.2712 H         1 UNK         0.0800 
    136 H136        0.8317  -16.8587  -53.4893 H         1 UNK         0.1150 
    137 H137        3.1390  -20.3223  -52.4708 H         1 UNK         0.1150 
    138 H138        2.4282  -17.2616  -49.5430 H         1 UNK         0.1150 
    139 H139        3.4840  -20.8097  -50.1003 H         1 UNK         0.0800 
    140 H140        4.7024  -19.5606  -50.0055 H         1 UNK         0.0800 
    141 H141        1.0140  -19.6668  -49.1282 H         1 UNK         0.0800 
    142 H142        0.9537  -18.9637  -47.5483 H         1 UNK         0.0800 
    143 H143        1.4045  -21.9006  -48.2521 H         1 UNK         0.0600 
    144 H144        1.2060  -20.7470  -45.4948 H         1 UNK         0.3000 
    145 H145        2.8917  -23.5865  -44.1922 H         1 UNK         0.0600 
    146 H146        4.5603  -21.9439  -43.3056 H         1 UNK         0.0600 
    147 H147        4.8907  -22.3852  -44.9742 H         1 UNK         0.0600 
    148 H148        4.1539  -20.8312  -44.6139 H         1 UNK         0.0600 
    149 H149        2.2043  -21.0581  -43.0233 H         1 UNK         0.3000 
    150 H150       -0.8466  -22.4054  -41.6007 H         1 UNK         0.0600 
    151 H151        1.2054  -23.0889  -40.3381 H         1 UNK         0.0600 
    152 H152        0.4375  -21.6761  -39.6282 H         1 UNK         0.0600 
    153 H153        1.8985  -21.4901  -40.5933 H         1 UNK         0.0600 
    154 H154        0.3565  -19.7994  -41.4455 H         1 UNK         0.3000 
    155 H155       -1.9548  -18.2407  -43.7197 H         1 UNK         0.0600 
    156 H156       -1.4365  -18.2096  -40.7050 H         1 UNK         0.0600 
    157 H157       -2.9885  -18.2023  -41.5224 H         1 UNK         0.0600 
    158 H158       -1.9377  -16.7962  -41.6219 H         1 UNK         0.0600 
    159 H159        0.2897  -17.1375  -42.4626 H         1 UNK         0.3000 
    160 H160        2.7932  -18.0288  -44.8445 H         1 UNK         0.0600 
    161 H161        3.0215  -15.5534  -44.9311 H         1 UNK         0.0600 
    162 H162        1.4006  -15.3566  -44.2670 H         1 UNK         0.0600 
    163 H163        1.6219  -16.0744  -45.8560 H         1 UNK         0.0600 
    164 H164        2.7734  -16.4014  -42.4717 H         1 UNK         0.3000 
    165 H165        3.7589  -19.0274  -40.2166 H         1 UNK         0.0600 
    166 H166        5.4944  -17.3136  -39.8052 H         1 UNK         0.0600 
    167 H167        5.7729  -18.0782  -41.3615 H         1 UNK         0.0600 
    168 H168        5.0665  -16.4680  -41.2920 H         1 UNK         0.0600 
    169 H169        3.1133  -16.2799  -39.7797 H         1 UNK         0.3000 
    170 H170       -0.3590  -16.6146  -39.2260 H         1 UNK         0.0600 
    171 H171        0.5923  -17.4229  -37.0596 H         1 UNK         0.0600 
    172 H172        1.8694  -16.2164  -37.1591 H         1 UNK         0.0600 
    173 H173        0.1866  -15.7160  -36.9852 H         1 UNK         0.0600 
    174 H174        1.3344  -14.4060  -38.8052 H         1 UNK         0.3000 
    175 H175        0.8620  -12.5786  -40.3921 H         1 UNK         0.0600 
    176 H176        3.3572  -13.7974  -41.7415 H         1 UNK         0.0600 
    177 H177        3.1724  -12.1011  -41.3039 H         1 UNK         0.0600 
    178 H178        3.2451  -13.3248  -40.0490 H         1 UNK         0.0600 
    179 H179        0.6299  -13.7906  -42.9872 H         1 UNK         0.3000 
    180 H180       -0.8059  -10.9953  -44.4006 H         1 UNK         0.0600 
    181 H181        1.8896  -12.0330  -45.4322 H         1 UNK         0.0600 
    182 H182        1.5003  -10.3455  -45.1184 H         1 UNK         0.0600 
    183 H183        0.6603  -11.2122  -46.3944 H         1 UNK         0.0600 
    184 H184       -0.1224  -13.4672  -45.6200 H         1 UNK         0.3000 
    185 H185       -1.2858  -15.5982  -44.9941 H         1 UNK         0.0600 
    186 H186       -3.1344  -15.7312  -43.2922 H         1 UNK         0.0600 
    187 H187       -4.2229  -14.9332  -44.4160 H         1 UNK         0.0600 
    188 H188       -3.5670  -16.5225  -44.7991 H         1 UNK         0.0600 
    189 H189       -3.4593  -14.5096  -46.6345 H         1 UNK         0.3000 
    190 H190       -0.7978  -19.8088  -46.2805 H         1 UNK         0.3000 
    191 H191       -2.8698  -20.1501  -48.1377 H         1 UNK         0.0600 
    192 H192       -3.2302  -19.2179  -45.2575 H         1 UNK         0.0600 
    193 H193       -4.2374  -18.8305  -46.6368 H         1 UNK         0.0600 
    194 H194       -2.6009  -18.1948  -46.5536 H         1 UNK         0.0600 
    195 H195       -2.6031  -21.6619  -44.8720 H         1 UNK         0.3000 
    196 H196       -4.9435  -23.2910  -45.1807 H         1 UNK         0.0600 
    197 H197       -2.5340  -23.5820  -43.3089 H         1 UNK         0.0600 
    198 H198       -4.0702  -24.4234  -43.1354 H         1 UNK         0.0600 
    199 H199       -4.0057  -22.6752  -42.9664 H         1 UNK         0.0600 
    200 H200       -1.5381  -23.7747  -46.0162 H         1 UNK         0.3000 
    201 H201       -1.6468  -26.6143  -46.3919 H         1 UNK         0.0600 
    202 H202        0.3493  -24.5491  -47.4577 H         1 UNK         0.0600 
    203 H203        0.5959  -26.2891  -47.4081 H         1 UNK         0.0600 
    204 H204        0.4625  -25.3818  -45.9086 H         1 UNK         0.0600 
    205 H205       -1.7533  -23.8439  -48.6945 H         1 UNK         0.3000 
    206 H206       -2.2909  -25.5769  -50.9948 H         1 UNK         0.0600 
    207 H207       -2.1488  -23.4785  -52.2413 H         1 UNK         0.0600 
    208 H208       -2.2500  -22.5251  -50.7659 H         1 UNK         0.0600 
    209 H209       -0.8300  -23.5151  -51.0887 H         1 UNK         0.0600 
    210 H210       -4.1770  -24.2435  -48.5528 H         1 UNK         0.3000 
    211 H211       -6.2771  -24.1824  -48.0128 H         1 UNK         0.0600 
    212 H212       -6.9712  -25.5788  -50.6486 H         1 UNK         0.0600 
    213 H213       -8.0222  -25.4103  -49.2519 H         1 UNK         0.0600 
    214 H214       -6.5623  -26.3804  -49.1318 H         1 UNK         0.0600 
    215 H215       -5.8582  -23.1371  -51.3905 H         1 UNK         0.3000 
    216 H216       -7.7625  -20.8578  -50.9440 H         1 UNK         0.0600 
    217 H217       -8.1098  -20.8608  -53.3270 H         1 UNK         0.0600 
    218 H218       -8.2647  -22.5277  -52.8100 H         1 UNK         0.0600 
    219 H219       -6.7914  -21.9855  -53.6120 H         1 UNK         0.0600 
    220 H220       -4.5894  -21.3885  -50.5834 H         1 UNK         0.3000 
    221 H221       -2.6882  -20.2186  -50.6153 H         1 UNK         0.0600 
    222 H222       -4.4316  -17.6992  -50.7484 H         1 UNK         0.0600 
    223 H223       -4.2077  -18.6436  -49.2918 H         1 UNK         0.0600 
    224 H224       -2.8246  -17.8669  -50.0321 H         1 UNK         0.0600 
    225 H225       -2.9953  -17.3719  -52.1952 H         1 UNK         0.3000 
    226 H226       -1.4506  -18.0431  -54.4263 H         1 UNK         0.0600 
    227 H227       -1.5257  -15.7798  -53.4531 H         1 UNK         0.0600 
    228 H228       -1.9621  -15.6997  -55.1501 H         1 UNK         0.0600 
    229 H229       -3.2164  -15.5935  -53.9203 H         1 UNK         0.0600 
    230 H230       -4.9633  -18.2101  -54.1076 H         1 UNK         0.3000 
    231 H231       -5.5187  -18.1931  -56.9569 H         1 UNK         0.0600 
    232 H232       -7.2214  -17.4973  -55.2813 H         1 UNK         0.0600 
    233 H233       -7.2502  -19.1291  -54.6184 H         1 UNK         0.0600 
    234 H234       -7.7935  -18.8385  -56.2617 H         1 UNK         0.0600 
    235 H235       -4.3810  -20.6232  -54.6971 H         1 UNK         0.3000 
    236 H236       -5.0054  -22.8797  -56.5070 H         1 UNK         0.0600 
    237 H237       -3.6854  -24.1835  -54.7828 H         1 UNK         0.0600 
    238 H238       -3.5406  -22.7118  -53.8353 H         1 UNK         0.0600 
    239 H239       -5.1227  -23.4157  -54.1452 H         1 UNK         0.0600 
    240 H240       -2.3250  -20.6962  -55.6418 H         1 UNK         0.3000 
    241 H241       -0.2909  -22.0131  -57.1604 H         1 UNK         0.0600 
    242 H242       -2.2749  -19.4827  -59.7950 H         1 UNK         0.3800 
    243 H243       -2.5273  -19.2734  -58.0756 H         1 UNK         0.3800 
    244 H244        0.9765  -19.9329  -57.0353 H         1 UNK         0.0800 
    245 H245       -0.4240  -19.0208  -56.5456 H         1 UNK         0.0800 
    246 H246        2.7609  -19.6486  -54.8713 H         1 UNK         0.0800 
    247 H247        1.7083  -18.3045  -55.2319 H         1 UNK         0.0800 
@<TRIPOS>BOND
     1    1    2 1    
     2    1  127 1    
     3    1  128 1    
     4    1  129 1    
     5    2    3 2    
     6    2    4 am   BACKBONE|DICT|INTERRES
     7    4    5 1    
     8    4  130 1    
     9    5    6 1    
    10    5   65 1    
    11    5  131 1    
    12    6    7 1    
    13    6  132 1    
    14    6  133 1    
    15    7    8 1    
    16    8    9 1    
    17    8  134 1    
    18    8  135 1    
    19    9   10 ar   
    20    9   14 ar   
    21   10   11 ar   
    22   10  136 1    
    23   11   12 ar   
    24   11  126 1    
    25   12   13 ar   
    26   12  137 1    
    27   13   14 ar   
    28   13   15 1    
    29   14  138 1    
    30   15   16 1    
    31   15  139 1    
    32   15  140 1    
    33   16   17 1    
    34   17   18 1    
    35   17  141 1    
    36   17  142 1    
    37   18   19 1    
    38   18   67 1    
    39   18  143 1    
    40   19   20 am   BACKBONE|DICT|INTERRES
    41   19  144 1    
    42   20   21 2    
    43   20   22 1    
    44   22   23 1    
    45   22   24 1    
    46   22  145 1    
    47   23  146 1    
    48   23  147 1    
    49   23  148 1    
    50   24   25 am   BACKBONE|DICT|INTERRES
    51   24  149 1    
    52   25   26 2    
    53   25   27 1    
    54   27   28 1    
    55   27   29 1    
    56   27  150 1    
    57   28  151 1    
    58   28  152 1    
    59   28  153 1    
    60   29   30 am   BACKBONE|DICT|INTERRES
    61   29  154 1    
    62   30   31 2    
    63   30   32 1    
    64   32   33 1    
    65   32   34 1    
    66   32  155 1    
    67   33  156 1    
    68   33  157 1    
    69   33  158 1    
    70   34   35 am   BACKBONE|DICT|INTERRES
    71   34  159 1    
    72   35   36 2    
    73   35   37 1    
    74   37   38 1    
    75   37   39 1    
    76   37  160 1    
    77   38  161 1    
    78   38  162 1    
    79   38  163 1    
    80   39   40 am   BACKBONE|DICT|INTERRES
    81   39  164 1    
    82   40   41 2    
    83   40   42 1    
    84   42   43 1    
    85   42   44 1    
    86   42  165 1    
    87   43  166 1    
    88   43  167 1    
    89   43  168 1    
    90   44   45 am   BACKBONE|DICT|INTERRES
    91   44  169 1    
    92   45   46 2    
    93   45   47 1    
    94   47   48 1    
    95   47   49 1    
    96   47  170 1    
    97   48  171 1    
    98   48  172 1    
    99   48  173 1    
   100   49   50 am   BACKBONE|DICT|INTERRES
   101   49  174 1    
   102   50   51 2    
   103   50   52 1    
   104   52   53 1    
   105   52   54 1    
   106   52  175 1    
   107   53  176 1    
   108   53  177 1    
   109   53  178 1    
   110   54   55 am   BACKBONE|DICT|INTERRES
   111   54  179 1    
   112   55   56 2    
   113   55   57 1    
   114   57   58 1    
   115   57   59 1    
   116   57  180 1    
   117   58  181 1    
   118   58  182 1    
   119   58  183 1    
   120   59   60 am   BACKBONE|DICT|INTERRES
   121   59  184 1    
   122   60   61 2    
   123   60   62 1    
   124   62   63 1    
   125   62   64 1    
   126   62  185 1    
   127   63  186 1    
   128   63  187 1    
   129   63  188 1    
   130   64   65 am   BACKBONE|DICT|INTERRES
   131   64  189 1    
   132   65   66 2    
   133   67   68 2    
   134   67   69 am   BACKBONE|DICT|INTERRES
   135   69   70 1    
   136   69  190 1    
   137   70   71 1    
   138   70   72 1    
   139   70  191 1    
   140   71  192 1    
   141   71  193 1    
   142   71  194 1    
   143   72   73 2    
   144   72   74 am   BACKBONE|DICT|INTERRES
   145   74   75 1    
   146   74  195 1    
   147   75   76 1    
   148   75   77 1    
   149   75  196 1    
   150   76  197 1    
   151   76  198 1    
   152   76  199 1    
   153   77   78 2    
   154   77   79 am   BACKBONE|DICT|INTERRES
   155   79   80 1    
   156   79  200 1    
   157   80   81 1    
   158   80   82 1    
   159   80  201 1    
   160   81  202 1    
   161   81  203 1    
   162   81  204 1    
   163   82   83 2    
   164   82   84 am   BACKBONE|DICT|INTERRES
   165   84   85 1    
   166   84  205 1    
   167   85   86 1    
   168   85   87 1    
   169   85  206 1    
   170   86  207 1    
   171   86  208 1    
   172   86  209 1    
   173   87   88 2    
   174   87   89 am   BACKBONE|DICT|INTERRES
   175   89   90 1    
   176   89  210 1    
   177   90   91 1    
   178   90   92 1    
   179   90  211 1    
   180   91  212 1    
   181   91  213 1    
   182   91  214 1    
   183   92   93 2    
   184   92   94 am   BACKBONE|DICT|INTERRES
   185   94   95 1    
   186   94  215 1    
   187   95   96 1    
   188   95   97 1    
   189   95  216 1    
   190   96  217 1    
   191   96  218 1    
   192   96  219 1    
   193   97   98 2    
   194   97   99 am   BACKBONE|DICT|INTERRES
   195   99  100 1    
   196   99  220 1    
   197  100  101 1    
   198  100  102 1    
   199  100  221 1    
   200  101  222 1    
   201  101  223 1    
   202  101  224 1    
   203  102  103 2    
   204  102  104 am   BACKBONE|DICT|INTERRES
   205  104  105 1    
   206  104  225 1    
   207  105  106 1    
   208  105  107 1    
   209  105  226 1    
   210  106  227 1    
   211  106  228 1    
   212  106  229 1    
   213  107  108 2    
   214  107  109 am   BACKBONE|DICT|INTERRES
   215  109  110 1    
   216  109  230 1    
   217  110  111 1    
   218  110  112 1    
   219  110  231 1    
   220  111  232 1    
   221  111  233 1    
   222  111  234 1    
   223  112  113 2    
   224  112  114 am   BACKBONE|DICT|INTERRES
   225  114  115 1    
   226  114  235 1    
   227  115  116 1    
   228  115  117 1    
   229  115  236 1    
   230  116  237 1    
   231  116  238 1    
   232  116  239 1    
   233  117  118 2    
   234  117  119 am   BACKBONE|DICT|INTERRES
   235  119  120 1    
   236  119  240 1    
   237  120  121 1    
   238  120  124 1    
   239  120  241 1    
   240  121  122 am   BACKBONE|DICT|INTERRES
   241  121  123 2    
   242  122  242 1    
   243  122  243 1    
   244  124  125 1    
   245  124  244 1    
   246  124  245 1    
   247  125  126 1    
   248  126  246 1    
   249  126  247 1    
@<TRIPOS>SUBSTRUCTURE
     1 UNK         1 GROUP             0       ****    0 ROOT    
