@<TRIPOS>MOLECULE
3R540
247   249    1
SMALL
USER_CHARGES


@<TRIPOS>ATOM
      1 CA          9.5879  -14.0621  -50.5537 C.3       0 UNK        -0.1800 
      2 C           8.4990  -14.7635  -49.7535 C.2       0 UNK         0.5000 
      3 O           8.6812  -15.9114  -49.3465 O.2       0 UNK        -0.5000 
      4 N           7.3673  -14.0827  -49.5346 N.am      1 UNK        -0.5000 
      5 CA          6.2424  -14.5661  -48.7284 C.3       1 UNK         0.1400 
      6 C6          4.9605  -13.7449  -49.0127 C.3       23 UNK        -0.0398 
      7 S7          3.4491  -14.6723  -48.5900 S.3       23 UNK        -0.2404 
      8 C8          2.8222  -15.1023  -50.2417 C.3       23 UNK        -0.0205 
      9 C9          1.6002  -16.0022  -50.1515 C.ar      23 UNK        -0.0193 
     10 C10         0.3932  -15.4939  -49.6610 C.ar      23 UNK        -0.1150 
     11 C11        -0.7359  -16.3113  -49.5744 C.ar      23 UNK        -0.0193 
     12 C12        -0.6537  -17.6395  -49.9904 C.ar      23 UNK        -0.1150 
     13 C13         0.5421  -18.1622  -50.4858 C.ar      23 UNK        -0.0193 
     14 C14         1.6692  -17.3381  -50.5630 C.ar      23 UNK        -0.1150 
     15 C15         0.6047  -19.6128  -50.9446 C.3       23 UNK        -0.0205 
     16 S16         1.4229  -20.6896  -49.7264 S.3       23 UNK        -0.2404 
     17 C17         0.3509  -20.5058  -48.2611 C.3       23 UNK        -0.0398 
     18 CA          0.1439  -21.8396  -47.5024 C.3       11 UNK         0.1400 
     19 N           0.0646  -21.6300  -46.0564 N.am      11 UNK        -0.5000 
     20 C           0.1800  -22.5969  -45.1368 C.2       10 UNK         0.5000 
     21 O           0.2515  -23.7944  -45.4138 O.2       10 UNK        -0.5000 
     22 CA          0.2162  -22.1468  -43.6688 C.3       10 UNK         0.1400 
     23 CB          1.5908  -21.5543  -43.3196 C.3       10 UNK        -0.1800 
     24 N          -0.8173  -21.1482  -43.4073 N.am      10 UNK        -0.5000 
     25 C          -2.0313  -21.4268  -42.9158 C.2       9 UNK         0.5000 
     26 O          -2.3862  -22.5519  -42.5623 O.2       9 UNK        -0.5000 
     27 CA         -3.0277  -20.2548  -42.8075 C.3       9 UNK         0.1400 
     28 CB         -2.9519  -19.6121  -41.4144 C.3       9 UNK        -0.1800 
     29 N          -2.8395  -19.2133  -43.8195 N.am      9 UNK        -0.5000 
     30 C          -2.9571  -19.3969  -45.1423 C.2       8 UNK         0.5000 
     31 O          -3.1997  -20.4820  -45.6658 O.2       8 UNK        -0.5000 
     32 CA         -2.7099  -18.1680  -46.0344 C.3       8 UNK         0.1400 
     33 CB         -3.9931  -17.3237  -46.0953 C.3       8 UNK        -0.1800 
     34 N          -1.5898  -17.3223  -45.6047 N.am      8 UNK        -0.5000 
     35 C          -0.3531  -17.7394  -45.2806 C.2       7 UNK         0.5000 
     36 O          -0.0038  -18.9203  -45.3004 O.2       7 UNK        -0.5000 
     37 CA          0.6736  -16.6805  -44.8327 C.3       7 UNK         0.1400 
     38 CB          1.6785  -16.4265  -45.9638 C.3       7 UNK        -0.1800 
     39 N           0.0850  -15.4075  -44.4084 N.am      7 UNK        -0.5000 
     40 C          -0.7552  -15.2542  -43.3727 C.2       6 UNK         0.5000 
     41 O          -1.0516  -16.1665  -42.5998 O.2       6 UNK        -0.5000 
     42 CA         -1.4213  -13.8747  -43.1922 C.3       6 UNK         0.1400 
     43 CB         -0.7828  -13.1018  -42.0297 C.3       6 UNK        -0.1800 
     44 N          -1.4065  -13.0301  -44.3888 N.am      6 UNK        -0.5000 
     45 C          -2.0082  -13.2976  -45.5538 C.2       5 UNK         0.5000 
     46 O          -2.6323  -14.3368  -45.7656 O.2       5 UNK        -0.5000 
     47 CA         -1.8655  -12.2600  -46.6873 C.3       5 UNK         0.1400 
     48 CB         -2.9891  -11.2096  -46.6226 C.3       5 UNK        -0.1800 
     49 N          -0.5395  -11.6322  -46.7879 N.am      5 UNK        -0.5000 
     50 C           0.0784  -10.8111  -45.9278 C.2       4 UNK         0.5000 
     51 O          -0.4128  -10.4149  -44.8688 O.2       4 UNK        -0.5000 
     52 CA          1.5257  -10.4236  -46.2830 C.3       4 UNK         0.1400 
     53 CB          1.7078   -8.8974  -46.2879 C.3       4 UNK        -0.1800 
     54 N           2.4869  -11.0211  -45.3536 N.am      4 UNK        -0.5000 
     55 C           2.6622  -12.3360  -45.1720 C.2       3 UNK         0.5000 
     56 O           2.0184  -13.2047  -45.7639 O.2       3 UNK        -0.5000 
     57 CA          3.7246  -12.7594  -44.1516 C.3       3 UNK         0.1400 
     58 CB          3.0703  -13.1053  -42.8015 C.3       3 UNK        -0.1800 
     59 N           4.4317  -13.9126  -44.6961 N.am      3 UNK        -0.5000 
     60 C           5.5743  -14.4293  -44.2291 C.2       2 UNK         0.5000 
     61 O           6.1687  -14.0012  -43.2389 O.2       2 UNK        -0.5000 
     62 CA          6.1692  -15.6136  -45.0154 C.3       2 UNK         0.1400 
     63 CB          5.5532  -16.9407  -44.5445 C.3       2 UNK        -0.1800 
     64 N           5.9972  -15.4873  -46.4648 N.am      2 UNK        -0.5000 
     65 C           6.5950  -14.5584  -47.2237 C.2       1 UNK         0.5000 
     66 O           7.3726  -13.7090  -46.7796 O.2       1 UNK        -0.5000 
     67 C          -1.0355  -22.6637  -48.0615 C.2       11 UNK         0.5000 
     68 O          -0.8425  -23.4004  -49.0272 O.2       11 UNK        -0.5000 
     69 N          -2.2174  -22.5886  -47.4283 N.am      12 UNK        -0.5000 
     70 CA         -3.3863  -23.3998  -47.7822 C.3       12 UNK         0.1400 
     71 CB         -4.6204  -22.9250  -47.0027 C.3       12 UNK        -0.1800 
     72 C          -3.1735  -24.9085  -47.5774 C.2       12 UNK         0.5000 
     73 O          -3.7423  -25.6947  -48.3332 O.2       12 UNK        -0.5000 
     74 N          -2.3426  -25.2920  -46.5972 N.am      13 UNK        -0.5000 
     75 CA         -1.9619  -26.6850  -46.3604 C.3       13 UNK         0.1400 
     76 CB         -1.3317  -26.8276  -44.9670 C.3       13 UNK        -0.1800 
     77 C          -1.0138  -27.2075  -47.4540 C.2       13 UNK         0.5000 
     78 O          -1.1730  -28.3431  -47.9015 O.2       13 UNK        -0.5000 
     79 N          -0.0792  -26.3543  -47.8982 N.am      14 UNK        -0.5000 
     80 CA          0.8400  -26.6307  -49.0047 C.3       14 UNK         0.1400 
     81 CB          1.9538  -25.5721  -49.0229 C.3       14 UNK        -0.1800 
     82 C           0.1162  -26.6952  -50.3635 C.2       14 UNK         0.5000 
     83 O           0.4249  -27.5638  -51.1796 O.2       14 UNK        -0.5000 
     84 N          -0.8591  -25.7984  -50.5621 N.am      15 UNK        -0.5000 
     85 CA         -1.7296  -25.7382  -51.7375 C.3       15 UNK         0.1400 
     86 CB         -2.3520  -24.3342  -51.8199 C.3       15 UNK        -0.1800 
     87 C          -2.8394  -26.8095  -51.7469 C.2       15 UNK         0.5000 
     88 O          -3.5581  -26.9074  -52.7410 O.2       15 UNK        -0.5000 
     89 N          -3.0002  -27.5563  -50.6432 N.am      16 UNK        -0.5000 
     90 CA         -4.0312  -28.5744  -50.3998 C.3       16 UNK         0.1400 
     91 CB         -3.7747  -29.8186  -51.2745 C.3       16 UNK        -0.1800 
     92 C          -5.4671  -28.0201  -50.5450 C.2       16 UNK         0.5000 
     93 O          -6.3469  -28.6971  -51.0794 O.2       16 UNK        -0.5000 
     94 N          -5.6530  -26.7719  -50.0914 N.am      17 UNK        -0.5000 
     95 CA         -6.8626  -25.9449  -50.1540 C.3       17 UNK         0.1400 
     96 CB         -7.9930  -26.5694  -49.3108 C.3       17 UNK        -0.1800 
     97 C          -7.3316  -25.5759  -51.5812 C.2       17 UNK         0.5000 
     98 O          -8.4308  -25.0392  -51.7282 O.2       17 UNK        -0.5000 
     99 N          -6.5068  -25.8331  -52.6080 N.am      18 UNK        -0.5000 
    100 CA        -6.8103  -25.5190  -54.0084 C.3       18 UNK         0.1400 
    101 CB        -6.0416  -26.4896  -54.9187 C.3       18 UNK        -0.1800 
    102 C         -6.4876  -24.0584  -54.3834 C.2       18 UNK         0.5000 
    103 O         -6.8961  -23.6064  -55.4542 O.2       18 UNK        -0.5000 
    104 N         -5.7618  -23.3502  -53.5118 N.am      19 UNK        -0.5000 
    105 CA        -5.3616  -21.9548  -53.6556 C.3       19 UNK         0.1400 
    106 CB        -4.1227  -21.8507  -54.5717 C.3       19 UNK        -0.1800 
    107 C         -5.1408  -21.3566  -52.2538 C.2       19 UNK         0.5000 
    108 O         -5.6857  -21.8810  -51.2794 O.2       19 UNK        -0.5000 
    109 N         -4.3466  -20.2776  -52.1827 N.am      20 UNK        -0.5000 
    110 CA        -3.9539  -19.5247  -50.9818 C.3       20 UNK         0.1400 
    111 CB        -3.2962  -20.4413  -49.9299 C.3       20 UNK        -0.1800 
    112 C         -5.0795  -18.6652  -50.3711 C.2       20 UNK         0.5000 
    113 O         -4.9692  -18.2426  -49.2189 O.2       20 UNK        -0.5000 
    114 N         -6.1300  -18.3885  -51.1533 N.am      21 UNK        -0.5000 
    115 CA        -7.3019  -17.6045  -50.7628 C.3       21 UNK         0.1400 
    116 CB        -8.4772  -17.9982  -51.6764 C.3       21 UNK        -0.1800 
    117 C         -7.0230  -16.0848  -50.7679 C.2       21 UNK         0.5000 
    118 O         -7.6689  -15.3392  -51.5071 O.2       21 UNK        -0.5000 
    119 N         -6.0580  -15.6513  -49.9478 N.am      22 UNK        -0.5000 
    120 CA        -5.6864  -14.2366  -49.7611 C.3       22 UNK         0.1400 
    121 C         -6.7060  -13.4041  -48.9264 C.2       22 UNK         0.5000 
    122 N         -7.6718  -14.0115  -48.2474 N.am      22 UNK        -0.7600 
    123 O         -6.6214  -12.1794  -48.8996 O.2       22 UNK        -0.5000 
    124 C124       -4.2594  -14.0725  -49.1791 C.3       23 UNK        -0.0398 
    125 S125       -2.9555  -14.7948  -50.2329 S.3       23 UNK        -0.2404 
    126 C126       -2.0364  -15.7725  -49.0085 C.3       23 UNK        -0.0205 
    127 H127        9.2858  -13.0599  -50.8586 H         1 UNK         0.0600 
    128 H128       10.4956  -13.9764  -49.9565 H         1 UNK         0.0600 
    129 H129        9.8217  -14.6343  -51.4515 H         1 UNK         0.0600 
    130 H130        7.2950  -13.1310  -49.8646 H         1 UNK         0.3000 
    131 H131        6.0615  -15.6008  -49.0296 H         1 UNK         0.0600 
    132 H132        4.9625  -12.7981  -48.4689 H         1 UNK         0.0800 
    133 H133        4.9118  -13.4756  -50.0688 H         1 UNK         0.0800 
    134 H134        2.5605  -14.1906  -50.7806 H         1 UNK         0.0800 
    135 H135        3.6148  -15.5879  -50.8132 H         1 UNK         0.0800 
    136 H136        0.3370  -14.4641  -49.3375 H         1 UNK         0.1150 
    137 H137       -1.5241  -18.2683  -49.9192 H         1 UNK         0.1150 
    138 H138        2.5982  -17.7399  -50.9426 H         1 UNK         0.1150 
    139 H139       -0.3945  -19.9979  -51.1523 H         1 UNK         0.0800 
    140 H140        1.1517  -19.6693  -51.8867 H         1 UNK         0.0800 
    141 H141       -0.6029  -20.0518  -48.5255 H         1 UNK         0.0800 
    142 H142        0.8542  -19.7778  -47.6242 H         1 UNK         0.0800 
    143 H143        1.0370  -22.4503  -47.6542 H         1 UNK         0.0600 
    144 H144        0.0094  -20.6620  -45.7462 H         1 UNK         0.3000 
    145 H145        0.0611  -23.0274  -43.0417 H         1 UNK         0.0600 
    146 H146        1.6437  -21.2821  -42.2654 H         1 UNK         0.0600 
    147 H147        2.3863  -22.2760  -43.5094 H         1 UNK         0.0600 
    148 H148        1.8101  -20.6610  -43.9061 H         1 UNK         0.0600 
    149 H149       -0.6288  -20.2062  -43.7277 H         1 UNK         0.3000 
    150 H150       -4.0301  -20.6668  -42.9409 H         1 UNK         0.0600 
    151 H151       -3.1051  -20.3554  -40.6308 H         1 UNK         0.0600 
    152 H152       -3.7190  -18.8475  -41.2900 H         1 UNK         0.0600 
    153 H153       -1.9815  -19.1451  -41.2403 H         1 UNK         0.0600 
    154 H154       -2.5964  -18.2919  -43.4830 H         1 UNK         0.3000 
    155 H155       -2.4806  -18.5279  -47.0387 H         1 UNK         0.0600 
    156 H156       -3.9007  -16.4928  -46.7909 H         1 UNK         0.0600 
    157 H157       -4.2465  -16.9068  -45.1198 H         1 UNK         0.0600 
    158 H158       -4.8411  -17.9247  -46.4267 H         1 UNK         0.0600 
    159 H159       -1.7851  -16.3292  -45.5513 H         1 UNK         0.3000 
    160 H160        1.2151  -17.0980  -43.9816 H         1 UNK         0.0600 
    161 H161        1.2084  -15.9269  -46.8116 H         1 UNK         0.0600 
    162 H162        2.1106  -17.3585  -46.3311 H         1 UNK         0.0600 
    163 H163        2.5033  -15.8045  -45.6225 H         1 UNK         0.0600 
    164 H164        0.3081  -14.5991  -44.9755 H         1 UNK         0.3000 
    165 H165       -2.4666  -14.0621  -42.9389 H         1 UNK         0.0600 
    166 H166        0.2395  -12.8070  -42.2600 H         1 UNK         0.0600 
    167 H167       -1.3468  -12.1966  -41.8037 H         1 UNK         0.0600 
    168 H168       -0.7576  -13.7040  -41.1205 H         1 UNK         0.0600 
    169 H169       -0.9343  -12.1333  -44.3131 H         1 UNK         0.3000 
    170 H170       -1.9906  -12.8080  -47.6214 H         1 UNK         0.0600 
    171 H171       -3.9692  -11.6873  -46.6598 H         1 UNK         0.0600 
    172 H172       -2.9489  -10.6233  -45.7043 H         1 UNK         0.0600 
    173 H173       -2.9328  -10.5199  -47.4647 H         1 UNK         0.0600 
    174 H174        0.0009  -11.9382  -47.5850 H         1 UNK         0.3000 
    175 H175        1.7560  -10.7930  -47.2847 H         1 UNK         0.0600 
    176 H176        2.7125   -8.6207  -46.6079 H         1 UNK         0.0600 
    177 H177        1.0063   -8.4237  -46.9759 H         1 UNK         0.0600 
    178 H178        1.5395   -8.4670  -45.2998 H         1 UNK         0.0600 
    179 H179        3.0313  -10.3741  -44.8021 H         1 UNK         0.3000 
    180 H180        4.4372  -11.9433  -44.0155 H         1 UNK         0.0600 
    181 H181        2.3665  -13.9330  -42.8986 H         1 UNK         0.0600 
    182 H182        2.5269  -12.2473  -42.4049 H         1 UNK         0.0600 
    183 H183        3.8116  -13.3849  -42.0535 H         1 UNK         0.0600 
    184 H184        4.0079  -14.3030  -45.5283 H         1 UNK         0.3000 
    185 H185        7.2406  -15.6445  -44.8056 H         1 UNK         0.0600 
    186 H186        6.0267  -17.7914  -45.0351 H         1 UNK         0.0600 
    187 H187        5.6859  -17.0721  -43.4698 H         1 UNK         0.0600 
    188 H188        4.4836  -16.9875  -44.7501 H         1 UNK         0.0600 
    189 H189        5.3605  -16.1382  -46.9019 H         1 UNK         0.3000 
    190 H190       -2.3387  -21.9336  -46.6608 H         1 UNK         0.3000 
    191 H191       -3.5856  -23.2548  -48.8445 H         1 UNK         0.0600 
    192 H192       -4.8669  -21.8917  -47.2469 H         1 UNK         0.0600 
    193 H193       -5.4952  -23.5297  -47.2461 H         1 UNK         0.0600 
    194 H194       -4.4639  -22.9887  -45.9251 H         1 UNK         0.0600 
    195 H195       -1.8753  -24.5877  -46.0420 H         1 UNK         0.3000 
    196 H196       -2.8675  -27.2954  -46.3820 H         1 UNK         0.0600 
    197 H197       -1.1221  -27.8742  -44.7429 H         1 UNK         0.0600 
    198 H198       -2.0006  -26.4564  -44.1904 H         1 UNK         0.0600 
    199 H199       -0.3903  -26.2842  -44.8876 H         1 UNK         0.0600 
    200 H200       -0.0296  -25.4348  -47.4823 H         1 UNK         0.3000 
    201 H201        1.3014  -27.6042  -48.8259 H         1 UNK         0.0600 
    202 H202        2.4942  -25.5515  -48.0764 H         1 UNK         0.0600 
    203 H203        1.5619  -24.5715  -49.2065 H         1 UNK         0.0600 
    204 H204        2.6803  -25.7866  -49.8076 H         1 UNK         0.0600 
    205 H205       -0.9848  -25.0614  -49.8720 H         1 UNK         0.3000 
    206 H206       -1.1195  -25.8939  -52.6294 H         1 UNK         0.0600 
    207 H207       -1.5848  -23.5602  -51.8509 H         1 UNK         0.0600 
    208 H208       -2.9566  -24.2288  -52.7208 H         1 UNK         0.0600 
    209 H209       -2.9986  -24.1308  -50.9664 H         1 UNK         0.0600 
    210 H210       -2.3837  -27.3706  -49.8642 H         1 UNK         0.3000 
    211 H211       -3.9242  -28.8735  -49.3562 H         1 UNK         0.0600 
    212 H212       -3.9127  -29.6036  -52.3346 H         1 UNK         0.0600 
    213 H213       -4.4564  -30.6286  -51.0128 H         1 UNK         0.0600 
    214 H214       -2.7600  -30.1926  -51.1375 H         1 UNK         0.0600 
    215 H215       -4.8640  -26.3369  -49.6151 H         1 UNK         0.3000 
    216 H216       -6.5908  -24.9990  -49.6830 H         1 UNK         0.0600 
    217 H217       -7.6512  -26.7969  -48.3010 H         1 UNK         0.0600 
    218 H218       -8.3678  -27.4917  -49.7550 H         1 UNK         0.0600 
    219 H219       -8.8378  -25.8860  -49.2181 H         1 UNK         0.0600 
    220 H220       -5.6162  -26.2837  -52.4307 H         1 UNK         0.3000 
    221 H221       -7.8770  -25.6745  -54.1831 H         1 UNK         0.0600 
    222 H222       -4.9661  -26.3167  -54.8758 H         1 UNK         0.0600 
    223 H223       -6.2277  -27.5272  -54.6404 H         1 UNK         0.0600 
    224 H224       -6.3474  -26.3716  -55.9589 H         1 UNK         0.0600 
    225 H225       -5.5407  -23.7648  -52.6170 H         1 UNK         0.3000 
    226 H226       -6.1848  -21.3991  -54.1091 H         1 UNK         0.0600 
    227 H227       -4.2865  -22.3621  -55.5203 H         1 UNK         0.0600 
    228 H228       -3.8903  -20.8132  -54.8130 H         1 UNK         0.0600 
    229 H229       -3.2392  -22.2899  -54.1080 H         1 UNK         0.0600 
    230 H230       -3.9509  -19.9347  -53.0472 H         1 UNK         0.3000 
    231 H231       -3.2002  -18.8154  -51.3232 H         1 UNK         0.0600 
    232 H232       -2.4981  -21.0447  -50.3620 H         1 UNK         0.0600 
    233 H233       -4.0267  -21.1132  -49.4844 H         1 UNK         0.0600 
    234 H234       -2.8733  -19.8672  -49.1072 H         1 UNK         0.0600 
    235 H235       -6.1226  -18.7413  -52.0982 H         1 UNK         0.3000 
    236 H236       -7.5771  -17.8751  -49.7412 H         1 UNK         0.0600 
    237 H237       -9.3875  -17.4673  -51.3947 H         1 UNK         0.0600 
    238 H238       -8.2708  -17.7670  -52.7222 H         1 UNK         0.0600 
    239 H239       -8.6912  -19.0649  -51.6049 H         1 UNK         0.0600 
    240 H240       -5.5469  -16.3410  -49.4067 H         1 UNK         0.3000 
    241 H241       -5.6790  -13.7749  -50.7504 H         1 UNK         0.0600 
    242 H242       -7.7536  -15.0151  -48.2550 H         1 UNK         0.3800 
    243 H243       -8.3267  -13.4593  -47.7163 H         1 UNK         0.3800 
    244 H244       -4.0184  -13.0145  -49.0624 H         1 UNK         0.0800 
    245 H245       -4.2133  -14.5035  -48.1779 H         1 UNK         0.0800 
    246 H246       -1.8178  -15.1671  -48.1301 H         1 UNK         0.0800 
    247 H247       -2.6678  -16.5958  -48.6764 H         1 UNK         0.0800 
@<TRIPOS>BOND
     1    1    2 1    
     2    1  127 1    
     3    1  128 1    
     4    1  129 1    
     5    2    3 2    
     6    2    4 am   BACKBONE|DICT|INTERRES
     7    4    5 1    
     8    4  130 1    
     9    5    6 1    
    10    5   65 1    
    11    5  131 1    
    12    6    7 1    
    13    6  132 1    
    14    6  133 1    
    15    7    8 1    
    16    8    9 1    
    17    8  134 1    
    18    8  135 1    
    19    9   10 ar   
    20    9   14 ar   
    21   10   11 ar   
    22   10  136 1    
    23   11   12 ar   
    24   11  126 1    
    25   12   13 ar   
    26   12  137 1    
    27   13   14 ar   
    28   13   15 1    
    29   14  138 1    
    30   15   16 1    
    31   15  139 1    
    32   15  140 1    
    33   16   17 1    
    34   17   18 1    
    35   17  141 1    
    36   17  142 1    
    37   18   19 1    
    38   18   67 1    
    39   18  143 1    
    40   19   20 am   BACKBONE|DICT|INTERRES
    41   19  144 1    
    42   20   21 2    
    43   20   22 1    
    44   22   23 1    
    45   22   24 1    
    46   22  145 1    
    47   23  146 1    
    48   23  147 1    
    49   23  148 1    
    50   24   25 am   BACKBONE|DICT|INTERRES
    51   24  149 1    
    52   25   26 2    
    53   25   27 1    
    54   27   28 1    
    55   27   29 1    
    56   27  150 1    
    57   28  151 1    
    58   28  152 1    
    59   28  153 1    
    60   29   30 am   BACKBONE|DICT|INTERRES
    61   29  154 1    
    62   30   31 2    
    63   30   32 1    
    64   32   33 1    
    65   32   34 1    
    66   32  155 1    
    67   33  156 1    
    68   33  157 1    
    69   33  158 1    
    70   34   35 am   BACKBONE|DICT|INTERRES
    71   34  159 1    
    72   35   36 2    
    73   35   37 1    
    74   37   38 1    
    75   37   39 1    
    76   37  160 1    
    77   38  161 1    
    78   38  162 1    
    79   38  163 1    
    80   39   40 am   BACKBONE|DICT|INTERRES
    81   39  164 1    
    82   40   41 2    
    83   40   42 1    
    84   42   43 1    
    85   42   44 1    
    86   42  165 1    
    87   43  166 1    
    88   43  167 1    
    89   43  168 1    
    90   44   45 am   BACKBONE|DICT|INTERRES
    91   44  169 1    
    92   45   46 2    
    93   45   47 1    
    94   47   48 1    
    95   47   49 1    
    96   47  170 1    
    97   48  171 1    
    98   48  172 1    
    99   48  173 1    
   100   49   50 am   BACKBONE|DICT|INTERRES
   101   49  174 1    
   102   50   51 2    
   103   50   52 1    
   104   52   53 1    
   105   52   54 1    
   106   52  175 1    
   107   53  176 1    
   108   53  177 1    
   109   53  178 1    
   110   54   55 am   BACKBONE|DICT|INTERRES
   111   54  179 1    
   112   55   56 2    
   113   55   57 1    
   114   57   58 1    
   115   57   59 1    
   116   57  180 1    
   117   58  181 1    
   118   58  182 1    
   119   58  183 1    
   120   59   60 am   BACKBONE|DICT|INTERRES
   121   59  184 1    
   122   60   61 2    
   123   60   62 1    
   124   62   63 1    
   125   62   64 1    
   126   62  185 1    
   127   63  186 1    
   128   63  187 1    
   129   63  188 1    
   130   64   65 am   BACKBONE|DICT|INTERRES
   131   64  189 1    
   132   65   66 2    
   133   67   68 2    
   134   67   69 am   BACKBONE|DICT|INTERRES
   135   69   70 1    
   136   69  190 1    
   137   70   71 1    
   138   70   72 1    
   139   70  191 1    
   140   71  192 1    
   141   71  193 1    
   142   71  194 1    
   143   72   73 2    
   144   72   74 am   BACKBONE|DICT|INTERRES
   145   74   75 1    
   146   74  195 1    
   147   75   76 1    
   148   75   77 1    
   149   75  196 1    
   150   76  197 1    
   151   76  198 1    
   152   76  199 1    
   153   77   78 2    
   154   77   79 am   BACKBONE|DICT|INTERRES
   155   79   80 1    
   156   79  200 1    
   157   80   81 1    
   158   80   82 1    
   159   80  201 1    
   160   81  202 1    
   161   81  203 1    
   162   81  204 1    
   163   82   83 2    
   164   82   84 am   BACKBONE|DICT|INTERRES
   165   84   85 1    
   166   84  205 1    
   167   85   86 1    
   168   85   87 1    
   169   85  206 1    
   170   86  207 1    
   171   86  208 1    
   172   86  209 1    
   173   87   88 2    
   174   87   89 am   BACKBONE|DICT|INTERRES
   175   89   90 1    
   176   89  210 1    
   177   90   91 1    
   178   90   92 1    
   179   90  211 1    
   180   91  212 1    
   181   91  213 1    
   182   91  214 1    
   183   92   93 2    
   184   92   94 am   BACKBONE|DICT|INTERRES
   185   94   95 1    
   186   94  215 1    
   187   95   96 1    
   188   95   97 1    
   189   95  216 1    
   190   96  217 1    
   191   96  218 1    
   192   96  219 1    
   193   97   98 2    
   194   97   99 am   BACKBONE|DICT|INTERRES
   195   99  100 1    
   196   99  220 1    
   197  100  101 1    
   198  100  102 1    
   199  100  221 1    
   200  101  222 1    
   201  101  223 1    
   202  101  224 1    
   203  102  103 2    
   204  102  104 am   BACKBONE|DICT|INTERRES
   205  104  105 1    
   206  104  225 1    
   207  105  106 1    
   208  105  107 1    
   209  105  226 1    
   210  106  227 1    
   211  106  228 1    
   212  106  229 1    
   213  107  108 2    
   214  107  109 am   BACKBONE|DICT|INTERRES
   215  109  110 1    
   216  109  230 1    
   217  110  111 1    
   218  110  112 1    
   219  110  231 1    
   220  111  232 1    
   221  111  233 1    
   222  111  234 1    
   223  112  113 2    
   224  112  114 am   BACKBONE|DICT|INTERRES
   225  114  115 1    
   226  114  235 1    
   227  115  116 1    
   228  115  117 1    
   229  115  236 1    
   230  116  237 1    
   231  116  238 1    
   232  116  239 1    
   233  117  118 2    
   234  117  119 am   BACKBONE|DICT|INTERRES
   235  119  120 1    
   236  119  240 1    
   237  120  121 1    
   238  120  124 1    
   239  120  241 1    
   240  121  122 am   BACKBONE|DICT|INTERRES
   241  121  123 2    
   242  122  242 1    
   243  122  243 1    
   244  124  125 1    
   245  124  244 1    
   246  124  245 1    
   247  125  126 1    
   248  126  246 1    
   249  126  247 1    
@<TRIPOS>SUBSTRUCTURE
     1 UNK         1 GROUP             0       ****    0 ROOT    
