@<TRIPOS>MOLECULE
3R540
247   249    1
SMALL
USER_CHARGES


@<TRIPOS>ATOM
      1 CA          1.1496   -8.5499  -45.2540 C.3       0 UNK        -0.1800 
      2 C           1.8185   -9.7191  -45.9617 C.2       0 UNK         0.5000 
      3 O           2.8631   -9.5420  -46.5897 O.2       0 UNK        -0.5000 
      4 N           1.2355  -10.9179  -45.8507 N.am      1 UNK        -0.5000 
      5 CA          1.7570  -12.1714  -46.4045 C.3       1 UNK         0.1400 
      6 C6          0.6291  -13.1978  -46.6677 C.3       23 UNK        -0.0398 
      7 S7         -0.5172  -12.6627  -47.9828 S.3       23 UNK        -0.2404 
      8 C8         -1.5074  -14.1694  -48.2536 C.3       23 UNK        -0.0205 
      9 C9         -0.8897  -15.0973  -49.2914 C.ar      23 UNK        -0.0193 
     10 C10        -1.3381  -15.0607  -50.6153 C.ar      23 UNK        -0.1150 
     11 C11        -0.7985  -15.9247  -51.5722 C.ar      23 UNK        -0.0193 
     12 C12         0.2137  -16.8150  -51.2041 C.ar      23 UNK        -0.1150 
     13 C13         0.6686  -16.8662  -49.8838 C.ar      23 UNK        -0.0193 
     14 C14         0.1057  -16.0113  -48.9312 C.ar      23 UNK        -0.1150 
     15 C15         1.7843  -17.8241  -49.4862 C.3       23 UNK        -0.0205 
     16 S16         1.4047  -19.5713  -49.8349 S.3       23 UNK        -0.2404 
     17 C17        -0.1563  -19.8318  -48.9290 C.3       23 UNK        -0.0398 
     18 CA         -0.1925  -21.2205  -48.2433 C.3       11 UNK         0.1400 
     19 N           0.5574  -21.2449  -46.9806 N.am      11 UNK        -0.5000 
     20 C           0.8634  -22.3571  -46.2961 C.2       10 UNK         0.5000 
     21 O           0.4988  -23.4840  -46.6297 O.2       10 UNK        -0.5000 
     22 CA          1.6970  -22.1832  -45.0158 C.3       10 UNK         0.1400 
     23 CB          3.1674  -21.8817  -45.3472 C.3       10 UNK        -0.1800 
     24 N           1.1526  -21.1219  -44.1724 N.am      10 UNK        -0.5000 
     25 C           0.1587  -21.2950  -43.2895 C.2       9 UNK         0.5000 
     26 O          -0.3477  -22.3887  -43.0371 O.2       9 UNK        -0.5000 
     27 CA         -0.3783  -20.0359  -42.5761 C.3       9 UNK         0.1400 
     28 CB          0.3568  -19.8158  -41.2455 C.3       9 UNK        -0.1800 
     29 N          -0.2805  -18.8140  -43.3749 N.am      9 UNK        -0.5000 
     30 C          -0.8625  -18.6240  -44.5670 C.2       8 UNK         0.5000 
     31 O          -1.5823  -19.4506  -45.1218 O.2       8 UNK        -0.5000 
     32 CA         -0.5177  -17.3161  -45.2953 C.3       8 UNK         0.1400 
     33 CB         -1.4262  -16.1838  -44.7988 C.3       8 UNK        -0.1800 
     34 N           0.8933  -16.9438  -45.1406 N.am      8 UNK        -0.5000 
     35 C           1.9279  -17.7040  -45.5342 C.2       7 UNK         0.5000 
     36 O           1.7942  -18.7943  -46.0888 O.2       7 UNK        -0.5000 
     37 CA          3.3412  -17.1837  -45.2321 C.3       7 UNK         0.1400 
     38 CB          3.8745  -16.3514  -46.4075 C.3       7 UNK        -0.1800 
     39 N           3.3607  -16.3887  -44.0046 N.am      7 UNK        -0.5000 
     40 C           3.4688  -16.9177  -42.7773 C.2       6 UNK         0.5000 
     41 O           3.6460  -18.1178  -42.5654 O.2       6 UNK        -0.5000 
     42 CA          3.3107  -15.9585  -41.5821 C.3       6 UNK         0.1400 
     43 CB          4.6696  -15.3910  -41.1455 C.3       6 UNK        -0.1800 
     44 N           2.3656  -14.8676  -41.8442 N.am      6 UNK        -0.5000 
     45 C           1.0449  -15.0627  -41.9826 C.2       5 UNK         0.5000 
     46 O           0.5310  -16.1822  -41.9278 O.2       5 UNK        -0.5000 
     47 CA          0.1444  -13.8380  -42.2349 C.3       5 UNK         0.1400 
     48 CB         -1.2304  -13.9745  -41.5460 C.3       5 UNK        -0.1800 
     49 N           0.7628  -12.5796  -41.8190 N.am      5 UNK        -0.5000 
     50 C           0.4495  -11.3845  -42.3380 C.2       4 UNK         0.5000 
     51 O          -0.2801  -11.2282  -43.3184 O.2       4 UNK        -0.5000 
     52 CA          1.0690  -10.1600  -41.6550 C.3       4 UNK         0.1400 
     53 CB          0.4515   -9.9212  -40.2642 C.3       4 UNK        -0.1800 
     54 N           2.5096  -10.3466  -41.5686 N.am      4 UNK        -0.5000 
     55 C           3.4292   -9.4067  -41.3438 C.2       3 UNK         0.5000 
     56 O           3.1650   -8.2305  -41.0932 O.2       3 UNK        -0.5000 
     57 CA          4.9007   -9.8517  -41.4630 C.3       3 UNK         0.1400 
     58 CB          5.3520  -10.6458  -40.2213 C.3       3 UNK        -0.1800 
     59 N           5.1953  -10.5749  -42.7105 N.am      3 UNK        -0.5000 
     60 C           4.7570  -11.7779  -43.1080 C.2       2 UNK         0.5000 
     61 O           4.0333  -12.5070  -42.4249 O.2       2 UNK        -0.5000 
     62 CA          5.1389  -12.1885  -44.5399 C.3       2 UNK         0.1400 
     63 CB          5.7608  -13.5940  -44.6050 C.3       2 UNK        -0.1800 
     64 N           3.9929  -12.0452  -45.4417 N.am      2 UNK        -0.5000 
     65 C           2.8373  -12.7264  -45.4534 C.2       1 UNK         0.5000 
     66 O           2.5906  -13.7086  -44.7493 O.2       1 UNK        -0.5000 
     67 C          -1.6436  -21.7282  -48.1123 C.2       11 UNK         0.5000 
     68 O          -2.1593  -22.2820  -49.0802 O.2       11 UNK        -0.5000 
     69 N          -2.2733  -21.5543  -46.9419 N.am      12 UNK        -0.5000 
     70 CA         -3.6422  -21.9934  -46.6546 C.3       12 UNK         0.1400 
     71 CB         -4.1351  -21.2988  -45.3756 C.3       12 UNK        -0.1800 
     72 C          -3.8201  -23.5210  -46.5299 C.2       12 UNK         0.5000 
     73 O          -4.9634  -23.9833  -46.5341 O.2       12 UNK        -0.5000 
     74 N          -2.7194  -24.2789  -46.4131 N.am      13 UNK        -0.5000 
     75 CA         -2.7120  -25.7372  -46.2685 C.3       13 UNK         0.1400 
     76 CB         -1.2615  -26.2229  -46.1387 C.3       13 UNK        -0.1800 
     77 C          -3.4185  -26.4669  -47.4281 C.2       13 UNK         0.5000 
     78 O          -3.3299  -26.0265  -48.5764 O.2       13 UNK        -0.5000 
     79 N          -4.1075  -27.5688  -47.0966 N.am      14 UNK        -0.5000 
     80 CA         -4.8915  -28.4199  -48.0019 C.3       14 UNK         0.1400 
     81 CB         -3.9600  -29.1942  -48.9583 C.3       14 UNK        -0.1800 
     82 C          -6.0036  -27.6424  -48.7397 C.2       14 UNK         0.5000 
     83 O          -6.1771  -27.8086  -49.9481 O.2       14 UNK        -0.5000 
     84 N          -6.7104  -26.7773  -47.9945 N.am      15 UNK        -0.5000 
     85 CA         -7.7534  -25.8563  -48.4651 C.3       15 UNK         0.1400 
     86 CB         -9.0059  -26.6342  -48.9214 C.3       15 UNK        -0.1800 
     87 C          -7.2172  -24.8916  -49.5418 C.2       15 UNK         0.5000 
     88 O          -7.7822  -24.7940  -50.6320 O.2       15 UNK        -0.5000 
     89 N          -6.0910  -24.2410  -49.2215 N.am      16 UNK        -0.5000 
     90 CA         -5.2897  -23.3797  -50.0945 C.3       16 UNK         0.1400 
     91 CB         -6.0234  -22.0551  -50.3846 C.3       16 UNK        -0.1800 
     92 C          -4.8099  -24.1074  -51.3659 C.2       16 UNK         0.5000 
     93 O          -4.9586  -23.5841  -52.4726 O.2       16 UNK        -0.5000 
     94 N          -4.2757  -25.3228  -51.1758 N.am      17 UNK        -0.5000 
     95 CA         -3.8485  -26.2814  -52.2002 C.3       17 UNK         0.1400 
     96 CB         -2.5537  -25.7955  -52.8819 C.3       17 UNK        -0.1800 
     97 C          -4.9743  -26.6077  -53.2046 C.2       17 UNK         0.5000 
     98 O          -4.7571  -26.5538  -54.4152 O.2       17 UNK        -0.5000 
     99 N          -6.1685  -26.8997  -52.6685 N.am      18 UNK        -0.5000 
    100 CA        -7.4421  -27.0699  -53.3754 C.3       18 UNK         0.1400 
    101 CB        -7.4254  -28.3486  -54.2385 C.3       18 UNK        -0.1800 
    102 C         -7.8474  -25.8031  -54.1620 C.2       18 UNK         0.5000 
    103 O         -8.2206  -25.8893  -55.3337 O.2       18 UNK        -0.5000 
    104 N         -7.7536  -24.6499  -53.4837 N.am      19 UNK        -0.5000 
    105 CA        -8.0241  -23.2918  -53.9638 C.3       19 UNK         0.1400 
    106 CB        -9.5392  -23.0926  -54.1740 C.3       19 UNK        -0.1800 
    107 C         -7.1814  -22.9017  -55.1976 C.2       19 UNK         0.5000 
    108 O         -7.7235  -22.3810  -56.1754 O.2       19 UNK        -0.5000 
    109 N         -5.8712  -23.1717  -55.1359 N.am      20 UNK        -0.5000 
    110 CA        -4.9343  -22.9632  -56.2419 C.3       20 UNK         0.1400 
    111 CB        -4.8801  -24.2300  -57.1150 C.3       20 UNK        -0.1800 
    112 C         -3.5261  -22.5224  -55.7996 C.2       20 UNK         0.5000 
    113 O         -2.6763  -22.3305  -56.6713 O.2       20 UNK        -0.5000 
    114 N         -3.2803  -22.3410  -54.4908 N.am      21 UNK        -0.5000 
    115 CA        -1.9710  -21.9769  -53.9236 C.3       21 UNK         0.1400 
    116 CB        -2.0701  -21.9016  -52.3917 C.3       21 UNK        -0.1800 
    117 C         -1.3601  -20.6723  -54.4744 C.2       21 UNK         0.5000 
    118 O         -0.1364  -20.5726  -54.5739 O.2       21 UNK        -0.5000 
    119 N         -2.2197  -19.7145  -54.8388 N.am      22 UNK        -0.5000 
    120 CA        -1.8400  -18.4403  -55.4709 C.3       22 UNK         0.1400 
    121 C         -1.7517  -18.5081  -57.0252 C.2       22 UNK         0.5000 
    122 N         -1.9652  -19.6512  -57.6672 N.am      22 UNK        -0.7600 
    123 O         -1.4679  -17.5012  -57.6683 O.2       22 UNK        -0.5000 
    124 C124       -2.7440  -17.2711  -54.9986 C.3       23 UNK        -0.0398 
    125 S125       -2.7118  -17.0628  -53.1860 S.3       23 UNK        -0.2404 
    126 C126       -1.3157  -15.9116  -53.0003 C.3       23 UNK        -0.0205 
    127 H127        0.9665   -7.7391  -45.9589 H         1 UNK         0.0600 
    128 H128        1.7948   -8.1746  -44.4595 H         1 UNK         0.0600 
    129 H129        0.1948   -8.8370  -44.8127 H         1 UNK         0.0600 
    130 H130        0.4228  -11.0139  -45.2506 H         1 UNK         0.3000 
    131 H131        2.2431  -11.9676  -47.3613 H         1 UNK         0.0600 
    132 H132        1.0588  -14.1563  -46.9546 H         1 UNK         0.0800 
    133 H133        0.0562  -13.3670  -45.7562 H         1 UNK         0.0800 
    134 H134       -1.6543  -14.7013  -47.3154 H         1 UNK         0.0800 
    135 H135       -2.5042  -13.8678  -48.5789 H         1 UNK         0.0800 
    136 H136       -2.1190  -14.3693  -50.9000 H         1 UNK         0.1150 
    137 H137        0.6383  -17.4813  -51.9423 H         1 UNK         0.1150 
    138 H138        0.4487  -16.0563  -47.9093 H         1 UNK         0.1150 
    139 H139        2.6916  -17.5489  -50.0251 H         1 UNK         0.0800 
    140 H140        2.0181  -17.7234  -48.4296 H         1 UNK         0.0800 
    141 H141       -0.9566  -19.7242  -49.6645 H         1 UNK         0.0800 
    142 H142       -0.3101  -19.0388  -48.1964 H         1 UNK         0.0800 
    143 H143        0.2970  -21.9354  -48.9088 H         1 UNK         0.0600 
    144 H144        0.9238  -20.3542  -46.6540 H         1 UNK         0.3000 
    145 H145        1.6709  -23.1275  -44.4674 H         1 UNK         0.0600 
    146 H146        3.6031  -22.6860  -45.9411 H         1 UNK         0.0600 
    147 H147        3.2803  -20.9592  -45.9165 H         1 UNK         0.0600 
    148 H148        3.7636  -21.7884  -44.4394 H         1 UNK         0.0600 
    149 H149        1.4778  -20.1834  -44.3614 H         1 UNK         0.3000 
    150 H150       -1.4354  -20.2059  -42.3621 H         1 UNK         0.0600 
    151 H151        0.2814  -20.6957  -40.6054 H         1 UNK         0.0600 
    152 H152       -0.0669  -18.9753  -40.6952 H         1 UNK         0.0600 
    153 H153        1.4169  -19.6115  -41.4025 H         1 UNK         0.0600 
    154 H154        0.2596  -18.0534  -42.9779 H         1 UNK         0.3000 
    155 H155       -0.7055  -17.4640  -46.3598 H         1 UNK         0.0600 
    156 H156       -1.1107  -15.2141  -45.1734 H         1 UNK         0.0600 
    157 H157       -1.4417  -16.1302  -43.7122 H         1 UNK         0.0600 
    158 H158       -2.4540  -16.3442  -45.1263 H         1 UNK         0.0600 
    159 H159        1.0932  -16.0804  -44.6591 H         1 UNK         0.3000 
    160 H160        3.9980  -18.0482  -45.1132 H         1 UNK         0.0600 
    161 H161        3.2181  -15.5162  -46.6498 H         1 UNK         0.0600 
    162 H162        3.9690  -16.9643  -47.3040 H         1 UNK         0.0600 
    163 H163        4.8646  -15.9527  -46.1906 H         1 UNK         0.0600 
    164 H164        3.1917  -15.3897  -44.1024 H         1 UNK         0.3000 
    165 H165        2.9169  -16.5424  -40.7473 H         1 UNK         0.0600 
    166 H166        4.5617  -14.7093  -40.3018 H         1 UNK         0.0600 
    167 H167        5.3414  -16.1918  -40.8344 H         1 UNK         0.0600 
    168 H168        5.1630  -14.8501  -41.9514 H         1 UNK         0.0600 
    169 H169        2.7695  -13.9518  -42.0206 H         1 UNK         0.3000 
    170 H170       -0.0121  -13.8131  -43.3145 H         1 UNK         0.0600 
    171 H171       -1.7332  -14.9034  -41.8129 H         1 UNK         0.0600 
    172 H172       -1.1314  -13.9603  -40.4602 H         1 UNK         0.0600 
    173 H173       -1.8983  -13.1613  -41.8303 H         1 UNK         0.0600 
    174 H174        1.3704  -12.6278  -41.0130 H         1 UNK         0.3000 
    175 H175        0.8674   -9.2897  -42.2824 H         1 UNK         0.0600 
    176 H176        0.8100   -8.9905  -39.8248 H         1 UNK         0.0600 
    177 H177       -0.6350   -9.8496  -40.3276 H         1 UNK         0.0600 
    178 H178        0.6888  -10.7292  -39.5715 H         1 UNK         0.0600 
    179 H179        2.8602  -11.2659  -41.8321 H         1 UNK         0.3000 
    180 H180        5.5011   -8.9413  -41.5006 H         1 UNK         0.0600 
    181 H181        4.7798  -11.5639  -40.0866 H         1 UNK         0.0600 
    182 H182        5.2260  -10.0512  -39.3158 H         1 UNK         0.0600 
    183 H183        6.4058  -10.9157  -40.2888 H         1 UNK         0.0600 
    184 H184        5.7511  -10.0466  -43.3689 H         1 UNK         0.3000 
    185 H185        5.8953  -11.4906  -44.9023 H         1 UNK         0.0600 
    186 H186        6.6570  -13.6494  -43.9863 H         1 UNK         0.0600 
    187 H187        5.0779  -14.3610  -44.2500 H         1 UNK         0.0600 
    188 H188        6.0517  -13.8475  -45.6241 H         1 UNK         0.0600 
    189 H189        4.0192  -11.2179  -46.0282 H         1 UNK         0.3000 
    190 H190       -1.8128  -21.0161  -46.2125 H         1 UNK         0.3000 
    191 H191       -4.2797  -21.6661  -47.4782 H         1 UNK         0.0600 
    192 H192       -4.1508  -20.2158  -45.4976 H         1 UNK         0.0600 
    193 H193       -5.1507  -21.6068  -45.1231 H         1 UNK         0.0600 
    194 H194       -3.4975  -21.5324  -44.5218 H         1 UNK         0.0600 
    195 H195       -1.8151  -23.8280  -46.4644 H         1 UNK         0.3000 
    196 H196       -3.2381  -25.9702  -45.3407 H         1 UNK         0.0600 
    197 H197       -1.2204  -27.3017  -45.9833 H         1 UNK         0.0600 
    198 H198       -0.7610  -25.7530  -45.2917 H         1 UNK         0.0600 
    199 H199       -0.6837  -25.9982  -47.0362 H         1 UNK         0.0600 
    200 H200       -4.1205  -27.8488  -46.1254 H         1 UNK         0.3000 
    201 H201       -5.4015  -29.1536  -47.3762 H         1 UNK         0.0600 
    202 H202       -3.2191  -29.7700  -48.4039 H         1 UNK         0.0600 
    203 H203       -3.4257  -28.5274  -49.6347 H         1 UNK         0.0600 
    204 H204       -4.5243  -29.8985  -49.5708 H         1 UNK         0.0600 
    205 H205       -6.4624  -26.6894  -47.0189 H         1 UNK         0.3000 
    206 H206       -8.0380  -25.2402  -47.6109 H         1 UNK         0.0600 
    207 H207       -9.3720  -27.2894  -48.1312 H         1 UNK         0.0600 
    208 H208       -9.8159  -25.9504  -49.1777 H         1 UNK         0.0600 
    209 H209       -8.8082  -27.2479  -49.8008 H         1 UNK         0.0600 
    210 H210       -5.7046  -24.3918  -48.2939 H         1 UNK         0.3000 
    211 H211       -4.3937  -23.1431  -49.5302 H         1 UNK         0.0600 
    212 H212       -6.9468  -22.2147  -50.9402 H         1 UNK         0.0600 
    213 H213       -5.3972  -21.3824  -50.9719 H         1 UNK         0.0600 
    214 H214       -6.2756  -21.5370  -49.4596 H         1 UNK         0.0600 
    215 H215       -4.1449  -25.6340  -50.2153 H         1 UNK         0.3000 
    216 H216       -3.6209  -27.2106  -51.6773 H         1 UNK         0.0600 
    217 H217       -2.1512  -26.5623  -53.5445 H         1 UNK         0.0600 
    218 H218       -1.7834  -25.5629  -52.1467 H         1 UNK         0.0600 
    219 H219       -2.7251  -24.9037  -53.4833 H         1 UNK         0.0600 
    220 H220       -6.2235  -26.9730  -51.6550 H         1 UNK         0.3000 
    221 H221       -8.2004  -27.2046  -52.6026 H         1 UNK         0.0600 
    222 H222       -6.7194  -28.2726  -55.0658 H         1 UNK         0.0600 
    223 H223       -7.1534  -29.2207  -53.6439 H         1 UNK         0.0600 
    224 H224       -8.4096  -28.5419  -54.6664 H         1 UNK         0.0600 
    225 H225       -7.4832  -24.7081  -52.5047 H         1 UNK         0.3000 
    226 H226       -7.7140  -22.6195  -53.1637 H         1 UNK         0.0600 
    227 H227      -10.0964  -23.3370  -53.2696 H         1 UNK         0.0600 
    228 H228       -9.7669  -22.0557  -54.4240 H         1 UNK         0.0600 
    229 H229       -9.9212  -23.7167  -54.9824 H         1 UNK         0.0600 
    230 H230       -5.5027  -23.5847  -54.2823 H         1 UNK         0.3000 
    231 H231       -5.2999  -22.1445  -56.8650 H         1 UNK         0.0600 
    232 H232       -4.4616  -25.0739  -56.5674 H         1 UNK         0.0600 
    233 H233       -4.2610  -24.0741  -57.9992 H         1 UNK         0.0600 
    234 H234       -5.8730  -24.5161  -57.4624 H         1 UNK         0.0600 
    235 H235       -4.0106  -22.5494  -53.8177 H         1 UNK         0.3000 
    236 H236       -1.2764  -22.7806  -54.1755 H         1 UNK         0.0600 
    237 H237       -2.2598  -22.8829  -51.9600 H         1 UNK         0.0600 
    238 H238       -1.1400  -21.5404  -51.9502 H         1 UNK         0.0600 
    239 H239       -2.8667  -21.2299  -52.0698 H         1 UNK         0.0600 
    240 H240       -3.2078  -19.8841  -54.7254 H         1 UNK         0.3000 
    241 H241       -0.8257  -18.1948  -55.1512 H         1 UNK         0.0600 
    242 H242       -1.8950  -19.6687  -58.6723 H         1 UNK         0.3800 
    243 H243       -2.1694  -20.5124  -57.1699 H         1 UNK         0.3800 
    244 H244       -2.4440  -16.3298  -55.4627 H         1 UNK         0.0800 
    245 H245       -3.7766  -17.4443  -55.3054 H         1 UNK         0.0800 
    246 H246       -1.6311  -14.9062  -53.2833 H         1 UNK         0.0800 
    247 H247       -0.5117  -16.1885  -53.6839 H         1 UNK         0.0800 
@<TRIPOS>BOND
     1    1    2 1    
     2    1  127 1    
     3    1  128 1    
     4    1  129 1    
     5    2    3 2    
     6    2    4 am   BACKBONE|DICT|INTERRES
     7    4    5 1    
     8    4  130 1    
     9    5    6 1    
    10    5   65 1    
    11    5  131 1    
    12    6    7 1    
    13    6  132 1    
    14    6  133 1    
    15    7    8 1    
    16    8    9 1    
    17    8  134 1    
    18    8  135 1    
    19    9   10 ar   
    20    9   14 ar   
    21   10   11 ar   
    22   10  136 1    
    23   11   12 ar   
    24   11  126 1    
    25   12   13 ar   
    26   12  137 1    
    27   13   14 ar   
    28   13   15 1    
    29   14  138 1    
    30   15   16 1    
    31   15  139 1    
    32   15  140 1    
    33   16   17 1    
    34   17   18 1    
    35   17  141 1    
    36   17  142 1    
    37   18   19 1    
    38   18   67 1    
    39   18  143 1    
    40   19   20 am   BACKBONE|DICT|INTERRES
    41   19  144 1    
    42   20   21 2    
    43   20   22 1    
    44   22   23 1    
    45   22   24 1    
    46   22  145 1    
    47   23  146 1    
    48   23  147 1    
    49   23  148 1    
    50   24   25 am   BACKBONE|DICT|INTERRES
    51   24  149 1    
    52   25   26 2    
    53   25   27 1    
    54   27   28 1    
    55   27   29 1    
    56   27  150 1    
    57   28  151 1    
    58   28  152 1    
    59   28  153 1    
    60   29   30 am   BACKBONE|DICT|INTERRES
    61   29  154 1    
    62   30   31 2    
    63   30   32 1    
    64   32   33 1    
    65   32   34 1    
    66   32  155 1    
    67   33  156 1    
    68   33  157 1    
    69   33  158 1    
    70   34   35 am   BACKBONE|DICT|INTERRES
    71   34  159 1    
    72   35   36 2    
    73   35   37 1    
    74   37   38 1    
    75   37   39 1    
    76   37  160 1    
    77   38  161 1    
    78   38  162 1    
    79   38  163 1    
    80   39   40 am   BACKBONE|DICT|INTERRES
    81   39  164 1    
    82   40   41 2    
    83   40   42 1    
    84   42   43 1    
    85   42   44 1    
    86   42  165 1    
    87   43  166 1    
    88   43  167 1    
    89   43  168 1    
    90   44   45 am   BACKBONE|DICT|INTERRES
    91   44  169 1    
    92   45   46 2    
    93   45   47 1    
    94   47   48 1    
    95   47   49 1    
    96   47  170 1    
    97   48  171 1    
    98   48  172 1    
    99   48  173 1    
   100   49   50 am   BACKBONE|DICT|INTERRES
   101   49  174 1    
   102   50   51 2    
   103   50   52 1    
   104   52   53 1    
   105   52   54 1    
   106   52  175 1    
   107   53  176 1    
   108   53  177 1    
   109   53  178 1    
   110   54   55 am   BACKBONE|DICT|INTERRES
   111   54  179 1    
   112   55   56 2    
   113   55   57 1    
   114   57   58 1    
   115   57   59 1    
   116   57  180 1    
   117   58  181 1    
   118   58  182 1    
   119   58  183 1    
   120   59   60 am   BACKBONE|DICT|INTERRES
   121   59  184 1    
   122   60   61 2    
   123   60   62 1    
   124   62   63 1    
   125   62   64 1    
   126   62  185 1    
   127   63  186 1    
   128   63  187 1    
   129   63  188 1    
   130   64   65 am   BACKBONE|DICT|INTERRES
   131   64  189 1    
   132   65   66 2    
   133   67   68 2    
   134   67   69 am   BACKBONE|DICT|INTERRES
   135   69   70 1    
   136   69  190 1    
   137   70   71 1    
   138   70   72 1    
   139   70  191 1    
   140   71  192 1    
   141   71  193 1    
   142   71  194 1    
   143   72   73 2    
   144   72   74 am   BACKBONE|DICT|INTERRES
   145   74   75 1    
   146   74  195 1    
   147   75   76 1    
   148   75   77 1    
   149   75  196 1    
   150   76  197 1    
   151   76  198 1    
   152   76  199 1    
   153   77   78 2    
   154   77   79 am   BACKBONE|DICT|INTERRES
   155   79   80 1    
   156   79  200 1    
   157   80   81 1    
   158   80   82 1    
   159   80  201 1    
   160   81  202 1    
   161   81  203 1    
   162   81  204 1    
   163   82   83 2    
   164   82   84 am   BACKBONE|DICT|INTERRES
   165   84   85 1    
   166   84  205 1    
   167   85   86 1    
   168   85   87 1    
   169   85  206 1    
   170   86  207 1    
   171   86  208 1    
   172   86  209 1    
   173   87   88 2    
   174   87   89 am   BACKBONE|DICT|INTERRES
   175   89   90 1    
   176   89  210 1    
   177   90   91 1    
   178   90   92 1    
   179   90  211 1    
   180   91  212 1    
   181   91  213 1    
   182   91  214 1    
   183   92   93 2    
   184   92   94 am   BACKBONE|DICT|INTERRES
   185   94   95 1    
   186   94  215 1    
   187   95   96 1    
   188   95   97 1    
   189   95  216 1    
   190   96  217 1    
   191   96  218 1    
   192   96  219 1    
   193   97   98 2    
   194   97   99 am   BACKBONE|DICT|INTERRES
   195   99  100 1    
   196   99  220 1    
   197  100  101 1    
   198  100  102 1    
   199  100  221 1    
   200  101  222 1    
   201  101  223 1    
   202  101  224 1    
   203  102  103 2    
   204  102  104 am   BACKBONE|DICT|INTERRES
   205  104  105 1    
   206  104  225 1    
   207  105  106 1    
   208  105  107 1    
   209  105  226 1    
   210  106  227 1    
   211  106  228 1    
   212  106  229 1    
   213  107  108 2    
   214  107  109 am   BACKBONE|DICT|INTERRES
   215  109  110 1    
   216  109  230 1    
   217  110  111 1    
   218  110  112 1    
   219  110  231 1    
   220  111  232 1    
   221  111  233 1    
   222  111  234 1    
   223  112  113 2    
   224  112  114 am   BACKBONE|DICT|INTERRES
   225  114  115 1    
   226  114  235 1    
   227  115  116 1    
   228  115  117 1    
   229  115  236 1    
   230  116  237 1    
   231  116  238 1    
   232  116  239 1    
   233  117  118 2    
   234  117  119 am   BACKBONE|DICT|INTERRES
   235  119  120 1    
   236  119  240 1    
   237  120  121 1    
   238  120  124 1    
   239  120  241 1    
   240  121  122 am   BACKBONE|DICT|INTERRES
   241  121  123 2    
   242  122  242 1    
   243  122  243 1    
   244  124  125 1    
   245  124  244 1    
   246  124  245 1    
   247  125  126 1    
   248  126  246 1    
   249  126  247 1    
@<TRIPOS>SUBSTRUCTURE
     1 UNK         1 GROUP             0       ****    0 ROOT    
