@<TRIPOS>MOLECULE
3R540
247   249    1
SMALL
USER_CHARGES


@<TRIPOS>ATOM
      1 CA          2.6724  -10.9822  -47.6653 C.3       0 UNK        -0.1800 
      2 C           1.7324  -10.5486  -48.7887 C.2       0 UNK         0.5000 
      3 O           1.7267   -9.3738  -49.1512 O.2       0 UNK        -0.5000 
      4 N           0.9370  -11.4498  -49.3792 N.am      1 UNK        -0.5000 
      5 CA          0.7697  -12.8580  -49.0055 C.3       1 UNK         0.1400 
      6 C6          0.1992  -13.6943  -50.1727 C.3       23 UNK        -0.0398 
      7 S7          1.3739  -13.8600  -51.5596 S.3       23 UNK        -0.2404 
      8 C8          0.2957  -14.5160  -52.8774 C.3       23 UNK        -0.0205 
      9 C9         -0.5457  -15.6901  -52.3979 C.ar      23 UNK        -0.0193 
     10 C10        -1.9137  -15.5222  -52.1674 C.ar      23 UNK        -0.1150 
     11 C11        -2.6841  -16.5741  -51.6664 C.ar      23 UNK        -0.0193 
     12 C12        -2.0771  -17.8058  -51.4065 C.ar      23 UNK        -0.1150 
     13 C13        -0.7072  -17.9860  -51.6279 C.ar      23 UNK        -0.0193 
     14 C14         0.0497  -16.9271  -52.1370 C.ar      23 UNK        -0.1150 
     15 C15        -0.0326  -19.3116  -51.3016 C.3       23 UNK        -0.0205 
     16 S16         0.8425  -19.2559  -49.7006 S.3       23 UNK        -0.2404 
     17 C17        -0.5466  -19.2572  -48.5196 C.3       23 UNK        -0.0398 
     18 CA         -0.7618  -20.6563  -47.8871 C.3       11 UNK         0.1400 
     19 N           0.1520  -20.9217  -46.7797 N.am      11 UNK        -0.5000 
     20 C           0.7824  -22.0858  -46.5805 C.2       10 UNK         0.5000 
     21 O           0.6380  -23.0779  -47.2943 O.2       10 UNK        -0.5000 
     22 CA          1.7613  -22.1524  -45.3953 C.3       10 UNK         0.1400 
     23 CB          3.0884  -21.4659  -45.7535 C.3       10 UNK        -0.1800 
     24 N           1.2239  -21.5665  -44.1681 N.am      10 UNK        -0.5000 
     25 C           0.2413  -22.1088  -43.4355 C.2       9 UNK         0.5000 
     26 O          -0.3214  -23.1667  -43.7181 O.2       9 UNK        -0.5000 
     27 CA         -0.1859  -21.3378  -42.1715 C.3       9 UNK         0.1400 
     28 CB          0.7734  -21.6248  -41.0065 C.3       9 UNK        -0.1800 
     29 N          -0.2765  -19.8954  -42.3939 N.am      9 UNK        -0.5000 
     30 C          -1.1676  -19.3115  -43.2066 C.2       8 UNK         0.5000 
     31 O          -2.0543  -19.9247  -43.7987 O.2       8 UNK        -0.5000 
     32 CA         -1.0167  -17.7970  -43.4391 C.3       8 UNK         0.1400 
     33 CB         -1.7023  -16.9955  -42.3245 C.3       8 UNK        -0.1800 
     34 N           0.3813  -17.3822  -43.5563 N.am      8 UNK        -0.5000 
     35 C           1.2099  -17.7820  -44.5309 C.2       7 UNK         0.5000 
     36 O           0.8630  -18.4981  -45.4686 O.2       7 UNK        -0.5000 
     37 CA          2.6792  -17.3455  -44.4136 C.3       7 UNK         0.1400 
     38 CB          2.8779  -15.9134  -44.9338 C.3       7 UNK        -0.1800 
     39 N           3.1644  -17.4480  -43.0377 N.am      7 UNK        -0.5000 
     40 C           3.3779  -18.6085  -42.4013 C.2       6 UNK         0.5000 
     41 O           3.2220  -19.7117  -42.9236 O.2       6 UNK        -0.5000 
     42 CA          3.7950  -18.5196  -40.9221 C.3       6 UNK         0.1400 
     43 CB          5.3087  -18.2909  -40.7990 C.3       6 UNK        -0.1800 
     44 N           3.0839  -17.4624  -40.2014 N.am      6 UNK        -0.5000 
     45 C           1.7673  -17.4724  -39.9483 C.2       5 UNK         0.5000 
     46 O           1.0181  -18.3949  -40.2649 O.2       5 UNK        -0.5000 
     47 CA          1.1821  -16.2154  -39.2779 C.3       5 UNK         0.1400 
     48 CB          1.3074  -16.3090  -37.7501 C.3       5 UNK        -0.1800 
     49 N           1.8020  -14.9709  -39.7438 N.am      5 UNK        -0.5000 
     50 C           1.7681  -14.5374  -41.0101 C.2       4 UNK         0.5000 
     51 O           1.2287  -15.1562  -41.9314 O.2       4 UNK        -0.5000 
     52 CA          2.5219  -13.2338  -41.3100 C.3       4 UNK         0.1400 
     53 CB          3.9873  -13.5413  -41.6571 C.3       4 UNK        -0.1800 
     54 N           1.9031  -12.5584  -42.4460 N.am      4 UNK        -0.5000 
     55 C           0.9242  -11.6497  -42.3577 C.2       3 UNK         0.5000 
     56 O           0.5076  -11.1860  -41.2954 O.2       3 UNK        -0.5000 
     57 CA          0.2980  -11.1946  -43.6882 C.3       3 UNK         0.1400 
     58 CB          1.1032  -10.0368  -44.2990 C.3       3 UNK        -0.1800 
     59 N           0.2136  -12.2876  -44.6591 N.am      3 UNK        -0.5000 
     60 C          -0.6993  -13.2688  -44.6214 C.2       2 UNK         0.5000 
     61 O          -1.5829  -13.3366  -43.7663 O.2       2 UNK        -0.5000 
     62 CA         -0.5991  -14.3617  -45.7109 C.3       2 UNK         0.1400 
     63 CB         -1.9716  -14.9556  -46.0929 C.3       2 UNK        -0.1800 
     64 N           0.1506  -13.9689  -46.9151 N.am      2 UNK        -0.5000 
     65 C          -0.1535  -12.9861  -47.7769 C.2       1 UNK         0.5000 
     66 O          -1.1097  -12.2194  -47.6459 O.2       1 UNK        -0.5000 
     67 C          -2.2165  -20.8736  -47.4427 C.2       11 UNK         0.5000 
     68 O          -2.7877  -21.9184  -47.7582 O.2       11 UNK        -0.5000 
     69 N          -2.8120  -19.8617  -46.7965 N.am      12 UNK        -0.5000 
     70 CA         -4.2546  -19.7210  -46.5720 C.3       12 UNK         0.1400 
     71 CB         -4.5280  -18.4017  -45.8326 C.3       12 UNK        -0.1800 
     72 C          -4.9154  -20.9071  -45.8480 C.2       12 UNK         0.5000 
     73 O          -5.9435  -21.4040  -46.3102 O.2       12 UNK        -0.5000 
     74 N          -4.2881  -21.3725  -44.7612 N.am      13 UNK        -0.5000 
     75 CA         -4.7498  -22.5080  -43.9569 C.3       13 UNK         0.1400 
     76 CB         -3.9569  -22.5464  -42.6438 C.3       13 UNK        -0.1800 
     77 C          -4.6436  -23.8652  -44.6818 C.2       13 UNK         0.5000 
     78 O          -5.3187  -24.8155  -44.2853 O.2       13 UNK        -0.5000 
     79 N          -3.8148  -23.9286  -45.7305 N.am      14 UNK        -0.5000 
     80 CA         -3.5927  -25.0987  -46.5760 C.3       14 UNK         0.1400 
     81 CB         -2.0789  -25.2551  -46.7951 C.3       14 UNK        -0.1800 
     82 C          -4.3514  -24.9895  -47.9140 C.2       14 UNK         0.5000 
     83 O          -3.9889  -25.6813  -48.8644 O.2       14 UNK        -0.5000 
     84 N          -5.3717  -24.1191  -47.9849 N.am      15 UNK        -0.5000 
     85 CA         -6.2102  -23.8441  -49.1586 C.3       15 UNK         0.1400 
     86 CB         -7.0644  -25.0756  -49.5274 C.3       15 UNK        -0.1800 
     87 C          -5.3852  -23.3026  -50.3438 C.2       15 UNK         0.5000 
     88 O          -5.4645  -23.8248  -51.4566 O.2       15 UNK        -0.5000 
     89 N          -4.5782  -22.2744  -50.0504 N.am      16 UNK        -0.5000 
     90 CA         -3.6139  -21.6218  -50.9373 C.3       16 UNK         0.1400 
     91 CB         -4.3058  -20.9645  -52.1498 C.3       16 UNK        -0.1800 
     92 C          -2.4624  -22.5666  -51.3268 C.2       16 UNK         0.5000 
     93 O          -2.1191  -22.6647  -52.5035 O.2       16 UNK        -0.5000 
     94 N          -1.8856  -23.2375  -50.3205 N.am      17 UNK        -0.5000 
     95 CA         -0.7373  -24.1499  -50.4180 C.3       17 UNK         0.1400 
     96 CB          0.5243  -23.3987  -50.8989 C.3       17 UNK        -0.1800 
     97 C          -1.0197  -25.4322  -51.2343 C.2       17 UNK         0.5000 
     98 O          -0.1029  -25.9787  -51.8491 O.2       17 UNK        -0.5000 
     99 N          -2.2777  -25.8946  -51.1921 N.am      18 UNK        -0.5000 
    100 CA        -2.8232  -27.1338  -51.7563 C.3       18 UNK         0.1400 
    101 CB        -2.4800  -28.3020  -50.8090 C.3       18 UNK        -0.1800 
    102 C         -2.4167  -27.4304  -53.2240 C.2       18 UNK         0.5000 
    103 O         -1.7131  -28.4112  -53.4683 O.2       18 UNK        -0.5000 
    104 N         -2.8281  -26.6328  -54.2177 N.am      19 UNK        -0.5000 
    105 CA        -3.6369  -25.4218  -54.1551 C.3       19 UNK         0.1400 
    106 CB        -5.1356  -25.7737  -54.1851 C.3       19 UNK        -0.1800 
    107 C         -3.2383  -24.5642  -55.3631 C.2       19 UNK         0.5000 
    108 O         -3.4942  -24.9619  -56.5013 O.2       19 UNK        -0.5000 
    109 N         -2.6015  -23.4188  -55.1020 N.am      20 UNK        -0.5000 
    110 CA        -2.1751  -22.4420  -56.1068 C.3       20 UNK         0.1400 
    111 CB        -0.9920  -21.6424  -55.5357 C.3       20 UNK        -0.1800 
    112 C         -3.3082  -21.4854  -56.5281 C.2       20 UNK         0.5000 
    113 O         -3.1233  -20.7063  -57.4649 O.2       20 UNK        -0.5000 
    114 N         -4.4366  -21.5212  -55.7997 N.am      21 UNK        -0.5000 
    115 CA        -5.6414  -20.6954  -55.9670 C.3       21 UNK         0.1400 
    116 CB        -6.3659  -21.0633  -57.2780 C.3       21 UNK        -0.1800 
    117 C         -5.3768  -19.1778  -55.8403 C.2       21 UNK         0.5000 
    118 O         -6.1363  -18.3727  -56.3816 O.2       21 UNK        -0.5000 
    119 N         -4.2937  -18.8260  -55.1339 N.am      22 UNK        -0.5000 
    120 CA        -3.7667  -17.4643  -54.9450 C.3       22 UNK         0.1400 
    121 C         -3.2095  -16.8078  -56.2460 C.2       22 UNK         0.5000 
    122 N         -2.9071  -17.5683  -57.2936 N.am      22 UNK        -0.7600 
    123 O         -3.0175  -15.5963  -56.3036 O.2       22 UNK        -0.5000 
    124 C124       -4.7348  -16.5360  -54.1563 C.3       23 UNK        -0.0398 
    125 S125       -5.2357  -17.2570  -52.5524 S.3       23 UNK        -0.2404 
    126 C126       -4.1649  -16.3671  -51.3803 C.3       23 UNK        -0.0205 
    127 H127        3.4111  -11.6932  -48.0351 H         1 UNK         0.0600 
    128 H128        2.1247  -11.4388  -46.8436 H         1 UNK         0.0600 
    129 H129        3.2104  -10.1226  -47.2647 H         1 UNK         0.0600 
    130 H130        0.3189  -11.1313  -50.1110 H         1 UNK         0.3000 
    131 H131        1.7460  -13.2719  -48.7461 H         1 UNK         0.0600 
    132 H132       -0.0447  -14.7037  -49.8343 H         1 UNK         0.0800 
    133 H133       -0.7322  -13.2585  -50.5393 H         1 UNK         0.0800 
    134 H134       -0.3418  -13.7117  -53.2480 H         1 UNK         0.0800 
    135 H135        0.9123  -14.8306  -53.7205 H         1 UNK         0.0800 
    136 H136       -2.3753  -14.5636  -52.3586 H         1 UNK         0.1150 
    137 H137       -2.6762  -18.6153  -51.0183 H         1 UNK         0.1150 
    138 H138        1.1113  -17.0544  -52.2974 H         1 UNK         0.1150 
    139 H139        0.6863  -19.5531  -52.0859 H         1 UNK         0.0800 
    140 H140       -0.7571  -20.1257  -51.2978 H         1 UNK         0.0800 
    141 H141       -1.4412  -18.9180  -49.0390 H         1 UNK         0.0800 
    142 H142       -0.3531  -18.5024  -47.7573 H         1 UNK         0.0800 
    143 H143       -0.5905  -21.3886  -48.6767 H         1 UNK         0.0600 
    144 H144        0.3586  -20.1382  -46.1640 H         1 UNK         0.3000 
    145 H145        1.9720  -23.2061  -45.2004 H         1 UNK         0.0600 
    146 H146        3.8232  -21.5896  -44.9578 H         1 UNK         0.0600 
    147 H147        3.5169  -21.8925  -46.6612 H         1 UNK         0.0600 
    148 H148        2.9562  -20.3970  -45.9234 H         1 UNK         0.0600 
    149 H149        1.6741  -20.7217  -43.8333 H         1 UNK         0.3000 
    150 H150       -1.1746  -21.6904  -41.8773 H         1 UNK         0.0600 
    151 H151        0.8413  -22.6957  -40.8117 H         1 UNK         0.0600 
    152 H152        0.4302  -21.1487  -40.0879 H         1 UNK         0.0600 
    153 H153        1.7809  -21.2641  -41.2133 H         1 UNK         0.0600 
    154 H154        0.3746  -19.3121  -41.8776 H         1 UNK         0.3000 
    155 H155       -1.5133  -17.5587  -44.3815 H         1 UNK         0.0600 
    156 H156       -2.7605  -17.2503  -42.2558 H         1 UNK         0.0600 
    157 H157       -1.6360  -15.9235  -42.5122 H         1 UNK         0.0600 
    158 H158       -1.2521  -17.1926  -41.3517 H         1 UNK         0.0600 
    159 H159        0.7327  -16.7483  -42.8431 H         1 UNK         0.3000 
    160 H160        3.2758  -18.0152  -45.0367 H         1 UNK         0.0600 
    161 H161        2.3089  -15.1854  -44.3565 H         1 UNK         0.0600 
    162 H162        2.5603  -15.8323  -45.9737 H         1 UNK         0.0600 
    163 H163        3.9280  -15.6239  -44.8940 H         1 UNK         0.0600 
    164 H164        3.2611  -16.5870  -42.5216 H         1 UNK         0.3000 
    165 H165        3.5540  -19.4745  -40.4502 H         1 UNK         0.0600 
    166 H166        5.6255  -18.3032  -39.7559 H         1 UNK         0.0600 
    167 H167        5.8645  -19.0747  -41.3154 H         1 UNK         0.0600 
    168 H168        5.6102  -17.3356  -41.2305 H         1 UNK         0.0600 
    169 H169        3.6262  -16.6654  -39.9032 H         1 UNK         0.3000 
    170 H170        0.1206  -16.1721  -39.5299 H         1 UNK         0.0600 
    171 H171        0.8367  -17.2189  -37.3752 H         1 UNK         0.0600 
    172 H172        2.3501  -16.3230  -37.4302 H         1 UNK         0.0600 
    173 H173        0.8170  -15.4667  -37.2617 H         1 UNK         0.0600 
    174 H174        2.2760  -14.4156  -39.0460 H         1 UNK         0.3000 
    175 H175        2.4948  -12.5900  -40.4283 H         1 UNK         0.0600 
    176 H176        4.0710  -14.1936  -42.5271 H         1 UNK         0.0600 
    177 H177        4.5389  -12.6261  -41.8730 H         1 UNK         0.0600 
    178 H178        4.4932  -14.0345  -40.8262 H         1 UNK         0.0600 
    179 H179        2.1344  -12.9207  -43.3576 H         1 UNK         0.3000 
    180 H180       -0.7112  -10.8330  -43.4793 H         1 UNK         0.0600 
    181 H181        2.1309  -10.3287  -44.5185 H         1 UNK         0.0600 
    182 H182        1.1436   -9.1884  -43.6147 H         1 UNK         0.0600 
    183 H183        0.6481   -9.6847  -45.2252 H         1 UNK         0.0600 
    184 H184        0.8930  -12.2941  -45.4030 H         1 UNK         0.3000 
    185 H185       -0.0246  -15.1648  -45.2527 H         1 UNK         0.0600 
    186 H186       -2.4798  -15.3691  -45.2211 H         1 UNK         0.0600 
    187 H187       -2.6309  -14.2036  -46.5270 H         1 UNK         0.0600 
    188 H188       -1.8631  -15.7648  -46.8153 H         1 UNK         0.0600 
    189 H189        0.9573  -14.5422  -47.1185 H         1 UNK         0.3000 
    190 H190       -2.2473  -19.0775  -46.5084 H         1 UNK         0.3000 
    191 H191       -4.7208  -19.6503  -47.5569 H         1 UNK         0.0600 
    192 H192       -4.0550  -18.3820  -44.8504 H         1 UNK         0.0600 
    193 H193       -4.1593  -17.5464  -46.3994 H         1 UNK         0.0600 
    194 H194       -5.5981  -18.2530  -45.6827 H         1 UNK         0.0600 
    195 H195       -3.4382  -20.9019  -44.4514 H         1 UNK         0.3000 
    196 H196       -5.8020  -22.3429  -43.7162 H         1 UNK         0.0600 
    197 H197       -4.3645  -23.2949  -41.9633 H         1 UNK         0.0600 
    198 H198       -3.9852  -21.5854  -42.1297 H         1 UNK         0.0600 
    199 H199       -2.9146  -22.8046  -42.8257 H         1 UNK         0.0600 
    200 H200       -3.3384  -23.0834  -46.0219 H         1 UNK         0.3000 
    201 H201       -3.9549  -26.0000  -46.0783 H         1 UNK         0.0600 
    202 H202       -1.8488  -26.1461  -47.3806 H         1 UNK         0.0600 
    203 H203       -1.5500  -25.3448  -45.8460 H         1 UNK         0.0600 
    204 H204       -1.6669  -24.3961  -47.3224 H         1 UNK         0.0600 
    205 H205       -5.5680  -23.5562  -47.1671 H         1 UNK         0.3000 
    206 H206       -6.8938  -23.0447  -48.8686 H         1 UNK         0.0600 
    207 H207       -7.6474  -25.4206  -48.6735 H         1 UNK         0.0600 
    208 H208       -7.7680  -24.8351  -50.3252 H         1 UNK         0.0600 
    209 H209       -6.4527  -25.9088  -49.8747 H         1 UNK         0.0600 
    210 H210       -4.5219  -21.9948  -49.0790 H         1 UNK         0.3000 
    211 H211       -3.1616  -20.8210  -50.3532 H         1 UNK         0.0600 
    212 H212       -5.1032  -20.2934  -51.8315 H         1 UNK         0.0600 
    213 H213       -3.5943  -20.3721  -52.7252 H         1 UNK         0.0600 
    214 H214       -4.7392  -21.7021  -52.8245 H         1 UNK         0.0600 
    215 H215       -2.2548  -23.0927  -49.3870 H         1 UNK         0.3000 
    216 H216       -0.5376  -24.4900  -49.4020 H         1 UNK         0.0600 
    217 H217        1.4085  -24.0321  -50.8210 H         1 UNK         0.0600 
    218 H218        0.4407  -23.0842  -51.9395 H         1 UNK         0.0600 
    219 H219        0.7150  -22.5126  -50.2947 H         1 UNK         0.0600 
    220 H220       -2.9319  -25.3932  -50.6007 H         1 UNK         0.3000 
    221 H221       -3.9072  -27.0246  -51.7414 H         1 UNK         0.0600 
    222 H222       -1.4031  -28.4567  -50.7329 H         1 UNK         0.0600 
    223 H223       -2.8619  -28.1183  -49.8046 H         1 UNK         0.0600 
    224 H224       -2.9246  -29.2349  -51.1575 H         1 UNK         0.0600 
    225 H225       -2.5216  -26.8543  -55.1551 H         1 UNK         0.3000 
    226 H226       -3.4302  -24.8587  -53.2470 H         1 UNK         0.0600 
    227 H227       -5.4384  -26.3336  -53.3015 H         1 UNK         0.0600 
    228 H228       -5.7434  -24.8684  -54.2108 H         1 UNK         0.0600 
    229 H229       -5.3946  -26.3688  -55.0616 H         1 UNK         0.0600 
    230 H230       -2.3970  -23.1732  -54.1316 H         1 UNK         0.3000 
    231 H231       -1.8356  -22.9686  -57.0010 H         1 UNK         0.0600 
    232 H232       -0.6028  -20.9365  -56.2705 H         1 UNK         0.0600 
    233 H233       -0.1710  -22.3015  -55.2529 H         1 UNK         0.0600 
    234 H234       -1.2799  -21.0711  -54.6520 H         1 UNK         0.0600 
    235 H235       -4.4682  -22.1901  -55.0445 H         1 UNK         0.3000 
    236 H236       -6.3043  -20.9530  -55.1397 H         1 UNK         0.0600 
    237 H237       -6.5491  -22.1361  -57.3392 H         1 UNK         0.0600 
    238 H238       -7.3345  -20.5665  -57.3449 H         1 UNK         0.0600 
    239 H239       -5.7874  -20.7712  -58.1550 H         1 UNK         0.0600 
    240 H240       -3.7342  -19.5663  -54.7409 H         1 UNK         0.3000 
    241 H241       -2.8797  -17.5939  -54.3251 H         1 UNK         0.0600 
    242 H242       -2.5387  -17.1365  -58.1262 H         1 UNK         0.3800 
    243 H243       -3.0515  -18.5709  -57.2729 H         1 UNK         0.3800 
    244 H244       -4.2776  -15.5619  -53.9777 H         1 UNK         0.0800 
    245 H245       -5.6344  -16.3378  -54.7399 H         1 UNK         0.0800 
    246 H246       -4.4198  -15.3063  -51.3990 H         1 UNK         0.0800 
    247 H247       -4.3853  -16.7140  -50.3698 H         1 UNK         0.0800 
@<TRIPOS>BOND
     1    1    2 1    
     2    1  127 1    
     3    1  128 1    
     4    1  129 1    
     5    2    3 2    
     6    2    4 am   BACKBONE|DICT|INTERRES
     7    4    5 1    
     8    4  130 1    
     9    5    6 1    
    10    5   65 1    
    11    5  131 1    
    12    6    7 1    
    13    6  132 1    
    14    6  133 1    
    15    7    8 1    
    16    8    9 1    
    17    8  134 1    
    18    8  135 1    
    19    9   10 ar   
    20    9   14 ar   
    21   10   11 ar   
    22   10  136 1    
    23   11   12 ar   
    24   11  126 1    
    25   12   13 ar   
    26   12  137 1    
    27   13   14 ar   
    28   13   15 1    
    29   14  138 1    
    30   15   16 1    
    31   15  139 1    
    32   15  140 1    
    33   16   17 1    
    34   17   18 1    
    35   17  141 1    
    36   17  142 1    
    37   18   19 1    
    38   18   67 1    
    39   18  143 1    
    40   19   20 am   BACKBONE|DICT|INTERRES
    41   19  144 1    
    42   20   21 2    
    43   20   22 1    
    44   22   23 1    
    45   22   24 1    
    46   22  145 1    
    47   23  146 1    
    48   23  147 1    
    49   23  148 1    
    50   24   25 am   BACKBONE|DICT|INTERRES
    51   24  149 1    
    52   25   26 2    
    53   25   27 1    
    54   27   28 1    
    55   27   29 1    
    56   27  150 1    
    57   28  151 1    
    58   28  152 1    
    59   28  153 1    
    60   29   30 am   BACKBONE|DICT|INTERRES
    61   29  154 1    
    62   30   31 2    
    63   30   32 1    
    64   32   33 1    
    65   32   34 1    
    66   32  155 1    
    67   33  156 1    
    68   33  157 1    
    69   33  158 1    
    70   34   35 am   BACKBONE|DICT|INTERRES
    71   34  159 1    
    72   35   36 2    
    73   35   37 1    
    74   37   38 1    
    75   37   39 1    
    76   37  160 1    
    77   38  161 1    
    78   38  162 1    
    79   38  163 1    
    80   39   40 am   BACKBONE|DICT|INTERRES
    81   39  164 1    
    82   40   41 2    
    83   40   42 1    
    84   42   43 1    
    85   42   44 1    
    86   42  165 1    
    87   43  166 1    
    88   43  167 1    
    89   43  168 1    
    90   44   45 am   BACKBONE|DICT|INTERRES
    91   44  169 1    
    92   45   46 2    
    93   45   47 1    
    94   47   48 1    
    95   47   49 1    
    96   47  170 1    
    97   48  171 1    
    98   48  172 1    
    99   48  173 1    
   100   49   50 am   BACKBONE|DICT|INTERRES
   101   49  174 1    
   102   50   51 2    
   103   50   52 1    
   104   52   53 1    
   105   52   54 1    
   106   52  175 1    
   107   53  176 1    
   108   53  177 1    
   109   53  178 1    
   110   54   55 am   BACKBONE|DICT|INTERRES
   111   54  179 1    
   112   55   56 2    
   113   55   57 1    
   114   57   58 1    
   115   57   59 1    
   116   57  180 1    
   117   58  181 1    
   118   58  182 1    
   119   58  183 1    
   120   59   60 am   BACKBONE|DICT|INTERRES
   121   59  184 1    
   122   60   61 2    
   123   60   62 1    
   124   62   63 1    
   125   62   64 1    
   126   62  185 1    
   127   63  186 1    
   128   63  187 1    
   129   63  188 1    
   130   64   65 am   BACKBONE|DICT|INTERRES
   131   64  189 1    
   132   65   66 2    
   133   67   68 2    
   134   67   69 am   BACKBONE|DICT|INTERRES
   135   69   70 1    
   136   69  190 1    
   137   70   71 1    
   138   70   72 1    
   139   70  191 1    
   140   71  192 1    
   141   71  193 1    
   142   71  194 1    
   143   72   73 2    
   144   72   74 am   BACKBONE|DICT|INTERRES
   145   74   75 1    
   146   74  195 1    
   147   75   76 1    
   148   75   77 1    
   149   75  196 1    
   150   76  197 1    
   151   76  198 1    
   152   76  199 1    
   153   77   78 2    
   154   77   79 am   BACKBONE|DICT|INTERRES
   155   79   80 1    
   156   79  200 1    
   157   80   81 1    
   158   80   82 1    
   159   80  201 1    
   160   81  202 1    
   161   81  203 1    
   162   81  204 1    
   163   82   83 2    
   164   82   84 am   BACKBONE|DICT|INTERRES
   165   84   85 1    
   166   84  205 1    
   167   85   86 1    
   168   85   87 1    
   169   85  206 1    
   170   86  207 1    
   171   86  208 1    
   172   86  209 1    
   173   87   88 2    
   174   87   89 am   BACKBONE|DICT|INTERRES
   175   89   90 1    
   176   89  210 1    
   177   90   91 1    
   178   90   92 1    
   179   90  211 1    
   180   91  212 1    
   181   91  213 1    
   182   91  214 1    
   183   92   93 2    
   184   92   94 am   BACKBONE|DICT|INTERRES
   185   94   95 1    
   186   94  215 1    
   187   95   96 1    
   188   95   97 1    
   189   95  216 1    
   190   96  217 1    
   191   96  218 1    
   192   96  219 1    
   193   97   98 2    
   194   97   99 am   BACKBONE|DICT|INTERRES
   195   99  100 1    
   196   99  220 1    
   197  100  101 1    
   198  100  102 1    
   199  100  221 1    
   200  101  222 1    
   201  101  223 1    
   202  101  224 1    
   203  102  103 2    
   204  102  104 am   BACKBONE|DICT|INTERRES
   205  104  105 1    
   206  104  225 1    
   207  105  106 1    
   208  105  107 1    
   209  105  226 1    
   210  106  227 1    
   211  106  228 1    
   212  106  229 1    
   213  107  108 2    
   214  107  109 am   BACKBONE|DICT|INTERRES
   215  109  110 1    
   216  109  230 1    
   217  110  111 1    
   218  110  112 1    
   219  110  231 1    
   220  111  232 1    
   221  111  233 1    
   222  111  234 1    
   223  112  113 2    
   224  112  114 am   BACKBONE|DICT|INTERRES
   225  114  115 1    
   226  114  235 1    
   227  115  116 1    
   228  115  117 1    
   229  115  236 1    
   230  116  237 1    
   231  116  238 1    
   232  116  239 1    
   233  117  118 2    
   234  117  119 am   BACKBONE|DICT|INTERRES
   235  119  120 1    
   236  119  240 1    
   237  120  121 1    
   238  120  124 1    
   239  120  241 1    
   240  121  122 am   BACKBONE|DICT|INTERRES
   241  121  123 2    
   242  122  242 1    
   243  122  243 1    
   244  124  125 1    
   245  124  244 1    
   246  124  245 1    
   247  125  126 1    
   248  126  246 1    
   249  126  247 1    
@<TRIPOS>SUBSTRUCTURE
     1 UNK         1 GROUP             0       ****    0 ROOT    
