@<TRIPOS>MOLECULE
3R540
247   249    1
SMALL
USER_CHARGES


@<TRIPOS>ATOM
      1 CA         -3.0164  -12.2831  -47.0410 C.3       0 UNK        -0.1800 
      2 C          -1.5895  -11.8502  -46.7408 C.2       0 UNK         0.5000 
      3 O          -1.0155  -12.3022  -45.7507 O.2       0 UNK        -0.5000 
      4 N          -1.0222  -10.9826  -47.5920 N.am      1 UNK        -0.5000 
      5 CA          0.3399  -10.4335  -47.5198 C.3       1 UNK         0.1400 
      6 C6          1.4314  -11.4722  -47.8983 C.3       23 UNK        -0.0398 
      7 S7          1.3466  -11.9367  -49.6634 S.3       23 UNK        -0.2404 
      8 C8          1.9563  -13.6563  -49.6363 C.3       23 UNK        -0.0205 
      9 C9          0.9168  -14.6608  -50.1195 C.ar      23 UNK        -0.0193 
     10 C10         1.2413  -15.5808  -51.1223 C.ar      23 UNK        -0.1150 
     11 C11         0.3218  -16.5501  -51.5385 C.ar      23 UNK        -0.0193 
     12 C12        -0.9417  -16.5853  -50.9325 C.ar      23 UNK        -0.1150 
     13 C13        -1.2800  -15.6736  -49.9302 C.ar      23 UNK        -0.0193 
     14 C14        -0.3505  -14.7102  -49.5332 C.ar      23 UNK        -0.1150 
     15 C15        -2.6435  -15.7476  -49.2654 C.3       23 UNK        -0.0205 
     16 S16        -2.7046  -17.1017  -48.0481 S.3       23 UNK        -0.2404 
     17 C17        -4.1650  -18.0397  -48.6215 C.3       23 UNK        -0.0398 
     18 CA         -4.1788  -19.5272  -48.1942 C.3       11 UNK         0.1400 
     19 N          -3.0185  -20.2686  -48.7010 N.am      11 UNK        -0.5000 
     20 C          -2.8711  -21.5977  -48.6228 C.2       10 UNK         0.5000 
     21 O          -3.7265  -22.3495  -48.1578 O.2       10 UNK        -0.5000 
     22 CA         -1.5467  -22.2029  -49.1118 C.3       10 UNK         0.1400 
     23 CB         -1.7239  -22.6964  -50.5515 C.3       10 UNK        -0.1800 
     24 N          -0.3855  -21.3118  -49.0317 N.am      10 UNK        -0.5000 
     25 C           0.0655  -20.7096  -47.9235 C.2       9 UNK         0.5000 
     26 O          -0.5259  -20.7260  -46.8394 O.2       9 UNK        -0.5000 
     27 CA          1.3744  -19.9207  -48.0775 C.3       9 UNK         0.1400 
     28 CB          1.0885  -18.5482  -48.6940 C.3       9 UNK        -0.1800 
     29 N           2.0652  -19.7608  -46.7956 N.am      9 UNK        -0.5000 
     30 C           2.7818  -20.7371  -46.2207 C.2       8 UNK         0.5000 
     31 O           2.9397  -21.8513  -46.7222 O.2       8 UNK        -0.5000 
     32 CA          3.4554  -20.4269  -44.8757 C.3       8 UNK         0.1400 
     33 CB          4.8020  -19.7211  -45.1019 C.3       8 UNK        -0.1800 
     34 N           2.6256  -19.5926  -44.0093 N.am      8 UNK        -0.5000 
     35 C           1.8863  -20.0548  -42.9901 C.2       7 UNK         0.5000 
     36 O           1.7292  -21.2553  -42.7619 O.2       7 UNK        -0.5000 
     37 CA          1.2227  -19.0145  -42.0556 C.3       7 UNK         0.1400 
     38 CB          1.1623  -19.4841  -40.5878 C.3       7 UNK        -0.1800 
     39 N           1.8058  -17.6728  -42.1519 N.am      7 UNK        -0.5000 
     40 C           3.0671  -17.2939  -41.8875 C.2       6 UNK         0.5000 
     41 O           3.9014  -18.0294  -41.3576 O.2       6 UNK        -0.5000 
     42 CA          3.4801  -15.8684  -42.3310 C.3       6 UNK         0.1400 
     43 CB          4.9545  -15.8016  -42.7777 C.3       6 UNK        -0.1800 
     44 N           2.6165  -15.2877  -43.3675 N.am      6 UNK        -0.5000 
     45 C           2.3123  -15.8019  -44.5690 C.2       5 UNK         0.5000 
     46 O           2.8018  -16.8406  -45.0192 O.2       5 UNK        -0.5000 
     47 CA          1.2040  -15.0655  -45.3478 C.3       5 UNK         0.1400 
     48 CB          0.5918  -15.9299  -46.4578 C.3       5 UNK        -0.1800 
     49 N           0.1391  -14.5559  -44.4805 N.am      5 UNK        -0.5000 
     50 C          -0.6175  -15.2478  -43.6181 C.2       4 UNK         0.5000 
     51 O          -0.5272  -16.4635  -43.4446 O.2       4 UNK        -0.5000 
     52 CA         -1.5721  -14.3998  -42.7539 C.3       4 UNK         0.1400 
     53 CB         -2.3985  -15.2438  -41.7608 C.3       4 UNK        -0.1800 
     54 N          -0.8493  -13.3264  -42.0565 N.am      4 UNK        -0.5000 
     55 C           0.1897  -13.4664  -41.2156 C.2       3 UNK         0.5000 
     56 O           0.6272  -14.5546  -40.8383 O.2       3 UNK        -0.5000 
     57 CA          0.8754  -12.1619  -40.7495 C.3       3 UNK         0.1400 
     58 CB          2.2785  -12.4072  -40.1542 C.3       3 UNK        -0.1800 
     59 N           0.9458  -11.1237  -41.7882 N.am      3 UNK        -0.5000 
     60 C           1.5072  -11.2330  -43.0011 C.2       2 UNK         0.5000 
     61 O           2.0156  -12.2680  -43.4423 O.2       2 UNK        -0.5000 
     62 CA          1.5034   -9.9672  -43.8677 C.3       2 UNK         0.1400 
     63 CB          2.8231   -9.1928  -43.7224 C.3       2 UNK        -0.1800 
     64 N           1.3227  -10.3753  -45.2540 N.am      2 UNK        -0.5000 
     65 C           0.5816   -9.7308  -46.1625 C.2       1 UNK         0.5000 
     66 O           0.0657   -8.6292  -45.9618 O.2       1 UNK        -0.5000 
     67 C          -4.3949  -19.6999  -46.6731 C.2       11 UNK         0.5000 
     68 O          -5.5407  -19.6770  -46.2225 O.2       11 UNK        -0.5000 
     69 N          -3.3019  -19.9140  -45.9292 N.am      12 UNK        -0.5000 
     70 CA         -3.3086  -20.2065  -44.5007 C.3       12 UNK         0.1400 
     71 CB         -2.2894  -19.2953  -43.8027 C.3       12 UNK        -0.1800 
     72 C          -2.9797  -21.6850  -44.2434 C.2       12 UNK         0.5000 
     73 O          -3.6741  -22.3307  -43.4587 O.2       12 UNK        -0.5000 
     74 N          -1.9333  -22.1991  -44.9052 N.am      13 UNK        -0.5000 
     75 CA         -1.3675  -23.5277  -44.6618 C.3       13 UNK         0.1400 
     76 CB          0.0264  -23.6030  -45.3037 C.3       13 UNK        -0.1800 
     77 C          -2.2453  -24.6933  -45.1530 C.2       13 UNK         0.5000 
     78 O          -2.1648  -25.7821  -44.5828 O.2       13 UNK        -0.5000 
     79 N          -3.0530  -24.4565  -46.1938 N.am      14 UNK        -0.5000 
     80 CA         -3.9265  -25.4505  -46.8218 C.3       14 UNK         0.1400 
     81 CB         -3.3554  -25.8079  -48.2074 C.3       14 UNK        -0.1800 
     82 C          -5.3784  -24.9497  -46.9260 C.2       14 UNK         0.5000 
     83 O          -6.1664  -25.5476  -47.6577 O.2       14 UNK        -0.5000 
     84 N          -5.7068  -23.8440  -46.2378 N.am      15 UNK        -0.5000 
     85 CA         -7.0057  -23.1551  -46.2439 C.3       15 UNK         0.1400 
     86 CB         -8.0497  -23.9840  -45.4679 C.3       15 UNK        -0.1800 
     87 C          -7.4904  -22.7583  -47.6595 C.2       15 UNK         0.5000 
     88 O          -8.6909  -22.7875  -47.9340 O.2       15 UNK        -0.5000 
     89 N          -6.5314  -22.4198  -48.5336 N.am      16 UNK        -0.5000 
     90 CA         -6.6732  -22.0637  -49.9479 C.3       16 UNK         0.1400 
     91 CB         -7.6027  -20.8467  -50.1402 C.3       16 UNK        -0.1800 
     92 C          -7.0404  -23.2413  -50.8753 C.2       16 UNK         0.5000 
     93 O          -7.3387  -23.0035  -52.0461 O.2       16 UNK        -0.5000 
     94 N          -6.9633  -24.4909  -50.3902 N.am      17 UNK        -0.5000 
     95 CA         -7.2160  -25.6916  -51.1976 C.3       17 UNK         0.1400 
     96 CB         -7.3742  -26.9103  -50.2768 C.3       17 UNK        -0.1800 
     97 C          -6.1212  -25.9573  -52.2512 C.2       17 UNK         0.5000 
     98 O          -6.4061  -26.5744  -53.2779 O.2       17 UNK        -0.5000 
     99 N          -4.9003  -25.4753  -51.9831 N.am      18 UNK        -0.5000 
    100 CA        -3.7261  -25.5958  -52.8499 C.3       18 UNK         0.1400 
    101 CB        -2.5845  -26.2513  -52.0518 C.3       18 UNK        -0.1800 
    102 C         -3.3070  -24.2340  -53.4398 C.2       18 UNK         0.5000 
    103 O         -2.1561  -24.0786  -53.8505 O.2       18 UNK        -0.5000 
    104 N         -4.2310  -23.2606  -53.4843 N.am      19 UNK        -0.5000 
    105 CA        -3.9971  -21.8853  -53.9492 C.3       19 UNK         0.1400 
    106 CB        -5.2580  -21.0437  -53.7060 C.3       19 UNK        -0.1800 
    107 C         -3.5343  -21.7568  -55.4163 C.2       19 UNK         0.5000 
    108 O         -2.9449  -20.7363  -55.7710 O.2       19 UNK        -0.5000 
    109 N         -3.7773  -22.7925  -56.2327 N.am      20 UNK        -0.5000 
    110 CA        -3.2701  -22.9123  -57.6016 C.3       20 UNK         0.1400 
    111 CB        -3.9473  -24.1086  -58.2874 C.3       20 UNK        -0.1800 
    112 C         -1.7345  -23.0491  -57.6628 C.2       20 UNK         0.5000 
    113 O         -1.1172  -22.5210  -58.5885 O.2       20 UNK        -0.5000 
    114 N         -1.1488  -23.7338  -56.6702 N.am      21 UNK        -0.5000 
    115 CA         0.2977  -23.8158  -56.4605 C.3       21 UNK         0.1400 
    116 CB         0.6414  -25.1753  -55.8315 C.3       21 UNK        -0.1800 
    117 C          0.7827  -22.6653  -55.5606 C.2       21 UNK         0.5000 
    118 O          1.8592  -22.1157  -55.7922 O.2       21 UNK        -0.5000 
    119 N         -0.0365  -22.3228  -54.5592 N.am      22 UNK        -0.5000 
    120 CA         0.1390  -21.2460  -53.5737 C.3       22 UNK         0.1400 
    121 C          1.1381  -21.5572  -52.4198 C.2       22 UNK         0.5000 
    122 N          1.8867  -22.6514  -52.4580 N.am      22 UNK        -0.7600 
    123 O          1.1841  -20.8333  -51.4301 O.2       22 UNK        -0.5000 
    124 C124        0.3556  -19.8465  -54.2198 C.3       23 UNK        -0.0398 
    125 S125       -0.5798  -18.5287  -53.3716 S.3       23 UNK        -0.2404 
    126 C126        0.7655  -17.5736  -52.5871 C.3       23 UNK        -0.0205 
    127 H127       -3.7134  -11.7431  -46.4005 H         1 UNK         0.0600 
    128 H128       -3.1332  -13.3494  -46.8473 H         1 UNK         0.0600 
    129 H129       -3.2845  -12.0947  -48.0808 H         1 UNK         0.0600 
    130 H130       -1.5707  -10.6411  -48.3684 H         1 UNK         0.3000 
    131 H131        0.3814   -9.6359  -48.2636 H         1 UNK         0.0600 
    132 H132        2.4304  -11.0700  -47.7206 H         1 UNK         0.0800 
    133 H133        1.3351  -12.3636  -47.2790 H         1 UNK         0.0800 
    134 H134        2.2785  -13.9413  -48.6345 H         1 UNK         0.0800 
    135 H135        2.8491  -13.7036  -50.2617 H         1 UNK         0.0800 
    136 H136        2.2266  -15.5599  -51.5667 H         1 UNK         0.1150 
    137 H137       -1.6656  -17.3369  -51.2094 H         1 UNK         0.1150 
    138 H138       -0.6043  -14.0084  -48.7517 H         1 UNK         0.1150 
    139 H139       -2.8726  -14.8096  -48.7598 H         1 UNK         0.0800 
    140 H140       -3.4109  -15.8693  -50.0306 H         1 UNK         0.0800 
    141 H141       -4.2063  -17.9949  -49.7105 H         1 UNK         0.0800 
    142 H142       -5.0649  -17.5314  -48.2704 H         1 UNK         0.0800 
    143 H143       -5.0538  -19.9728  -48.6670 H         1 UNK         0.0600 
    144 H144       -2.2574  -19.7159  -49.0680 H         1 UNK         0.3000 
    145 H145       -1.3355  -23.0672  -48.4796 H         1 UNK         0.0600 
    146 H146       -0.8478  -23.2423  -50.9012 H         1 UNK         0.0600 
    147 H147       -2.5777  -23.3689  -50.6283 H         1 UNK         0.0600 
    148 H148       -1.9094  -21.8659  -51.2305 H         1 UNK         0.0600 
    149 H149        0.1550  -21.1958  -49.8867 H         1 UNK         0.3000 
    150 H150        2.0324  -20.4657  -48.7581 H         1 UNK         0.0600 
    151 H151        0.7586  -18.6631  -49.7255 H         1 UNK         0.0600 
    152 H152        1.9759  -17.9156  -48.7074 H         1 UNK         0.0600 
    153 H153        0.2925  -18.0258  -48.1659 H         1 UNK         0.0600 
    154 H154        1.9574  -18.8786  -46.3160 H         1 UNK         0.3000 
    155 H155        3.6641  -21.3796  -44.3842 H         1 UNK         0.0600 
    156 H156        4.6774  -18.7628  -45.6075 H         1 UNK         0.0600 
    157 H157        5.4653  -20.3323  -45.7152 H         1 UNK         0.0600 
    158 H158        5.3117  -19.5349  -44.1562 H         1 UNK         0.0600 
    159 H159        2.6830  -18.5899  -44.1630 H         1 UNK         0.3000 
    160 H160        0.1962  -18.9121  -42.4038 H         1 UNK         0.0600 
    161 H161        2.1549  -19.6878  -40.1855 H         1 UNK         0.0600 
    162 H162        0.5784  -20.4003  -40.4940 H         1 UNK         0.0600 
    163 H163        0.6894  -18.7340  -39.9538 H         1 UNK         0.0600 
    164 H164        1.1875  -16.9892  -42.5796 H         1 UNK         0.3000 
    165 H165        3.3678  -15.2350  -41.4505 H         1 UNK         0.0600 
    166 H166        5.1508  -16.4667  -43.6195 H         1 UNK         0.0600 
    167 H167        5.2296  -14.7903  -43.0774 H         1 UNK         0.0600 
    168 H168        5.6251  -16.0913  -41.9680 H         1 UNK         0.0600 
    169 H169        2.1565  -14.4202  -43.1139 H         1 UNK         0.3000 
    170 H170        1.6708  -14.1958  -45.8096 H         1 UNK         0.0600 
    171 H171        1.3163  -16.0950  -47.2543 H         1 UNK         0.0600 
    172 H172        0.2691  -16.9015  -46.0813 H         1 UNK         0.0600 
    173 H173       -0.2792  -15.4456  -46.8952 H         1 UNK         0.0600 
    174 H174       -0.0574  -13.5652  -44.5863 H         1 UNK         0.3000 
    175 H175       -2.2687  -13.9176  -43.4416 H         1 UNK         0.0600 
    176 H176       -3.0013  -15.9837  -42.2888 H         1 UNK         0.0600 
    177 H177       -1.7641  -15.7842  -41.0575 H         1 UNK         0.0600 
    178 H178       -3.0808  -14.6188  -41.1851 H         1 UNK         0.0600 
    179 H179       -1.1101  -12.3865  -42.3190 H         1 UNK         0.3000 
    180 H180        0.2461  -11.7614  -39.9535 H         1 UNK         0.0600 
    181 H181        2.9610  -12.8340  -40.8895 H         1 UNK         0.0600 
    182 H182        2.2342  -13.0946  -39.3087 H         1 UNK         0.0600 
    183 H183        2.7188  -11.4788  -39.7907 H         1 UNK         0.0600 
    184 H184        0.5449  -10.2326  -41.5292 H         1 UNK         0.3000 
    185 H185        0.6728   -9.3319  -43.5523 H         1 UNK         0.0600 
    186 H186        2.9840   -8.8852  -42.6884 H         1 UNK         0.0600 
    187 H187        3.6791   -9.7982  -44.0233 H         1 UNK         0.0600 
    188 H188        2.8194   -8.2906  -44.3341 H         1 UNK         0.0600 
    189 H189        1.6503  -11.3124  -45.4458 H         1 UNK         0.3000 
    190 H190       -2.3999  -19.9464  -46.3912 H         1 UNK         0.3000 
    191 H191       -4.2907  -20.0034  -44.0686 H         1 UNK         0.0600 
    192 H192       -2.2305  -19.5135  -42.7358 H         1 UNK         0.0600 
    193 H193       -2.5712  -18.2473  -43.9049 H         1 UNK         0.0600 
    194 H194       -1.2899  -19.4110  -44.2241 H         1 UNK         0.0600 
    195 H195       -1.4120  -21.6060  -45.5483 H         1 UNK         0.3000 
    196 H196       -1.2450  -23.6444  -43.5829 H         1 UNK         0.0600 
    197 H197       -0.0211  -23.4976  -46.3877 H         1 UNK         0.0600 
    198 H198        0.6796  -22.8187  -44.9208 H         1 UNK         0.0600 
    199 H199        0.5063  -24.5582  -45.0879 H         1 UNK         0.0600 
    200 H200       -3.0708  -23.5335  -46.6121 H         1 UNK         0.3000 
    201 H201       -3.9643  -26.3622  -46.2229 H         1 UNK         0.0600 
    202 H202       -3.3685  -24.9510  -48.8800 H         1 UNK         0.0600 
    203 H203       -3.9321  -26.6040  -48.6799 H         1 UNK         0.0600 
    204 H204       -2.3260  -26.1579  -48.1315 H         1 UNK         0.0600 
    205 H205       -4.9930  -23.4277  -45.6573 H         1 UNK         0.3000 
    206 H206       -6.8576  -22.2190  -45.7036 H         1 UNK         0.0600 
    207 H207       -7.6922  -24.2311  -44.4683 H         1 UNK         0.0600 
    208 H208       -8.9818  -23.4304  -45.3493 H         1 UNK         0.0600 
    209 H209       -8.2853  -24.9174  -45.9803 H         1 UNK         0.0600 
    210 H210       -5.5680  -22.4652  -48.2078 H         1 UNK         0.3000 
    211 H211       -5.6757  -21.7563  -50.2635 H         1 UNK         0.0600 
    212 H212       -7.5350  -20.4599  -51.1576 H         1 UNK         0.0600 
    213 H213       -7.3391  -20.0315  -49.4669 H         1 UNK         0.0600 
    214 H214       -8.6474  -21.1024  -49.9629 H         1 UNK         0.0600 
    215 H215       -6.7259  -24.6408  -49.4147 H         1 UNK         0.3000 
    216 H216       -8.1588  -25.5483  -51.7298 H         1 UNK         0.0600 
    217 H217       -6.4425  -27.1508  -49.7637 H         1 UNK         0.0600 
    218 H218       -7.6693  -27.7925  -50.8461 H         1 UNK         0.0600 
    219 H219       -8.1406  -26.7392  -49.5205 H         1 UNK         0.0600 
    220 H220       -4.7713  -24.9765  -51.1154 H         1 UNK         0.3000 
    221 H221       -3.9466  -26.2417  -53.7017 H         1 UNK         0.0600 
    222 H222       -2.8859  -27.2256  -51.6669 H         1 UNK         0.0600 
    223 H223       -2.2759  -25.6411  -51.2036 H         1 UNK         0.0600 
    224 H224       -1.7056  -26.4118  -52.6777 H         1 UNK         0.0600 
    225 H225       -5.1658  -23.4703  -53.1612 H         1 UNK         0.3000 
    226 H226       -3.1988  -21.4670  -53.3346 H         1 UNK         0.0600 
    227 H227       -6.1260  -21.4623  -54.2166 H         1 UNK         0.0600 
    228 H228       -5.4887  -20.9806  -52.6435 H         1 UNK         0.0600 
    229 H229       -5.1259  -20.0218  -54.0644 H         1 UNK         0.0600 
    230 H230       -4.2876  -23.5813  -55.8648 H         1 UNK         0.3000 
    231 H231       -3.5450  -22.0058  -58.1451 H         1 UNK         0.0600 
    232 H232       -3.7280  -25.0455  -57.7736 H         1 UNK         0.0600 
    233 H233       -3.6058  -24.2117  -59.3182 H         1 UNK         0.0600 
    234 H234       -5.0302  -23.9860  -58.3159 H         1 UNK         0.0600 
    235 H235       -1.7289  -24.0978  -55.9247 H         1 UNK         0.3000 
    236 H236        0.8183  -23.7429  -57.4177 H         1 UNK         0.0600 
    237 H237        0.3346  -25.9961  -56.4798 H         1 UNK         0.0600 
    238 H238        1.7163  -25.2711  -55.6729 H         1 UNK         0.0600 
    239 H239        0.1526  -25.3121  -54.8659 H         1 UNK         0.0600 
    240 H240       -0.8543  -22.9067  -54.4036 H         1 UNK         0.3000 
    241 H241       -0.8326  -21.2233  -53.0856 H         1 UNK         0.0600 
    242 H242        2.5116  -22.8509  -51.6937 H         1 UNK         0.3800 
    243 H243        1.8549  -23.2655  -53.2549 H         1 UNK         0.3800 
    244 H244       -0.0060  -19.8492  -55.2491 H         1 UNK         0.0800 
    245 H245        1.4155  -19.5947  -54.2843 H         1 UNK         0.0800 
    246 H246        1.3253  -17.0659  -53.3739 H         1 UNK         0.0800 
    247 H247        1.4596  -18.2646  -52.1080 H         1 UNK         0.0800 
@<TRIPOS>BOND
     1    1    2 1    
     2    1  127 1    
     3    1  128 1    
     4    1  129 1    
     5    2    3 2    
     6    2    4 am   BACKBONE|DICT|INTERRES
     7    4    5 1    
     8    4  130 1    
     9    5    6 1    
    10    5   65 1    
    11    5  131 1    
    12    6    7 1    
    13    6  132 1    
    14    6  133 1    
    15    7    8 1    
    16    8    9 1    
    17    8  134 1    
    18    8  135 1    
    19    9   10 ar   
    20    9   14 ar   
    21   10   11 ar   
    22   10  136 1    
    23   11   12 ar   
    24   11  126 1    
    25   12   13 ar   
    26   12  137 1    
    27   13   14 ar   
    28   13   15 1    
    29   14  138 1    
    30   15   16 1    
    31   15  139 1    
    32   15  140 1    
    33   16   17 1    
    34   17   18 1    
    35   17  141 1    
    36   17  142 1    
    37   18   19 1    
    38   18   67 1    
    39   18  143 1    
    40   19   20 am   BACKBONE|DICT|INTERRES
    41   19  144 1    
    42   20   21 2    
    43   20   22 1    
    44   22   23 1    
    45   22   24 1    
    46   22  145 1    
    47   23  146 1    
    48   23  147 1    
    49   23  148 1    
    50   24   25 am   BACKBONE|DICT|INTERRES
    51   24  149 1    
    52   25   26 2    
    53   25   27 1    
    54   27   28 1    
    55   27   29 1    
    56   27  150 1    
    57   28  151 1    
    58   28  152 1    
    59   28  153 1    
    60   29   30 am   BACKBONE|DICT|INTERRES
    61   29  154 1    
    62   30   31 2    
    63   30   32 1    
    64   32   33 1    
    65   32   34 1    
    66   32  155 1    
    67   33  156 1    
    68   33  157 1    
    69   33  158 1    
    70   34   35 am   BACKBONE|DICT|INTERRES
    71   34  159 1    
    72   35   36 2    
    73   35   37 1    
    74   37   38 1    
    75   37   39 1    
    76   37  160 1    
    77   38  161 1    
    78   38  162 1    
    79   38  163 1    
    80   39   40 am   BACKBONE|DICT|INTERRES
    81   39  164 1    
    82   40   41 2    
    83   40   42 1    
    84   42   43 1    
    85   42   44 1    
    86   42  165 1    
    87   43  166 1    
    88   43  167 1    
    89   43  168 1    
    90   44   45 am   BACKBONE|DICT|INTERRES
    91   44  169 1    
    92   45   46 2    
    93   45   47 1    
    94   47   48 1    
    95   47   49 1    
    96   47  170 1    
    97   48  171 1    
    98   48  172 1    
    99   48  173 1    
   100   49   50 am   BACKBONE|DICT|INTERRES
   101   49  174 1    
   102   50   51 2    
   103   50   52 1    
   104   52   53 1    
   105   52   54 1    
   106   52  175 1    
   107   53  176 1    
   108   53  177 1    
   109   53  178 1    
   110   54   55 am   BACKBONE|DICT|INTERRES
   111   54  179 1    
   112   55   56 2    
   113   55   57 1    
   114   57   58 1    
   115   57   59 1    
   116   57  180 1    
   117   58  181 1    
   118   58  182 1    
   119   58  183 1    
   120   59   60 am   BACKBONE|DICT|INTERRES
   121   59  184 1    
   122   60   61 2    
   123   60   62 1    
   124   62   63 1    
   125   62   64 1    
   126   62  185 1    
   127   63  186 1    
   128   63  187 1    
   129   63  188 1    
   130   64   65 am   BACKBONE|DICT|INTERRES
   131   64  189 1    
   132   65   66 2    
   133   67   68 2    
   134   67   69 am   BACKBONE|DICT|INTERRES
   135   69   70 1    
   136   69  190 1    
   137   70   71 1    
   138   70   72 1    
   139   70  191 1    
   140   71  192 1    
   141   71  193 1    
   142   71  194 1    
   143   72   73 2    
   144   72   74 am   BACKBONE|DICT|INTERRES
   145   74   75 1    
   146   74  195 1    
   147   75   76 1    
   148   75   77 1    
   149   75  196 1    
   150   76  197 1    
   151   76  198 1    
   152   76  199 1    
   153   77   78 2    
   154   77   79 am   BACKBONE|DICT|INTERRES
   155   79   80 1    
   156   79  200 1    
   157   80   81 1    
   158   80   82 1    
   159   80  201 1    
   160   81  202 1    
   161   81  203 1    
   162   81  204 1    
   163   82   83 2    
   164   82   84 am   BACKBONE|DICT|INTERRES
   165   84   85 1    
   166   84  205 1    
   167   85   86 1    
   168   85   87 1    
   169   85  206 1    
   170   86  207 1    
   171   86  208 1    
   172   86  209 1    
   173   87   88 2    
   174   87   89 am   BACKBONE|DICT|INTERRES
   175   89   90 1    
   176   89  210 1    
   177   90   91 1    
   178   90   92 1    
   179   90  211 1    
   180   91  212 1    
   181   91  213 1    
   182   91  214 1    
   183   92   93 2    
   184   92   94 am   BACKBONE|DICT|INTERRES
   185   94   95 1    
   186   94  215 1    
   187   95   96 1    
   188   95   97 1    
   189   95  216 1    
   190   96  217 1    
   191   96  218 1    
   192   96  219 1    
   193   97   98 2    
   194   97   99 am   BACKBONE|DICT|INTERRES
   195   99  100 1    
   196   99  220 1    
   197  100  101 1    
   198  100  102 1    
   199  100  221 1    
   200  101  222 1    
   201  101  223 1    
   202  101  224 1    
   203  102  103 2    
   204  102  104 am   BACKBONE|DICT|INTERRES
   205  104  105 1    
   206  104  225 1    
   207  105  106 1    
   208  105  107 1    
   209  105  226 1    
   210  106  227 1    
   211  106  228 1    
   212  106  229 1    
   213  107  108 2    
   214  107  109 am   BACKBONE|DICT|INTERRES
   215  109  110 1    
   216  109  230 1    
   217  110  111 1    
   218  110  112 1    
   219  110  231 1    
   220  111  232 1    
   221  111  233 1    
   222  111  234 1    
   223  112  113 2    
   224  112  114 am   BACKBONE|DICT|INTERRES
   225  114  115 1    
   226  114  235 1    
   227  115  116 1    
   228  115  117 1    
   229  115  236 1    
   230  116  237 1    
   231  116  238 1    
   232  116  239 1    
   233  117  118 2    
   234  117  119 am   BACKBONE|DICT|INTERRES
   235  119  120 1    
   236  119  240 1    
   237  120  121 1    
   238  120  124 1    
   239  120  241 1    
   240  121  122 am   BACKBONE|DICT|INTERRES
   241  121  123 2    
   242  122  242 1    
   243  122  243 1    
   244  124  125 1    
   245  124  244 1    
   246  124  245 1    
   247  125  126 1    
   248  126  246 1    
   249  126  247 1    
@<TRIPOS>SUBSTRUCTURE
     1 UNK         1 GROUP             0       ****    0 ROOT    
