@<TRIPOS>MOLECULE
3R540
247   249    1
SMALL
USER_CHARGES


@<TRIPOS>ATOM
      1 CA          1.7735  -16.7171  -49.2459 C.3       0 UNK        -0.1800 
      2 C           0.4465  -16.2171  -48.7000 C.2       0 UNK         0.5000 
      3 O           0.4333  -15.5317  -47.6798 O.2       0 UNK        -0.5000 
      4 N          -0.6613  -16.4922  -49.4045 N.am      1 UNK        -0.5000 
      5 CA         -1.9985  -15.9360  -49.1256 C.3       1 UNK         0.1400 
      6 C6         -3.1344  -16.7431  -49.8093 C.3       23 UNK        -0.0398 
      7 S7         -3.4307  -18.3504  -48.9905 S.3       23 UNK        -0.2404 
      8 C8         -3.0293  -19.5670  -50.2817 C.3       23 UNK        -0.0205 
      9 C9         -1.5526  -19.5533  -50.6272 C.ar      23 UNK        -0.0193 
     10 C10        -1.1182  -18.9898  -51.8254 C.ar      23 UNK        -0.1150 
     11 C11         0.2394  -18.9297  -52.1373 C.ar      23 UNK        -0.0193 
     12 C12         1.1698  -19.4844  -51.2512 C.ar      23 UNK        -0.1150 
     13 C13         0.7454  -20.0787  -50.0567 C.ar      23 UNK        -0.0193 
     14 C14        -0.6180  -20.1049  -49.7509 C.ar      23 UNK        -0.1150 
     15 C15         1.7439  -20.7399  -49.1185 C.3       23 UNK        -0.0205 
     16 S16         1.6499  -20.0861  -47.4165 S.3       23 UNK        -0.2404 
     17 C17         2.1665  -21.5576  -46.4651 C.3       23 UNK        -0.0398 
     18 CA          1.0373  -22.3722  -45.7712 C.3       11 UNK         0.1400 
     19 N           0.8109  -21.9532  -44.3836 N.am      11 UNK        -0.5000 
     20 C           0.2004  -22.7143  -43.4601 C.2       10 UNK         0.5000 
     21 O          -0.3879  -23.7614  -43.7379 O.2       10 UNK        -0.5000 
     22 CA          0.2626  -22.2359  -41.9935 C.3       10 UNK         0.1400 
     23 CB          0.1556  -23.3987  -40.9859 C.3       10 UNK        -0.1800 
     24 N           1.4363  -21.4062  -41.7035 N.am      10 UNK        -0.5000 
     25 C           2.7343  -21.7366  -41.8065 C.2       9 UNK         0.5000 
     26 O           3.1349  -22.8516  -42.1418 O.2       9 UNK        -0.5000 
     27 CA          3.7603  -20.6264  -41.5026 C.3       9 UNK         0.1400 
     28 CB          4.6891  -20.3858  -42.7057 C.3       9 UNK        -0.1800 
     29 N           3.0943  -19.3675  -41.1570 N.am      9 UNK        -0.5000 
     30 C           2.9930  -18.8756  -39.9157 C.2       8 UNK         0.5000 
     31 O           3.5354  -19.3773  -38.9305 O.2       8 UNK        -0.5000 
     32 CA          2.1130  -17.6267  -39.7364 C.3       8 UNK         0.1400 
     33 CB          2.9088  -16.3517  -40.0558 C.3       8 UNK        -0.1800 
     34 N           0.8870  -17.6487  -40.5386 N.am      8 UNK        -0.5000 
     35 C          -0.1437  -18.4859  -40.3507 C.2       7 UNK         0.5000 
     36 O          -0.1257  -19.4196  -39.5498 O.2       7 UNK        -0.5000 
     37 CA         -1.4013  -18.2526  -41.2035 C.3       7 UNK         0.1400 
     38 CB         -2.2119  -17.0697  -40.6513 C.3       7 UNK        -0.1800 
     39 N          -1.0509  -17.9820  -42.5947 N.am      7 UNK        -0.5000 
     40 C          -1.2251  -18.8363  -43.6109 C.2       6 UNK         0.5000 
     41 O          -1.7432  -19.9476  -43.5023 O.2       6 UNK        -0.5000 
     42 CA         -0.7056  -18.3971  -44.9914 C.3       6 UNK         0.1400 
     43 CB         -1.8116  -17.7073  -45.7917 C.3       6 UNK        -0.1800 
     44 N           0.4575  -17.5143  -44.9554 N.am      6 UNK        -0.5000 
     45 C           1.6228  -17.7892  -44.3594 C.2       5 UNK         0.5000 
     46 O           1.8720  -18.8563  -43.7951 O.2       5 UNK        -0.5000 
     47 CA          2.6551  -16.6481  -44.3260 C.3       5 UNK         0.1400 
     48 CB          3.5412  -16.7011  -45.5786 C.3       5 UNK        -0.1800 
     49 N           2.0808  -15.3004  -44.1991 N.am      5 UNK        -0.5000 
     50 C           1.2064  -14.8820  -43.2683 C.2       4 UNK         0.5000 
     51 O           0.6987  -15.6230  -42.4270 O.2       4 UNK        -0.5000 
     52 CA          0.8327  -13.3875  -43.2583 C.3       4 UNK         0.1400 
     53 CB          1.5641  -12.6695  -42.1140 C.3       4 UNK        -0.1800 
     54 N           1.1352  -12.7065  -44.5184 N.am      4 UNK        -0.5000 
     55 C           0.3994  -12.8141  -45.6319 C.2       3 UNK         0.5000 
     56 O          -0.6575  -13.4474  -45.6866 O.2       3 UNK        -0.5000 
     57 CA          0.9397  -12.0846  -46.8755 C.3       3 UNK         0.1400 
     58 CB          2.4450  -12.3379  -47.0940 C.3       3 UNK        -0.1800 
     59 N           0.2269  -12.5308  -48.0676 N.am      3 UNK        -0.5000 
     60 C          -0.2667  -11.7392  -49.0281 C.2       2 UNK         0.5000 
     61 O          -0.2237  -10.5088  -48.9818 O.2       2 UNK        -0.5000 
     62 CA         -0.8789  -12.4190  -50.2725 C.3       2 UNK         0.1400 
     63 CB          0.0310  -12.1918  -51.4917 C.3       2 UNK        -0.1800 
     64 N          -1.0748  -13.8590  -50.0963 N.am      2 UNK        -0.5000 
     65 C          -2.0976  -14.4227  -49.4385 C.2       1 UNK         0.5000 
     66 O          -3.0754  -13.7873  -49.0433 O.2       1 UNK        -0.5000 
     67 C          -0.2593  -22.5344  -46.6006 C.2       11 UNK         0.5000 
     68 O          -0.2330  -23.2313  -47.6143 O.2       11 UNK        -0.5000 
     69 N          -1.3819  -21.9607  -46.1386 N.am      12 UNK        -0.5000 
     70 CA         -2.7124  -22.1666  -46.7176 C.3       12 UNK         0.1400 
     71 CB         -3.7245  -21.2463  -46.0242 C.3       12 UNK        -0.1800 
     72 C          -3.1843  -23.6310  -46.6454 C.2       12 UNK         0.5000 
     73 O          -3.8886  -24.0814  -47.5482 O.2       12 UNK        -0.5000 
     74 N          -2.7591  -24.3629  -45.6040 N.am      13 UNK        -0.5000 
     75 CA         -3.0333  -25.7917  -45.4457 C.3       13 UNK         0.1400 
     76 CB         -2.7882  -26.2025  -43.9861 C.3       13 UNK        -0.1800 
     77 C          -2.1918  -26.6559  -46.4029 C.2       13 UNK         0.5000 
     78 O          -2.6690  -27.6973  -46.8534 O.2       13 UNK        -0.5000 
     79 N          -0.9683  -26.2015  -46.7106 N.am      14 UNK        -0.5000 
     80 CA         -0.0671  -26.8358  -47.6732 C.3       14 UNK         0.1400 
     81 CB          1.3700  -26.3432  -47.4391 C.3       14 UNK        -0.1800 
     82 C          -0.5132  -26.5771  -49.1232 C.2       14 UNK         0.5000 
     83 O          -0.4996  -27.5004  -49.9380 O.2       14 UNK        -0.5000 
     84 N          -0.9254  -25.3337  -49.4087 N.am      15 UNK        -0.5000 
     85 CA         -1.4895  -24.9128  -50.6922 C.3       15 UNK         0.1400 
     86 CB         -1.5498  -23.3776  -50.7328 C.3       15 UNK        -0.1800 
     87 C          -2.8852  -25.5077  -50.9607 C.2       15 UNK         0.5000 
     88 O          -3.2364  -25.7164  -52.1223 O.2       15 UNK        -0.5000 
     89 N          -3.6443  -25.7570  -49.8823 N.am      16 UNK        -0.5000 
     90 CA         -5.0348  -26.2192  -49.8473 C.3       16 UNK         0.1400 
     91 CB         -5.1550  -27.6542  -50.4008 C.3       16 UNK        -0.1800 
     92 C          -5.9857  -25.2126  -50.5268 C.2       16 UNK         0.5000 
     93 O          -6.8492  -25.6018  -51.3161 O.2       16 UNK        -0.5000 
     94 N          -5.7844  -23.9252  -50.2240 N.am      17 UNK        -0.5000 
     95 CA         -6.4699  -22.7933  -50.8368 C.3       17 UNK         0.1400 
     96 CB         -5.8263  -22.4872  -52.2007 C.3       17 UNK        -0.1800 
     97 C          -6.3765  -21.5731  -49.9116 C.2       17 UNK         0.5000 
     98 O          -5.5466  -21.5583  -49.0010 O.2       17 UNK        -0.5000 
     99 N          -7.2163  -20.5674  -50.1832 N.am      18 UNK        -0.5000 
    100 CA        -7.2876  -19.3066  -49.4377 C.3       18 UNK         0.1400 
    101 CB        -8.7176  -19.1449  -48.8928 C.3       18 UNK        -0.1800 
    102 C         -6.8826  -18.0869  -50.2918 C.2       18 UNK         0.5000 
    103 O         -6.9723  -16.9596  -49.8031 O.2       18 UNK        -0.5000 
    104 N         -6.4526  -18.3116  -51.5410 N.am      19 UNK        -0.5000 
    105 CA        -6.0072  -17.2692  -52.4631 C.3       19 UNK         0.1400 
    106 CB        -7.2067  -16.6206  -53.1796 C.3       19 UNK        -0.1800 
    107 C         -4.9853  -17.8514  -53.4440 C.2       19 UNK         0.5000 
    108 O         -3.8100  -17.4986  -53.3672 O.2       19 UNK        -0.5000 
    109 N         -5.4440  -18.7533  -54.3256 N.am      20 UNK        -0.5000 
    110 CA        -4.6642  -19.4236  -55.3755 C.3       20 UNK         0.1400 
    111 CB        -3.7242  -20.4791  -54.7490 C.3       20 UNK        -0.1800 
    112 C         -3.9382  -18.4231  -56.3067 C.2       20 UNK         0.5000 
    113 O         -4.4940  -17.3673  -56.6204 O.2       20 UNK        -0.5000 
    114 N         -2.7025  -18.7493  -56.7110 N.am      21 UNK        -0.5000 
    115 CA        -1.8244  -17.9065  -57.5300 C.3       21 UNK         0.1400 
    116 CB        -0.5942  -18.7304  -57.9410 C.3       21 UNK        -0.1800 
    117 C         -1.3868  -16.5994  -56.8356 C.2       21 UNK         0.5000 
    118 O         -0.9844  -15.6572  -57.5191 O.2       21 UNK        -0.5000 
    119 N         -1.4854  -16.5643  -55.5016 N.am      22 UNK        -0.5000 
    120 CA        -1.2598  -15.3798  -54.6644 C.3       22 UNK         0.1400 
    121 C         -2.5106  -14.4524  -54.5597 C.2       22 UNK         0.5000 
    122 N         -3.6575  -14.7865  -55.1423 N.am      22 UNK        -0.7600 
    123 O         -2.4344  -13.3881  -53.9541 O.2       22 UNK        -0.5000 
    124 C124       -0.7201  -15.7770  -53.2650 C.3       23 UNK        -0.0398 
    125 S125        0.9625  -16.4964  -53.3049 S.3       23 UNK        -0.2404 
    126 C126        0.6851  -18.2951  -53.4466 C.3       23 UNK        -0.0205 
    127 H127        1.7030  -16.9645  -50.3037 H         1 UNK         0.0600 
    128 H128        2.1056  -17.5971  -48.7006 H         1 UNK         0.0600 
    129 H129        2.5360  -15.9458  -49.1375 H         1 UNK         0.0600 
    130 H130       -0.5985  -17.1180  -50.1961 H         1 UNK         0.3000 
    131 H131       -2.1634  -15.9889  -48.0494 H         1 UNK         0.0600 
    132 H132       -4.0801  -16.2003  -49.7586 H         1 UNK         0.0800 
    133 H133       -2.9299  -16.8848  -50.8701 H         1 UNK         0.0800 
    134 H134       -3.6424  -19.3824  -51.1640 H         1 UNK         0.0800 
    135 H135       -3.2973  -20.5614  -49.9253 H         1 UNK         0.0800 
    136 H136       -1.8400  -18.5960  -52.5196 H         1 UNK         0.1150 
    137 H137        2.2222  -19.4595  -51.4965 H         1 UNK         0.1150 
    138 H138       -0.9525  -20.5572  -48.8288 H         1 UNK         0.1150 
    139 H139        1.5374  -21.8108  -49.1221 H         1 UNK         0.0800 
    140 H140        2.7644  -20.6199  -49.4845 H         1 UNK         0.0800 
    141 H141        2.9044  -21.2364  -45.7284 H         1 UNK         0.0800 
    142 H142        2.7189  -22.2190  -47.1342 H         1 UNK         0.0800 
    143 H143        1.4311  -23.3882  -45.6895 H         1 UNK         0.0600 
    144 H144        1.2440  -21.0854  -44.0926 H         1 UNK         0.3000 
    145 H145       -0.6072  -21.5975  -41.8406 H         1 UNK         0.0600 
    146 H146       -0.7892  -23.9312  -41.1012 H         1 UNK         0.0600 
    147 H147        0.1974  -23.0345  -39.9594 H         1 UNK         0.0600 
    148 H148        0.9577  -24.1253  -41.1184 H         1 UNK         0.0600 
    149 H149        1.2326  -20.4675  -41.3932 H         1 UNK         0.3000 
    150 H150        4.3741  -20.9775  -40.6709 H         1 UNK         0.0600 
    151 H151        5.2663  -21.2815  -42.9379 H         1 UNK         0.0600 
    152 H152        5.4015  -19.5870  -42.4994 H         1 UNK         0.0600 
    153 H153        4.1345  -20.1158  -43.6039 H         1 UNK         0.0600 
    154 H154        2.6089  -18.9079  -41.9203 H         1 UNK         0.3000 
    155 H155        1.8175  -17.5825  -38.6860 H         1 UNK         0.0600 
    156 H156        3.2253  -16.3232  -41.0982 H         1 UNK         0.0600 
    157 H157        3.8056  -16.2858  -39.4386 H         1 UNK         0.0600 
    158 H158        2.3152  -15.4578  -39.8629 H         1 UNK         0.0600 
    159 H159        0.7899  -16.8989  -41.2213 H         1 UNK         0.3000 
    160 H160       -2.0226  -19.1479  -41.1323 H         1 UNK         0.0600 
    161 H161       -1.6511  -16.1353  -40.7014 H         1 UNK         0.0600 
    162 H162       -2.4847  -17.2352  -39.6083 H         1 UNK         0.0600 
    163 H163       -3.1370  -16.9336  -41.2117 H         1 UNK         0.0600 
    164 H164       -0.5689  -17.1072  -42.7734 H         1 UNK         0.3000 
    165 H165       -0.4190  -19.3053  -45.5215 H         1 UNK         0.0600 
    166 H166       -1.5647  -17.7498  -46.8496 H         1 UNK         0.0600 
    167 H167       -2.7785  -18.1913  -45.6620 H         1 UNK         0.0600 
    168 H168       -1.9317  -16.6613  -45.5070 H         1 UNK         0.0600 
    169 H169        0.3567  -16.6163  -45.4108 H         1 UNK         0.3000 
    170 H170        3.2900  -16.8151  -43.4546 H         1 UNK         0.0600 
    171 H171        3.9824  -17.6910  -45.7058 H         1 UNK         0.0600 
    172 H172        2.9711  -16.4783  -46.4811 H         1 UNK         0.0600 
    173 H173        4.3614  -15.9861  -45.5141 H         1 UNK         0.0600 
    174 H174        2.4176  -14.6149  -44.8576 H         1 UNK         0.3000 
    175 H175       -0.2410  -13.3204  -43.0698 H         1 UNK         0.0600 
    176 H176        2.6466  -12.7000  -42.2447 H         1 UNK         0.0600 
    177 H177        1.2622  -11.6241  -42.0472 H         1 UNK         0.0600 
    178 H178        1.3372  -13.1333  -41.1529 H         1 UNK         0.0600 
    179 H179        1.9770  -12.1491  -44.5381 H         1 UNK         0.3000 
    180 H180        0.7784  -11.0174  -46.7115 H         1 UNK         0.0600 
    181 H181        2.6637  -13.4039  -47.1729 H         1 UNK         0.0600 
    182 H182        3.0469  -11.9321  -46.2807 H         1 UNK         0.0600 
    183 H183        2.7925  -11.8610  -48.0108 H         1 UNK         0.0600 
    184 H184        0.0837  -13.5341  -48.1176 H         1 UNK         0.3000 
    185 H185       -1.8426  -11.9450  -50.4695 H         1 UNK         0.0600 
    186 H186        0.2256  -11.1295  -51.6448 H         1 UNK         0.0600 
    187 H187        0.9953  -12.6878  -51.3743 H         1 UNK         0.0600 
    188 H188       -0.4297  -12.5623  -52.4057 H         1 UNK         0.0600 
    189 H189       -0.3054  -14.4525  -50.3675 H         1 UNK         0.3000 
    190 H190       -1.3387  -21.4328  -45.2768 H         1 UNK         0.3000 
    191 H191       -2.6723  -21.8902  -47.7726 H         1 UNK         0.0600 
    192 H192       -4.7389  -21.4426  -46.3740 H         1 UNK         0.0600 
    193 H193       -3.5114  -20.2034  -46.2459 H         1 UNK         0.0600 
    194 H194       -3.7179  -21.3762  -44.9415 H         1 UNK         0.0600 
    195 H195       -2.1428  -23.9414  -44.9180 H         1 UNK         0.3000 
    196 H196       -4.0867  -25.9687  -45.6741 H         1 UNK         0.0600 
    197 H197       -1.7423  -26.0825  -43.7020 H         1 UNK         0.0600 
    198 H198       -3.3924  -25.6076  -43.3011 H         1 UNK         0.0600 
    199 H199       -3.0514  -27.2490  -43.8276 H         1 UNK         0.0600 
    200 H200       -0.6681  -25.3231  -46.3145 H         1 UNK         0.3000 
    201 H201       -0.0839  -27.9146  -47.5036 H         1 UNK         0.0600 
    202 H202        1.6957  -26.5474  -46.4191 H         1 UNK         0.0600 
    203 H203        1.4695  -25.2722  -47.6149 H         1 UNK         0.0600 
    204 H204        2.0659  -26.8486  -48.1097 H         1 UNK         0.0600 
    205 H205       -0.8254  -24.6118  -48.6987 H         1 UNK         0.3000 
    206 H206       -0.8221  -25.2519  -51.4871 H         1 UNK         0.0600 
    207 H207       -0.5583  -22.9421  -50.6083 H         1 UNK         0.0600 
    208 H208       -1.9432  -23.0230  -51.6863 H         1 UNK         0.0600 
    209 H209       -2.1909  -22.9798  -49.9455 H         1 UNK         0.0600 
    210 H210       -3.2797  -25.4647  -48.9837 H         1 UNK         0.3000 
    211 H211       -5.3204  -26.2483  -48.7948 H         1 UNK         0.0600 
    212 H212       -6.1639  -28.0429  -50.2585 H         1 UNK         0.0600 
    213 H213       -4.4711  -28.3307  -49.8880 H         1 UNK         0.0600 
    214 H214       -4.9352  -27.6998  -51.4677 H         1 UNK         0.0600 
    215 H215       -5.1108  -23.6764  -49.5061 H         1 UNK         0.3000 
    216 H216       -7.5252  -23.0396  -50.9713 H         1 UNK         0.0600 
    217 H217       -4.7674  -22.2498  -52.0890 H         1 UNK         0.0600 
    218 H218       -6.3091  -21.6407  -52.6897 H         1 UNK         0.0600 
    219 H219       -5.9057  -23.3372  -52.8787 H         1 UNK         0.0600 
    220 H220       -7.8787  -20.6720  -50.9391 H         1 UNK         0.3000 
    221 H221       -6.6032  -19.3261  -48.5868 H         1 UNK         0.0600 
    222 H222       -8.9938  -19.9876  -48.2589 H         1 UNK         0.0600 
    223 H223       -9.4498  -19.0765  -49.6983 H         1 UNK         0.0600 
    224 H224       -8.8098  -18.2429  -48.2865 H         1 UNK         0.0600 
    225 H225       -6.3495  -19.2642  -51.8574 H         1 UNK         0.3000 
    226 H226       -5.4884  -16.4901  -51.9001 H         1 UNK         0.0600 
    227 H227       -7.8332  -17.3592  -53.6802 H         1 UNK         0.0600 
    228 H228       -7.8360  -16.0773  -52.4746 H         1 UNK         0.0600 
    229 H229       -6.8718  -15.9051  -53.9318 H         1 UNK         0.0600 
    230 H230       -6.4364  -18.9381  -54.3434 H         1 UNK         0.3000 
    231 H231       -5.3834  -19.9508  -56.0037 H         1 UNK         0.0600 
    232 H232       -2.9426  -20.0243  -54.1401 H         1 UNK         0.0600 
    233 H233       -3.2428  -21.0922  -55.5114 H         1 UNK         0.0600 
    234 H234       -4.2811  -21.1622  -54.1124 H         1 UNK         0.0600 
    235 H235       -2.3183  -19.6328  -56.4094 H         1 UNK         0.3000 
    236 H236       -2.3711  -17.6288  -58.4335 H         1 UNK         0.0600 
    237 H237       -0.8830  -19.6206  -58.5000 H         1 UNK         0.0600 
    238 H238        0.0703  -18.1486  -58.5812 H         1 UNK         0.0600 
    239 H239       -0.0161  -19.0499  -57.0729 H         1 UNK         0.0600 
    240 H240       -1.8877  -17.3606  -55.0294 H         1 UNK         0.3000 
    241 H241       -0.4920  -14.7679  -55.1414 H         1 UNK         0.0600 
    242 H242       -4.4419  -14.1592  -55.0725 H         1 UNK         0.3800 
    243 H243       -3.7617  -15.6661  -55.6332 H         1 UNK         0.3800 
    244 H244       -1.4143  -16.4409  -52.7571 H         1 UNK         0.0800 
    245 H245       -0.6508  -14.8939  -52.6323 H         1 UNK         0.0800 
    246 H246        1.6160  -18.7596  -53.7747 H         1 UNK         0.0800 
    247 H247       -0.0406  -18.5025  -54.2328 H         1 UNK         0.0800 
@<TRIPOS>BOND
     1    1    2 1    
     2    1  127 1    
     3    1  128 1    
     4    1  129 1    
     5    2    3 2    
     6    2    4 am   BACKBONE|DICT|INTERRES
     7    4    5 1    
     8    4  130 1    
     9    5    6 1    
    10    5   65 1    
    11    5  131 1    
    12    6    7 1    
    13    6  132 1    
    14    6  133 1    
    15    7    8 1    
    16    8    9 1    
    17    8  134 1    
    18    8  135 1    
    19    9   10 ar   
    20    9   14 ar   
    21   10   11 ar   
    22   10  136 1    
    23   11   12 ar   
    24   11  126 1    
    25   12   13 ar   
    26   12  137 1    
    27   13   14 ar   
    28   13   15 1    
    29   14  138 1    
    30   15   16 1    
    31   15  139 1    
    32   15  140 1    
    33   16   17 1    
    34   17   18 1    
    35   17  141 1    
    36   17  142 1    
    37   18   19 1    
    38   18   67 1    
    39   18  143 1    
    40   19   20 am   BACKBONE|DICT|INTERRES
    41   19  144 1    
    42   20   21 2    
    43   20   22 1    
    44   22   23 1    
    45   22   24 1    
    46   22  145 1    
    47   23  146 1    
    48   23  147 1    
    49   23  148 1    
    50   24   25 am   BACKBONE|DICT|INTERRES
    51   24  149 1    
    52   25   26 2    
    53   25   27 1    
    54   27   28 1    
    55   27   29 1    
    56   27  150 1    
    57   28  151 1    
    58   28  152 1    
    59   28  153 1    
    60   29   30 am   BACKBONE|DICT|INTERRES
    61   29  154 1    
    62   30   31 2    
    63   30   32 1    
    64   32   33 1    
    65   32   34 1    
    66   32  155 1    
    67   33  156 1    
    68   33  157 1    
    69   33  158 1    
    70   34   35 am   BACKBONE|DICT|INTERRES
    71   34  159 1    
    72   35   36 2    
    73   35   37 1    
    74   37   38 1    
    75   37   39 1    
    76   37  160 1    
    77   38  161 1    
    78   38  162 1    
    79   38  163 1    
    80   39   40 am   BACKBONE|DICT|INTERRES
    81   39  164 1    
    82   40   41 2    
    83   40   42 1    
    84   42   43 1    
    85   42   44 1    
    86   42  165 1    
    87   43  166 1    
    88   43  167 1    
    89   43  168 1    
    90   44   45 am   BACKBONE|DICT|INTERRES
    91   44  169 1    
    92   45   46 2    
    93   45   47 1    
    94   47   48 1    
    95   47   49 1    
    96   47  170 1    
    97   48  171 1    
    98   48  172 1    
    99   48  173 1    
   100   49   50 am   BACKBONE|DICT|INTERRES
   101   49  174 1    
   102   50   51 2    
   103   50   52 1    
   104   52   53 1    
   105   52   54 1    
   106   52  175 1    
   107   53  176 1    
   108   53  177 1    
   109   53  178 1    
   110   54   55 am   BACKBONE|DICT|INTERRES
   111   54  179 1    
   112   55   56 2    
   113   55   57 1    
   114   57   58 1    
   115   57   59 1    
   116   57  180 1    
   117   58  181 1    
   118   58  182 1    
   119   58  183 1    
   120   59   60 am   BACKBONE|DICT|INTERRES
   121   59  184 1    
   122   60   61 2    
   123   60   62 1    
   124   62   63 1    
   125   62   64 1    
   126   62  185 1    
   127   63  186 1    
   128   63  187 1    
   129   63  188 1    
   130   64   65 am   BACKBONE|DICT|INTERRES
   131   64  189 1    
   132   65   66 2    
   133   67   68 2    
   134   67   69 am   BACKBONE|DICT|INTERRES
   135   69   70 1    
   136   69  190 1    
   137   70   71 1    
   138   70   72 1    
   139   70  191 1    
   140   71  192 1    
   141   71  193 1    
   142   71  194 1    
   143   72   73 2    
   144   72   74 am   BACKBONE|DICT|INTERRES
   145   74   75 1    
   146   74  195 1    
   147   75   76 1    
   148   75   77 1    
   149   75  196 1    
   150   76  197 1    
   151   76  198 1    
   152   76  199 1    
   153   77   78 2    
   154   77   79 am   BACKBONE|DICT|INTERRES
   155   79   80 1    
   156   79  200 1    
   157   80   81 1    
   158   80   82 1    
   159   80  201 1    
   160   81  202 1    
   161   81  203 1    
   162   81  204 1    
   163   82   83 2    
   164   82   84 am   BACKBONE|DICT|INTERRES
   165   84   85 1    
   166   84  205 1    
   167   85   86 1    
   168   85   87 1    
   169   85  206 1    
   170   86  207 1    
   171   86  208 1    
   172   86  209 1    
   173   87   88 2    
   174   87   89 am   BACKBONE|DICT|INTERRES
   175   89   90 1    
   176   89  210 1    
   177   90   91 1    
   178   90   92 1    
   179   90  211 1    
   180   91  212 1    
   181   91  213 1    
   182   91  214 1    
   183   92   93 2    
   184   92   94 am   BACKBONE|DICT|INTERRES
   185   94   95 1    
   186   94  215 1    
   187   95   96 1    
   188   95   97 1    
   189   95  216 1    
   190   96  217 1    
   191   96  218 1    
   192   96  219 1    
   193   97   98 2    
   194   97   99 am   BACKBONE|DICT|INTERRES
   195   99  100 1    
   196   99  220 1    
   197  100  101 1    
   198  100  102 1    
   199  100  221 1    
   200  101  222 1    
   201  101  223 1    
   202  101  224 1    
   203  102  103 2    
   204  102  104 am   BACKBONE|DICT|INTERRES
   205  104  105 1    
   206  104  225 1    
   207  105  106 1    
   208  105  107 1    
   209  105  226 1    
   210  106  227 1    
   211  106  228 1    
   212  106  229 1    
   213  107  108 2    
   214  107  109 am   BACKBONE|DICT|INTERRES
   215  109  110 1    
   216  109  230 1    
   217  110  111 1    
   218  110  112 1    
   219  110  231 1    
   220  111  232 1    
   221  111  233 1    
   222  111  234 1    
   223  112  113 2    
   224  112  114 am   BACKBONE|DICT|INTERRES
   225  114  115 1    
   226  114  235 1    
   227  115  116 1    
   228  115  117 1    
   229  115  236 1    
   230  116  237 1    
   231  116  238 1    
   232  116  239 1    
   233  117  118 2    
   234  117  119 am   BACKBONE|DICT|INTERRES
   235  119  120 1    
   236  119  240 1    
   237  120  121 1    
   238  120  124 1    
   239  120  241 1    
   240  121  122 am   BACKBONE|DICT|INTERRES
   241  121  123 2    
   242  122  242 1    
   243  122  243 1    
   244  124  125 1    
   245  124  244 1    
   246  124  245 1    
   247  125  126 1    
   248  126  246 1    
   249  126  247 1    
@<TRIPOS>SUBSTRUCTURE
     1 UNK         1 GROUP             0       ****    0 ROOT    
