@<TRIPOS>MOLECULE
3R540
247   249    1
SMALL
USER_CHARGES


@<TRIPOS>ATOM
      1 CA         -6.5126  -14.9240  -49.9814 C.3       0 UNK        -0.1800 
      2 C          -5.2318  -14.1896  -49.6134 C.2       0 UNK         0.5000 
      3 O          -5.2984  -13.1152  -49.0152 O.2       0 UNK        -0.5000 
      4 N          -4.0710  -14.7578  -49.9673 N.am      1 UNK        -0.5000 
      5 CA         -2.7449  -14.2508  -49.5982 C.3       1 UNK         0.1400 
      6 C6         -1.6090  -15.0200  -50.3220 C.3       23 UNK        -0.0398 
      7 S7         -0.1239  -13.9862  -50.5440 S.3       23 UNK        -0.2404 
      8 C8          0.9565  -14.5862  -49.2036 C.3       23 UNK        -0.0205 
      9 C9          1.8105  -15.7904  -49.5810 C.ar      23 UNK        -0.0193 
     10 C10         2.5907  -15.7764  -50.7417 C.ar      23 UNK        -0.1150 
     11 C11         3.4697  -16.8261  -51.0232 C.ar      23 UNK        -0.0193 
     12 C12         3.5865  -17.8844  -50.1198 C.ar      23 UNK        -0.1150 
     13 C13         2.8072  -17.9170  -48.9603 C.ar      23 UNK        -0.0193 
     14 C14         1.9048  -16.8789  -48.7089 C.ar      23 UNK        -0.1150 
     15 C15         3.0010  -19.0366  -47.9492 C.3       23 UNK        -0.0205 
     16 S16         2.4128  -20.6411  -48.5658 S.3       23 UNK        -0.2404 
     17 C17         0.6030  -20.5008  -48.3871 C.3       23 UNK        -0.0398 
     18 CA          0.0157  -21.7990  -47.7856 C.3       11 UNK         0.1400 
     19 N           0.3360  -21.9796  -46.3653 N.am      11 UNK        -0.5000 
     20 C           0.1463  -23.1286  -45.6995 C.2       10 UNK         0.5000 
     21 O          -0.2606  -24.1642  -46.2260 O.2       10 UNK        -0.5000 
     22 CA          0.3906  -23.1018  -44.1816 C.3       10 UNK         0.1400 
     23 CB          1.8847  -23.2425  -43.8537 C.3       10 UNK        -0.1800 
     24 N          -0.1478  -21.8860  -43.5712 N.am      10 UNK        -0.5000 
     25 C          -1.4585  -21.6344  -43.4366 C.2       9 UNK         0.5000 
     26 O          -2.3406  -22.4261  -43.7690 O.2       9 UNK        -0.5000 
     27 CA         -1.8518  -20.2524  -42.8794 C.3       9 UNK         0.1400 
     28 CB         -1.8728  -20.2730  -41.3442 C.3       9 UNK        -0.1800 
     29 N          -0.9632  -19.1839  -43.3369 N.am      9 UNK        -0.5000 
     30 C          -0.8356  -18.7959  -44.6140 C.2       8 UNK         0.5000 
     31 O          -1.4997  -19.2587  -45.5383 O.2       8 UNK        -0.5000 
     32 CA          0.2688  -17.7744  -44.9283 C.3       8 UNK         0.1400 
     33 CB         -0.2911  -16.3462  -44.9490 C.3       8 UNK        -0.1800 
     34 N           1.4057  -17.8722  -44.0090 N.am      8 UNK        -0.5000 
     35 C           2.2280  -18.9331  -43.9599 C.2       7 UNK         0.5000 
     36 O           2.0979  -19.9124  -44.6948 O.2       7 UNK        -0.5000 
     37 CA          3.3514  -18.9352  -42.9067 C.3       7 UNK         0.1400 
     38 CB          4.7145  -18.6509  -43.5525 C.3       7 UNK        -0.1800 
     39 N           3.1180  -17.9831  -41.8206 N.am      7 UNK        -0.5000 
     40 C           2.2732  -18.2044  -40.8034 C.2       6 UNK         0.5000 
     41 O           1.6322  -19.2469  -40.6676 O.2       6 UNK        -0.5000 
     42 CA          2.0801  -17.0601  -39.7883 C.3       6 UNK         0.1400 
     43 CB          3.0619  -17.2093  -38.6166 C.3       6 UNK        -0.1800 
     44 N           2.2244  -15.7216  -40.3680 N.am      6 UNK        -0.5000 
     45 C           1.4581  -15.2237  -41.3478 C.2       5 UNK         0.5000 
     46 O           0.5447  -15.8574  -41.8753 O.2       5 UNK        -0.5000 
     47 CA          1.7680  -13.8010  -41.8537 C.3       5 UNK         0.1400 
     48 CB          2.7753  -13.0212  -40.9790 C.3       5 UNK        -0.1800 
     49 N           2.2031  -13.8055  -43.2533 N.am      5 UNK        -0.5000 
     50 C           3.2622  -14.4478  -43.7738 C.2       4 UNK         0.5000 
     51 O           3.9950  -15.1884  -43.1160 O.2       4 UNK        -0.5000 
     52 CA          3.5633  -14.2411  -45.2756 C.3       4 UNK         0.1400 
     53 CB          3.5984  -15.5769  -46.0329 C.3       4 UNK        -0.1800 
     54 N           2.6143  -13.3451  -45.9415 N.am      4 UNK        -0.5000 
     55 C           2.6980  -12.0079  -45.9406 C.2       3 UNK         0.5000 
     56 O           3.6202  -11.3837  -45.4152 O.2       3 UNK        -0.5000 
     57 CA          1.5515  -11.2291  -46.6189 C.3       3 UNK         0.1400 
     58 CB          1.9871  -10.7174  -48.0011 C.3       3 UNK        -0.1800 
     59 N           0.2898  -11.9697  -46.7564 N.am      3 UNK        -0.5000 
     60 C          -0.4676  -12.3955  -45.7327 C.2       2 UNK         0.5000 
     61 O          -0.1049  -12.3308  -44.5576 O.2       2 UNK        -0.5000 
     62 CA         -1.8495  -12.9945  -46.0569 C.3       2 UNK         0.1400 
     63 CB         -2.9719  -12.1178  -45.4771 C.3       2 UNK        -0.1800 
     64 N          -2.0767  -13.1619  -47.4966 N.am      2 UNK        -0.5000 
     65 C          -2.5456  -14.2797  -48.0660 C.2       1 UNK         0.5000 
     66 O          -2.8083  -15.3104  -47.4440 O.2       1 UNK        -0.5000 
     67 C          -1.4974  -21.9268  -48.0518 C.2       11 UNK         0.5000 
     68 O          -1.8727  -22.5773  -49.0232 O.2       11 UNK        -0.5000 
     69 N          -2.3442  -21.3754  -47.1700 N.am      12 UNK        -0.5000 
     70 CA         -3.8011  -21.5318  -47.2059 C.3       12 UNK         0.1400 
     71 CB         -4.4513  -20.6568  -46.1242 C.3       12 UNK        -0.1800 
     72 C          -4.2489  -22.9973  -47.0712 C.2       12 UNK         0.5000 
     73 O          -5.0979  -23.4414  -47.8437 O.2       12 UNK        -0.5000 
     74 N          -3.6430  -23.7322  -46.1283 N.am      13 UNK        -0.5000 
     75 CA         -3.8817  -25.1610  -45.9189 C.3       13 UNK         0.1400 
     76 CB         -3.1744  -25.6187  -44.6344 C.3       13 UNK        -0.1800 
     77 C          -3.4535  -26.0252  -47.1207 C.2       13 UNK         0.5000 
     78 O          -4.1730  -26.9576  -47.4805 O.2       13 UNK        -0.5000 
     79 N          -2.3061  -25.6910  -47.7272 N.am      14 UNK        -0.5000 
     80 CA         -1.7744  -26.3546  -48.9175 C.3       14 UNK         0.1400 
     81 CB         -0.3082  -25.9413  -49.1195 C.3       14 UNK        -0.1800 
     82 C          -2.6022  -26.0642  -50.1836 C.2       14 UNK         0.5000 
     83 O          -2.8844  -26.9864  -50.9497 O.2       14 UNK        -0.5000 
     84 N          -2.9683  -24.7913  -50.3823 N.am      15 UNK        -0.5000 
     85 CA         -3.7312  -24.3067  -51.5327 C.3       15 UNK         0.1400 
     86 CB         -3.6158  -22.7792  -51.5867 C.3       15 UNK        -0.1800 
     87 C          -5.2090  -24.7358  -51.5063 C.2       15 UNK         0.5000 
     88 O          -5.7893  -24.9501  -52.5720 O.2       15 UNK        -0.5000 
     89 N          -5.7778  -24.8625  -50.2982 N.am      16 UNK        -0.5000 
     90 CA         -7.1373  -25.3026  -49.9829 C.3       16 UNK         0.1400 
     91 CB         -7.3107  -26.8028  -50.3051 C.3       16 UNK        -0.1800 
     92 C          -8.2108  -24.4056  -50.6300 C.2       16 UNK         0.5000 
     93 O          -8.6010  -23.4015  -50.0332 O.2       16 UNK        -0.5000 
     94 N          -8.6725  -24.7845  -51.8287 N.am      17 UNK        -0.5000 
     95 CA         -9.6411  -24.0350  -52.6272 C.3       17 UNK         0.1400 
     96 CB        -10.2329  -24.9666  -53.6961 C.3       17 UNK        -0.1800 
     97 C          -9.0396  -22.7762  -53.2818 C.2       17 UNK         0.5000 
     98 O          -9.7745  -21.8164  -53.5200 O.2       17 UNK        -0.5000 
     99 N          -7.7298  -22.7955  -53.5682 N.am      18 UNK        -0.5000 
    100 CA        -6.9920  -21.6491  -54.0987 C.3       18 UNK         0.1400 
    101 CB        -5.7507  -22.1458  -54.8580 C.3       18 UNK        -0.1800 
    102 C         -6.6338  -20.6485  -52.9824 C.2       18 UNK         0.5000 
    103 O         -6.5167  -21.0318  -51.8162 O.2       18 UNK        -0.5000 
    104 N         -6.4649  -19.3768  -53.3646 N.am      19 UNK        -0.5000 
    105 CA        -6.3206  -18.2090  -52.4877 C.3       19 UNK         0.1400 
    106 CB        -6.6714  -16.9547  -53.3101 C.3       19 UNK        -0.1800 
    107 C         -4.9466  -18.0892  -51.7871 C.2       19 UNK         0.5000 
    108 O         -4.3181  -17.0298  -51.8416 O.2       19 UNK        -0.5000 
    109 N         -4.5150  -19.1672  -51.1199 N.am      20 UNK        -0.5000 
    110 CA        -3.2563  -19.2997  -50.3757 C.3       20 UNK         0.1400 
    111 CB        -3.2611  -18.4109  -49.1156 C.3       20 UNK        -0.1800 
    112 C         -2.0167  -19.0985  -51.2681 C.2       20 UNK         0.5000 
    113 O         -1.1022  -18.3551  -50.9128 O.2       20 UNK        -0.5000 
    114 N         -2.0324  -19.7712  -52.4268 N.am      21 UNK        -0.5000 
    115 CA        -0.9443  -19.8200  -53.4020 C.3       21 UNK         0.1400 
    116 CB        -1.4092  -20.6538  -54.6065 C.3       21 UNK        -0.1800 
    117 C          0.3581  -20.3986  -52.8132 C.2       21 UNK         0.5000 
    118 O          0.3091  -21.2266  -51.9014 O.2       21 UNK        -0.5000 
    119 N          1.4924  -19.9577  -53.3676 N.am      22 UNK        -0.5000 
    120 CA         2.8501  -20.2280  -52.8633 C.3       22 UNK         0.1400 
    121 C          3.3202  -21.7138  -52.9120 C.2       22 UNK         0.5000 
    122 N          2.6315  -22.6123  -53.6047 N.am      22 UNK        -0.7600 
    123 O          4.3383  -22.0547  -52.3162 O.2       22 UNK        -0.5000 
    124 C124        3.9118  -19.3183  -53.5417 C.3       23 UNK        -0.0398 
    125 S125        3.4457  -17.5550  -53.6900 S.3       23 UNK        -0.2404 
    126 C126        4.3157  -16.7925  -52.2854 C.3       23 UNK        -0.0205 
    127 H127       -6.9712  -14.4650  -50.8569 H         1 UNK         0.0600 
    128 H128       -7.2247  -14.8742  -49.1577 H         1 UNK         0.0600 
    129 H129       -6.3254  -15.9753  -50.1943 H         1 UNK         0.0600 
    130 H130       -4.0849  -15.6240  -50.4988 H         1 UNK         0.3000 
    131 H131       -2.7222  -13.2107  -49.9311 H         1 UNK         0.0600 
    132 H132       -1.9338  -15.3174  -51.3204 H         1 UNK         0.0800 
    133 H133       -1.3500  -15.9488  -49.8106 H         1 UNK         0.0800 
    134 H134        0.3591  -14.7960  -48.3159 H         1 UNK         0.0800 
    135 H135        1.6362  -13.7807  -48.9288 H         1 UNK         0.0800 
    136 H136        2.5278  -14.9365  -51.4192 H         1 UNK         0.1150 
    137 H137        4.2890  -18.6827  -50.3138 H         1 UNK         0.1150 
    138 H138        1.3147  -16.8885  -47.8057 H         1 UNK         0.1150 
    139 H139        4.0641  -19.1223  -47.7208 H         1 UNK         0.0800 
    140 H140        2.5134  -18.8004  -47.0061 H         1 UNK         0.0800 
    141 H141        0.1986  -20.3118  -49.3825 H         1 UNK         0.0800 
    142 H142        0.3377  -19.6347  -47.7800 H         1 UNK         0.0800 
    143 H143        0.4746  -22.6349  -48.3190 H         1 UNK         0.0600 
    144 H144        0.7135  -21.1818  -45.8689 H         1 UNK         0.3000 
    145 H145       -0.1283  -23.9581  -43.7452 H         1 UNK         0.0600 
    146 H146        2.0560  -23.2304  -42.7772 H         1 UNK         0.0600 
    147 H147        2.2753  -24.1870  -44.2344 H         1 UNK         0.0600 
    148 H148        2.4793  -22.4446  -44.2976 H         1 UNK         0.0600 
    149 H149        0.5170  -21.1682  -43.3213 H         1 UNK         0.3000 
    150 H150       -2.8598  -20.0248  -43.2317 H         1 UNK         0.0600 
    151 H151       -2.5534  -21.0409  -40.9740 H         1 UNK         0.0600 
    152 H152       -2.2102  -19.3180  -40.9411 H         1 UNK         0.0600 
    153 H153       -0.8855  -20.4820  -40.9303 H         1 UNK         0.0600 
    154 H154       -0.3688  -18.7548  -42.6418 H         1 UNK         0.3000 
    155 H155        0.6344  -17.9986  -45.9295 H         1 UNK         0.0600 
    156 H156       -0.9983  -16.2347  -45.7700 H         1 UNK         0.0600 
    157 H157        0.4918  -15.6027  -45.0899 H         1 UNK         0.0600 
    158 H158       -0.8257  -16.1040  -44.0308 H         1 UNK         0.0600 
    159 H159        1.5050  -17.1316  -43.3254 H         1 UNK         0.3000 
    160 H160        3.3907  -19.9431  -42.4877 H         1 UNK         0.0600 
    161 H161        4.7802  -17.6305  -43.9246 H         1 UNK         0.0600 
    162 H162        4.9005  -19.3219  -44.3924 H         1 UNK         0.0600 
    163 H163        5.5238  -18.7951  -42.8366 H         1 UNK         0.0600 
    164 H164        3.5772  -17.0830  -41.8954 H         1 UNK         0.3000 
    165 H165        1.0645  -17.1418  -39.3954 H         1 UNK         0.0600 
    166 H166        2.8750  -16.4604  -37.8467 H         1 UNK         0.0600 
    167 H167        2.9629  -18.1885  -38.1461 H         1 UNK         0.0600 
    168 H168        4.0972  -17.1052  -38.9436 H         1 UNK         0.0600 
    169 H169        2.9730  -15.1491  -40.0059 H         1 UNK         0.3000 
    170 H170        0.8216  -13.2588  -41.8289 H         1 UNK         0.0600 
    171 H171        2.4300  -12.9513  -39.9467 H         1 UNK         0.0600 
    172 H172        3.7637  -13.4818  -40.9716 H         1 UNK         0.0600 
    173 H173        2.8938  -12.0009  -41.3442 H         1 UNK         0.0600 
    174 H174        1.6203  -13.2574  -43.8764 H         1 UNK         0.3000 
    175 H175        4.5621  -13.8044  -45.3389 H         1 UNK         0.0600 
    176 H176        2.6636  -16.1257  -45.9345 H         1 UNK         0.0600 
    177 H177        3.7914  -15.4205  -47.0943 H         1 UNK         0.0600 
    178 H178        4.3970  -16.2169  -45.6606 H         1 UNK         0.0600 
    179 H179        1.8163  -13.7730  -46.3838 H         1 UNK         0.3000 
    180 H180        1.3486  -10.3594  -45.9902 H         1 UNK         0.0600 
    181 H181        2.2003  -11.5343  -48.6900 H         1 UNK         0.0600 
    182 H182        2.8913  -10.1119  -47.9253 H         1 UNK         0.0600 
    183 H183        1.2175  -10.0900  -48.4511 H         1 UNK         0.0600 
    184 H184       -0.0574  -12.0807  -47.6959 H         1 UNK         0.3000 
    185 H185       -1.8840  -13.9605  -45.5510 H         1 UNK         0.0600 
    186 H186       -2.8561  -11.9897  -44.4000 H         1 UNK         0.0600 
    187 H187       -2.9805  -11.1250  -45.9285 H         1 UNK         0.0600 
    188 H188       -3.9494  -12.5703  -45.6456 H         1 UNK         0.0600 
    189 H189       -1.9411  -12.3424  -48.0712 H         1 UNK         0.3000 
    190 H190       -1.9715  -20.7858  -46.4289 H         1 UNK         0.3000 
    191 H191       -4.1544  -21.1775  -48.1741 H         1 UNK         0.0600 
    192 H192       -4.1554  -20.9657  -45.1225 H         1 UNK         0.0600 
    193 H193       -5.5390  -20.7173  -46.1773 H         1 UNK         0.0600 
    194 H194       -4.1780  -19.6086  -46.2440 H         1 UNK         0.0600 
    195 H195       -2.9858  -23.2819  -45.4996 H         1 UNK         0.3000 
    196 H196       -4.9559  -25.2998  -45.7797 H         1 UNK         0.0600 
    197 H197       -3.3593  -26.6763  -44.4423 H         1 UNK         0.0600 
    198 H198       -3.5333  -25.0629  -43.7679 H         1 UNK         0.0600 
    199 H199       -2.0950  -25.4797  -44.6960 H         1 UNK         0.0600 
    200 H200       -1.7434  -24.9451  -47.3300 H         1 UNK         0.3000 
    201 H201       -1.7990  -27.4323  -48.7431 H         1 UNK         0.0600 
    202 H202        0.2988  -26.2068  -48.2538 H         1 UNK         0.0600 
    203 H203       -0.2103  -24.8669  -49.2783 H         1 UNK         0.0600 
    204 H204        0.1233  -26.4424  -49.9867 H         1 UNK         0.0600 
    205 H205       -2.6455  -24.0794  -49.7298 H         1 UNK         0.3000 
    206 H206       -3.2792  -24.7160  -52.4384 H         1 UNK         0.0600 
    207 H207       -2.5717  -22.4666  -51.6086 H         1 UNK         0.0600 
    208 H208       -4.0918  -22.3701  -52.4734 H         1 UNK         0.0600 
    209 H209       -4.0936  -22.3236  -50.7193 H         1 UNK         0.0600 
    210 H210       -5.2396  -24.5611  -49.4916 H         1 UNK         0.3000 
    211 H211       -7.2495  -25.1879  -48.9036 H         1 UNK         0.0600 
    212 H212       -7.1198  -27.0309  -51.3539 H         1 UNK         0.0600 
    213 H213       -8.3216  -27.1389  -50.0713 H         1 UNK         0.0600 
    214 H214       -6.6245  -27.4058  -49.7099 H         1 UNK         0.0600 
    215 H215       -8.2582  -25.5977  -52.2616 H         1 UNK         0.3000 
    216 H216      -10.4522  -23.7114  -51.9714 H         1 UNK         0.0600 
    217 H217      -10.9812  -24.4468  -54.2960 H         1 UNK         0.0600 
    218 H218      -10.7233  -25.8276  -53.2416 H         1 UNK         0.0600 
    219 H219       -9.4654  -25.3367  -54.3770 H         1 UNK         0.0600 
    220 H220       -7.1793  -23.5984  -53.2825 H         1 UNK         0.3000 
    221 H221       -7.6268  -21.1247  -54.8165 H         1 UNK         0.0600 
    222 H222       -5.1934  -22.8920  -54.2954 H         1 UNK         0.0600 
    223 H223       -6.0400  -22.6089  -55.8015 H         1 UNK         0.0600 
    224 H224       -5.0695  -21.3280  -55.0968 H         1 UNK         0.0600 
    225 H225       -6.5309  -19.1658  -54.3500 H         1 UNK         0.3000 
    226 H226       -7.0631  -18.2950  -51.6916 H         1 UNK         0.0600 
    227 H227       -7.6776  -17.0224  -53.7241 H         1 UNK         0.0600 
    228 H228       -6.6391  -16.0536  -52.6983 H         1 UNK         0.0600 
    229 H229       -5.9761  -16.8115  -54.1382 H         1 UNK         0.0600 
    230 H230       -5.1184  -19.9865  -51.1460 H         1 UNK         0.3000 
    231 H231       -3.2026  -20.3322  -50.0397 H         1 UNK         0.0600 
    232 H232       -2.3825  -18.5995  -48.4972 H         1 UNK         0.0600 
    233 H233       -4.1390  -18.6031  -48.4999 H         1 UNK         0.0600 
    234 H234       -3.2607  -17.3525  -49.3660 H         1 UNK         0.0600 
    235 H235       -2.8328  -20.3496  -52.6264 H         1 UNK         0.3000 
    236 H236       -0.7521  -18.7970  -53.7320 H         1 UNK         0.0600 
    237 H237       -1.6357  -21.6817  -54.3195 H         1 UNK         0.0600 
    238 H238       -2.3036  -20.2275  -55.0615 H         1 UNK         0.0600 
    239 H239       -0.6401  -20.6905  -55.3790 H         1 UNK         0.0600 
    240 H240        1.4418  -19.2867  -54.1203 H         1 UNK         0.3000 
    241 H241        2.8272  -19.9707  -51.8039 H         1 UNK         0.0600 
    242 H242        2.9455  -23.5696  -53.6279 H         1 UNK         0.3800 
    243 H243        1.7823  -22.3496  -54.0777 H         1 UNK         0.3800 
    244 H244        4.8649  -19.3946  -53.0160 H         1 UNK         0.0800 
    245 H245        4.1067  -19.6745  -54.5549 H         1 UNK         0.0800 
    246 H246        4.5449  -15.7570  -52.5416 H         1 UNK         0.0800 
    247 H247        5.2783  -17.2779  -52.1193 H         1 UNK         0.0800 
@<TRIPOS>BOND
     1    1    2 1    
     2    1  127 1    
     3    1  128 1    
     4    1  129 1    
     5    2    3 2    
     6    2    4 am   BACKBONE|DICT|INTERRES
     7    4    5 1    
     8    4  130 1    
     9    5    6 1    
    10    5   65 1    
    11    5  131 1    
    12    6    7 1    
    13    6  132 1    
    14    6  133 1    
    15    7    8 1    
    16    8    9 1    
    17    8  134 1    
    18    8  135 1    
    19    9   10 ar   
    20    9   14 ar   
    21   10   11 ar   
    22   10  136 1    
    23   11   12 ar   
    24   11  126 1    
    25   12   13 ar   
    26   12  137 1    
    27   13   14 ar   
    28   13   15 1    
    29   14  138 1    
    30   15   16 1    
    31   15  139 1    
    32   15  140 1    
    33   16   17 1    
    34   17   18 1    
    35   17  141 1    
    36   17  142 1    
    37   18   19 1    
    38   18   67 1    
    39   18  143 1    
    40   19   20 am   BACKBONE|DICT|INTERRES
    41   19  144 1    
    42   20   21 2    
    43   20   22 1    
    44   22   23 1    
    45   22   24 1    
    46   22  145 1    
    47   23  146 1    
    48   23  147 1    
    49   23  148 1    
    50   24   25 am   BACKBONE|DICT|INTERRES
    51   24  149 1    
    52   25   26 2    
    53   25   27 1    
    54   27   28 1    
    55   27   29 1    
    56   27  150 1    
    57   28  151 1    
    58   28  152 1    
    59   28  153 1    
    60   29   30 am   BACKBONE|DICT|INTERRES
    61   29  154 1    
    62   30   31 2    
    63   30   32 1    
    64   32   33 1    
    65   32   34 1    
    66   32  155 1    
    67   33  156 1    
    68   33  157 1    
    69   33  158 1    
    70   34   35 am   BACKBONE|DICT|INTERRES
    71   34  159 1    
    72   35   36 2    
    73   35   37 1    
    74   37   38 1    
    75   37   39 1    
    76   37  160 1    
    77   38  161 1    
    78   38  162 1    
    79   38  163 1    
    80   39   40 am   BACKBONE|DICT|INTERRES
    81   39  164 1    
    82   40   41 2    
    83   40   42 1    
    84   42   43 1    
    85   42   44 1    
    86   42  165 1    
    87   43  166 1    
    88   43  167 1    
    89   43  168 1    
    90   44   45 am   BACKBONE|DICT|INTERRES
    91   44  169 1    
    92   45   46 2    
    93   45   47 1    
    94   47   48 1    
    95   47   49 1    
    96   47  170 1    
    97   48  171 1    
    98   48  172 1    
    99   48  173 1    
   100   49   50 am   BACKBONE|DICT|INTERRES
   101   49  174 1    
   102   50   51 2    
   103   50   52 1    
   104   52   53 1    
   105   52   54 1    
   106   52  175 1    
   107   53  176 1    
   108   53  177 1    
   109   53  178 1    
   110   54   55 am   BACKBONE|DICT|INTERRES
   111   54  179 1    
   112   55   56 2    
   113   55   57 1    
   114   57   58 1    
   115   57   59 1    
   116   57  180 1    
   117   58  181 1    
   118   58  182 1    
   119   58  183 1    
   120   59   60 am   BACKBONE|DICT|INTERRES
   121   59  184 1    
   122   60   61 2    
   123   60   62 1    
   124   62   63 1    
   125   62   64 1    
   126   62  185 1    
   127   63  186 1    
   128   63  187 1    
   129   63  188 1    
   130   64   65 am   BACKBONE|DICT|INTERRES
   131   64  189 1    
   132   65   66 2    
   133   67   68 2    
   134   67   69 am   BACKBONE|DICT|INTERRES
   135   69   70 1    
   136   69  190 1    
   137   70   71 1    
   138   70   72 1    
   139   70  191 1    
   140   71  192 1    
   141   71  193 1    
   142   71  194 1    
   143   72   73 2    
   144   72   74 am   BACKBONE|DICT|INTERRES
   145   74   75 1    
   146   74  195 1    
   147   75   76 1    
   148   75   77 1    
   149   75  196 1    
   150   76  197 1    
   151   76  198 1    
   152   76  199 1    
   153   77   78 2    
   154   77   79 am   BACKBONE|DICT|INTERRES
   155   79   80 1    
   156   79  200 1    
   157   80   81 1    
   158   80   82 1    
   159   80  201 1    
   160   81  202 1    
   161   81  203 1    
   162   81  204 1    
   163   82   83 2    
   164   82   84 am   BACKBONE|DICT|INTERRES
   165   84   85 1    
   166   84  205 1    
   167   85   86 1    
   168   85   87 1    
   169   85  206 1    
   170   86  207 1    
   171   86  208 1    
   172   86  209 1    
   173   87   88 2    
   174   87   89 am   BACKBONE|DICT|INTERRES
   175   89   90 1    
   176   89  210 1    
   177   90   91 1    
   178   90   92 1    
   179   90  211 1    
   180   91  212 1    
   181   91  213 1    
   182   91  214 1    
   183   92   93 2    
   184   92   94 am   BACKBONE|DICT|INTERRES
   185   94   95 1    
   186   94  215 1    
   187   95   96 1    
   188   95   97 1    
   189   95  216 1    
   190   96  217 1    
   191   96  218 1    
   192   96  219 1    
   193   97   98 2    
   194   97   99 am   BACKBONE|DICT|INTERRES
   195   99  100 1    
   196   99  220 1    
   197  100  101 1    
   198  100  102 1    
   199  100  221 1    
   200  101  222 1    
   201  101  223 1    
   202  101  224 1    
   203  102  103 2    
   204  102  104 am   BACKBONE|DICT|INTERRES
   205  104  105 1    
   206  104  225 1    
   207  105  106 1    
   208  105  107 1    
   209  105  226 1    
   210  106  227 1    
   211  106  228 1    
   212  106  229 1    
   213  107  108 2    
   214  107  109 am   BACKBONE|DICT|INTERRES
   215  109  110 1    
   216  109  230 1    
   217  110  111 1    
   218  110  112 1    
   219  110  231 1    
   220  111  232 1    
   221  111  233 1    
   222  111  234 1    
   223  112  113 2    
   224  112  114 am   BACKBONE|DICT|INTERRES
   225  114  115 1    
   226  114  235 1    
   227  115  116 1    
   228  115  117 1    
   229  115  236 1    
   230  116  237 1    
   231  116  238 1    
   232  116  239 1    
   233  117  118 2    
   234  117  119 am   BACKBONE|DICT|INTERRES
   235  119  120 1    
   236  119  240 1    
   237  120  121 1    
   238  120  124 1    
   239  120  241 1    
   240  121  122 am   BACKBONE|DICT|INTERRES
   241  121  123 2    
   242  122  242 1    
   243  122  243 1    
   244  124  125 1    
   245  124  244 1    
   246  124  245 1    
   247  125  126 1    
   248  126  246 1    
   249  126  247 1    
@<TRIPOS>SUBSTRUCTURE
     1 UNK         1 GROUP             0       ****    0 ROOT    
