@<TRIPOS>MOLECULE
3R540
247   249    1
SMALL
USER_CHARGES


@<TRIPOS>ATOM
      1 CA          1.2405  -13.7777  -40.7905 C.3       0 UNK        -0.1800 
      2 C           0.2433  -14.1168  -41.8875 C.2       0 UNK         0.5000 
      3 O           0.5805  -14.8514  -42.8132 O.2       0 UNK        -0.5000 
      4 N          -0.9827  -13.5889  -41.7922 N.am      1 UNK        -0.5000 
      5 CA         -2.1207  -13.7616  -42.7103 C.3       1 UNK         0.1400 
      6 C6         -2.5245  -15.2454  -42.9675 C.3       23 UNK        -0.0398 
      7 S7         -4.2373  -15.5985  -42.4543 S.3       23 UNK        -0.2404 
      8 C8         -5.1783  -15.2078  -43.9658 C.3       23 UNK        -0.0205 
      9 C9         -4.9238  -16.1923  -45.0991 C.ar      23 UNK        -0.0193 
     10 C10        -4.4705  -15.7386  -46.3414 C.ar      23 UNK        -0.1150 
     11 C11        -4.2898  -16.6336  -47.4002 C.ar      23 UNK        -0.0193 
     12 C12        -4.5326  -17.9947  -47.1982 C.ar      23 UNK        -0.1150 
     13 C13        -4.9689  -18.4670  -45.9574 C.ar      23 UNK        -0.0193 
     14 C14        -5.1820  -17.5540  -44.9190 C.ar      23 UNK        -0.1150 
     15 C15        -5.2534  -19.9549  -45.7764 C.3       23 UNK        -0.0205 
     16 S16        -4.7467  -20.6251  -44.1554 S.3       23 UNK        -0.2404 
     17 C17        -2.9233  -20.5759  -44.2563 C.3       23 UNK        -0.0398 
     18 CA         -2.3062  -21.7970  -44.9796 C.3       11 UNK         0.1400 
     19 N          -0.8979  -21.5658  -45.3277 N.am      11 UNK        -0.5000 
     20 C          -0.1375  -22.3579  -46.0977 C.2       10 UNK         0.5000 
     21 O          -0.5701  -23.3620  -46.6618 O.2       10 UNK        -0.5000 
     22 CA          1.3506  -21.9993  -46.2325 C.3       10 UNK         0.1400 
     23 CB          1.5755  -21.0735  -47.4352 C.3       10 UNK        -0.1800 
     24 N           1.8531  -21.3591  -45.0168 N.am      10 UNK        -0.5000 
     25 C           2.3023  -22.0233  -43.9429 C.2       9 UNK         0.5000 
     26 O           2.4129  -23.2481  -43.8989 O.2       9 UNK        -0.5000 
     27 CA          2.6743  -21.1883  -42.7010 C.3       9 UNK         0.1400 
     28 CB          4.1612  -20.8048  -42.7389 C.3       9 UNK        -0.1800 
     29 N           1.8725  -19.9722  -42.5541 N.am      9 UNK        -0.5000 
     30 C           0.5609  -19.9457  -42.2775 C.2       8 UNK         0.5000 
     31 O          -0.1160  -20.9543  -42.0769 O.2       8 UNK        -0.5000 
     32 CA         -0.1168  -18.5579  -42.2803 C.3       8 UNK         0.1400 
     33 CB          0.0009  -17.9142  -40.8898 C.3       8 UNK        -0.1800 
     34 N           0.4107  -17.6288  -43.2887 N.am      8 UNK        -0.5000 
     35 C           0.5532  -17.8798  -44.5964 C.2       7 UNK         0.5000 
     36 O           0.2308  -18.9515  -45.1129 O.2       7 UNK        -0.5000 
     37 CA          1.2302  -16.7788  -45.4367 C.3       7 UNK         0.1400 
     38 CB          2.6589  -16.5045  -44.9344 C.3       7 UNK        -0.1800 
     39 N           1.3229  -17.1472  -46.8467 N.am      7 UNK        -0.5000 
     40 C           0.3200  -17.1362  -47.7291 C.2       6 UNK         0.5000 
     41 O          -0.8190  -16.7612  -47.4517 O.2       6 UNK        -0.5000 
     42 CA          0.6619  -17.5960  -49.1670 C.3       6 UNK         0.1400 
     43 CB         -0.4618  -17.2653  -50.1590 C.3       6 UNK        -0.1800 
     44 N           1.9008  -16.9999  -49.6710 N.am      6 UNK        -0.5000 
     45 C           3.1495  -17.3653  -49.3503 C.2       5 UNK         0.5000 
     46 O           3.4097  -18.3090  -48.6044 O.2       5 UNK        -0.5000 
     47 CA          4.2970  -16.5014  -49.9147 C.3       5 UNK         0.1400 
     48 CB          4.8749  -17.1451  -51.1841 C.3       5 UNK        -0.1800 
     49 N           3.9042  -15.1188  -50.2142 N.am      5 UNK        -0.5000 
     50 C           3.4668  -14.2326  -49.3081 C.2       4 UNK         0.5000 
     51 O           3.3829  -14.4808  -48.1036 O.2       4 UNK        -0.5000 
     52 CA          3.0015  -12.8706  -49.8635 C.3       4 UNK         0.1400 
     53 CB          1.7862  -13.0484  -50.7923 C.3       4 UNK        -0.1800 
     54 N           2.6209  -11.9439  -48.7997 N.am      4 UNK        -0.5000 
     55 C           3.4587  -11.3081  -47.9697 C.2       3 UNK         0.5000 
     56 O           4.6856  -11.3398  -48.0773 O.2       3 UNK        -0.5000 
     57 CA          2.8123  -10.4890  -46.8325 C.3       3 UNK         0.1400 
     58 CB          2.8553   -8.9878  -47.1593 C.3       3 UNK        -0.1800 
     59 N           1.4204  -10.8796  -46.5819 N.am      3 UNK        -0.5000 
     60 C           1.0527  -11.9401  -45.8520 C.2       2 UNK         0.5000 
     61 O           1.8384  -12.6519  -45.2224 O.2       2 UNK        -0.5000 
     62 CA         -0.4444  -12.2738  -45.8574 C.3       2 UNK         0.1400 
     63 CB         -0.8065  -13.1428  -47.0760 C.3       2 UNK        -0.1800 
     64 N          -0.7812  -12.9851  -44.6308 N.am      2 UNK        -0.5000 
     65 C          -1.9756  -12.9751  -44.0319 C.2       1 UNK         0.5000 
     66 O          -2.9465  -12.3585  -44.4726 O.2       1 UNK        -0.5000 
     67 C          -2.5266  -23.1293  -44.2201 C.2       11 UNK         0.5000 
     68 O          -3.5946  -23.7278  -44.3481 O.2       11 UNK        -0.5000 
     69 N          -1.4880  -23.6376  -43.5399 N.am      12 UNK        -0.5000 
     70 CA         -1.4361  -24.9916  -42.9757 C.3       12 UNK         0.1400 
     71 CB         -0.1334  -25.1489  -42.1783 C.3       12 UNK        -0.1800 
     72 C          -1.5652  -26.1173  -44.0306 C.2       12 UNK         0.5000 
     73 O          -2.0029  -27.2158  -43.6880 O.2       12 UNK        -0.5000 
     74 N          -1.2178  -25.8162  -45.2897 N.am      13 UNK        -0.5000 
     75 CA         -1.4082  -26.6588  -46.4717 C.3       13 UNK         0.1400 
     76 CB         -0.0480  -26.8385  -47.1694 C.3       13 UNK        -0.1800 
     77 C          -2.4584  -26.0408  -47.4219 C.2       13 UNK         0.5000 
     78 O          -2.4244  -26.2976  -48.6275 O.2       13 UNK        -0.5000 
     79 N          -3.3541  -25.2033  -46.8746 N.am      14 UNK        -0.5000 
     80 CA         -4.4319  -24.4764  -47.5532 C.3       14 UNK         0.1400 
     81 CB         -5.5177  -25.4588  -48.0398 C.3       14 UNK        -0.1800 
     82 C          -3.9321  -23.5326  -48.6671 C.2       14 UNK         0.5000 
     83 O          -4.6029  -23.3886  -49.6874 O.2       14 UNK        -0.5000 
     84 N          -2.7484  -22.9317  -48.4685 N.am      15 UNK        -0.5000 
     85 CA         -2.0201  -22.0822  -49.4190 C.3       15 UNK         0.1400 
     86 CB         -2.7839  -20.7743  -49.7031 C.3       15 UNK        -0.1800 
     87 C          -1.6208  -22.8639  -50.6845 C.2       15 UNK         0.5000 
     88 O          -1.8080  -22.3836  -51.8039 O.2       15 UNK        -0.5000 
     89 N          -1.1101  -24.0844  -50.4574 N.am      16 UNK        -0.5000 
     90 CA         -0.7754  -25.1078  -51.4516 C.3       16 UNK         0.1400 
     91 CB          0.4047  -24.6476  -52.3341 C.3       16 UNK        -0.1800 
     92 C          -2.0165  -25.5339  -52.2615 C.2       16 UNK         0.5000 
     93 O          -1.9641  -25.5898  -53.4892 O.2       16 UNK        -0.5000 
     94 N          -3.1283  -25.7753  -51.5496 N.am      17 UNK        -0.5000 
     95 CA         -4.4757  -26.0172  -52.0830 C.3       17 UNK         0.1400 
     96 CB         -4.5510  -27.3959  -52.7707 C.3       17 UNK        -0.1800 
     97 C          -4.9631  -24.8574  -52.9818 C.2       17 UNK         0.5000 
     98 O          -5.4144  -25.0812  -54.1063 O.2       17 UNK        -0.5000 
     99 N          -4.8230  -23.6319  -52.4574 N.am      18 UNK        -0.5000 
    100 CA        -5.1491  -22.3319  -53.0522 C.3       18 UNK         0.1400 
    101 CB        -6.6643  -22.2268  -53.3195 C.3       18 UNK        -0.1800 
    102 C         -4.3069  -21.9481  -54.2893 C.2       18 UNK         0.5000 
    103 O         -4.6532  -20.9850  -54.9761 O.2       18 UNK        -0.5000 
    104 N         -3.2187  -22.6815  -54.5636 N.am      19 UNK        -0.5000 
    105 CA        -2.3335  -22.4365  -55.7017 C.3       19 UNK         0.1400 
    106 CB        -1.5281  -23.7044  -56.0181 C.3       19 UNK        -0.1800 
    107 C         -1.3869  -21.2441  -55.4836 C.2       19 UNK         0.5000 
    108 O         -1.0043  -20.6060  -56.4656 O.2       19 UNK        -0.5000 
    109 N         -1.0132  -20.9643  -54.2252 N.am      20 UNK        -0.5000 
    110 CA        -0.1381  -19.8445  -53.8745 C.3       20 UNK         0.1400 
    111 CB         0.4470  -20.0497  -52.4675 C.3       20 UNK        -0.1800 
    112 C         -0.8724  -18.4975  -54.0014 C.2       20 UNK         0.5000 
    113 O         -0.3852  -17.6057  -54.6967 O.2       20 UNK        -0.5000 
    114 N         -2.0452  -18.4007  -53.3635 N.am      21 UNK        -0.5000 
    115 CA        -2.9943  -17.2897  -53.4116 C.3       21 UNK         0.1400 
    116 CB        -2.3925  -15.9846  -52.8409 C.3       21 UNK        -0.1800 
    117 C         -4.2426  -17.6932  -52.6087 C.2       21 UNK         0.5000 
    118 O         -4.2716  -18.7769  -52.0189 O.2       21 UNK        -0.5000 
    119 N         -5.2310  -16.7908  -52.5747 N.am      22 UNK        -0.5000 
    120 CA        -6.4536  -16.8688  -51.7519 C.3       22 UNK         0.1400 
    121 C         -7.4615  -17.9819  -52.1727 C.2       22 UNK         0.5000 
    122 N         -7.3836  -18.5123  -53.3863 N.am      22 UNK        -0.7600 
    123 O         -8.3547  -18.3428  -51.4109 O.2       22 UNK        -0.5000 
    124 C124       -6.1635  -16.8585  -50.2220 C.3       23 UNK        -0.0398 
    125 S125       -5.2130  -15.3857  -49.6978 S.3       23 UNK        -0.2404 
    126 C126       -3.8386  -16.1285  -48.7629 C.3       23 UNK        -0.0205 
    127 H127        0.8090  -13.1159  -40.0393 H         1 UNK         0.0600 
    128 H128        2.1133  -13.2851  -41.2191 H         1 UNK         0.0600 
    129 H129        1.5718  -14.6891  -40.2928 H         1 UNK         0.0600 
    130 H130       -1.1741  -12.9770  -41.0107 H         1 UNK         0.3000 
    131 H131       -2.9390  -13.2694  -42.1819 H         1 UNK         0.0600 
    132 H132       -2.3790  -15.5503  -44.0061 H         1 UNK         0.0800 
    133 H133       -1.8967  -15.9230  -42.3923 H         1 UNK         0.0800 
    134 H134       -6.2422  -15.2250  -43.7262 H         1 UNK         0.0800 
    135 H135       -4.9541  -14.1865  -44.2759 H         1 UNK         0.0800 
    136 H136       -4.2800  -14.6856  -46.4955 H         1 UNK         0.1150 
    137 H137       -4.3971  -18.6847  -48.0170 H         1 UNK         0.1150 
    138 H138       -5.5481  -17.9005  -43.9630 H         1 UNK         0.1150 
    139 H139       -6.3265  -20.1111  -45.8925 H         1 UNK         0.0800 
    140 H140       -4.7728  -20.5371  -46.5641 H         1 UNK         0.0800 
    141 H141       -2.5330  -20.5024  -43.2413 H         1 UNK         0.0800 
    142 H142       -2.6318  -19.6520  -44.7590 H         1 UNK         0.0800 
    143 H143       -2.8321  -21.8991  -45.9290 H         1 UNK         0.0600 
    144 H144       -0.4809  -20.7063  -44.9812 H         1 UNK         0.3000 
    145 H145        1.9039  -22.9236  -46.4119 H         1 UNK         0.0600 
    146 H146        2.6256  -20.7967  -47.5288 H         1 UNK         0.0600 
    147 H147        1.2857  -21.5620  -48.3659 H         1 UNK         0.0600 
    148 H148        0.9945  -20.1568  -47.3479 H         1 UNK         0.0600 
    149 H149        1.7188  -20.3574  -44.9542 H         1 UNK         0.3000 
    150 H150        2.5043  -21.8131  -41.8215 H         1 UNK         0.0600 
    151 H151        4.7912  -21.6914  -42.8239 H         1 UNK         0.0600 
    152 H152        4.4578  -20.2834  -41.8286 H         1 UNK         0.0600 
    153 H153        4.3889  -20.1577  -43.5870 H         1 UNK         0.0600 
    154 H154        2.3462  -19.0939  -42.7045 H         1 UNK         0.3000 
    155 H155       -1.1751  -18.7049  -42.4996 H         1 UNK         0.0600 
    156 H156       -0.3824  -18.5811  -40.1163 H         1 UNK         0.0600 
    157 H157       -0.5696  -16.9889  -40.8253 H         1 UNK         0.0600 
    158 H158        1.0375  -17.6839  -40.6407 H         1 UNK         0.0600 
    159 H159        0.6520  -16.6946  -42.9645 H         1 UNK         0.3000 
    160 H160        0.6378  -15.8659  -45.3486 H         1 UNK         0.0600 
    161 H161        3.2869  -17.3939  -44.9998 H         1 UNK         0.0600 
    162 H162        2.6660  -16.1714  -43.8965 H         1 UNK         0.0600 
    163 H163        3.1323  -15.7166  -45.5212 H         1 UNK         0.0600 
    164 H164        2.2168  -17.5013  -47.1655 H         1 UNK         0.3000 
    165 H165        0.7827  -18.6801  -49.1513 H         1 UNK         0.0600 
    166 H166       -0.7201  -16.2066  -50.1202 H         1 UNK         0.0600 
    167 H167       -0.1760  -17.4997  -51.1830 H         1 UNK         0.0600 
    168 H168       -1.3600  -17.8394  -49.9337 H         1 UNK         0.0600 
    169 H169        1.7920  -16.1890  -50.2604 H         1 UNK         0.3000 
    170 H170        5.0830  -16.4686  -49.1574 H         1 UNK         0.0600 
    171 H171        5.2023  -18.1673  -50.9893 H         1 UNK         0.0600 
    172 H172        4.1377  -17.1843  -51.9872 H         1 UNK         0.0600 
    173 H173        5.7412  -16.5925  -51.5484 H         1 UNK         0.0600 
    174 H174        3.9514  -14.8426  -51.1845 H         1 UNK         0.3000 
    175 H175        3.8246  -12.4330  -50.4321 H         1 UNK         0.0600 
    176 H176        0.9505  -13.5233  -50.2759 H         1 UNK         0.0600 
    177 H177        1.4394  -12.0880  -51.1745 H         1 UNK         0.0600 
    178 H178        2.0299  -13.6643  -51.6585 H         1 UNK         0.0600 
    179 H179        1.6347  -11.8733  -48.6066 H         1 UNK         0.3000 
    180 H180        3.4008  -10.6578  -45.9280 H         1 UNK         0.0600 
    181 H181        2.2861   -8.7545  -48.0600 H         1 UNK         0.0600 
    182 H182        3.8804   -8.6530  -47.3231 H         1 UNK         0.0600 
    183 H183        2.4482   -8.3942  -46.3405 H         1 UNK         0.0600 
    184 H184        0.7112  -10.3311  -47.0476 H         1 UNK         0.3000 
    185 H185       -1.0046  -11.3371  -45.8980 H         1 UNK         0.0600 
    186 H186       -0.2268  -14.0663  -47.0929 H         1 UNK         0.0600 
    187 H187       -0.6104  -12.6149  -48.0096 H         1 UNK         0.0600 
    188 H188       -1.8626  -13.4137  -47.0733 H         1 UNK         0.0600 
    189 H189       -0.0129  -13.4903  -44.1970 H         1 UNK         0.3000 
    190 H190       -0.6516  -23.0767  -43.4527 H         1 UNK         0.3000 
    191 H191       -2.2752  -25.0931  -42.2844 H         1 UNK         0.0600 
    192 H192        0.7422  -25.0809  -42.8244 H         1 UNK         0.0600 
    193 H193       -0.0440  -24.3818  -41.4086 H         1 UNK         0.0600 
    194 H194       -0.0965  -26.1176  -41.6785 H         1 UNK         0.0600 
    195 H195       -0.8821  -24.8800  -45.4926 H         1 UNK         0.3000 
    196 H196       -1.7803  -27.6439  -46.1848 H         1 UNK         0.0600 
    197 H197        0.6879  -27.2683  -46.4897 H         1 UNK         0.0600 
    198 H198        0.3465  -25.8884  -47.5317 H         1 UNK         0.0600 
    199 H199       -0.1282  -27.5105  -48.0247 H         1 UNK         0.0600 
    200 H200       -3.2956  -25.0299  -45.8769 H         1 UNK         0.3000 
    201 H201       -4.8884  -23.8308  -46.8019 H         1 UNK         0.0600 
    202 H202       -6.3726  -24.9270  -48.4593 H         1 UNK         0.0600 
    203 H203       -5.8908  -26.0683  -47.2169 H         1 UNK         0.0600 
    204 H204       -5.1404  -26.1329  -48.8084 H         1 UNK         0.0600 
    205 H205       -2.2213  -23.1805  -47.6375 H         1 UNK         0.3000 
    206 H206       -1.0839  -21.8038  -48.9364 H         1 UNK         0.0600 
    207 H207       -3.7507  -20.9514  -50.1735 H         1 UNK         0.0600 
    208 H208       -2.2198  -20.1207  -50.3668 H         1 UNK         0.0600 
    209 H209       -2.9524  -20.2240  -48.7794 H         1 UNK         0.0600 
    210 H210       -1.0516  -24.3915  -49.4964 H         1 UNK         0.3000 
    211 H211       -0.4523  -25.9895  -50.8962 H         1 UNK         0.0600 
    212 H212        1.2688  -24.3806  -51.7260 H         1 UNK         0.0600 
    213 H213        0.7178  -25.4424  -53.0119 H         1 UNK         0.0600 
    214 H214        0.1466  -23.7819  -52.9443 H         1 UNK         0.0600 
    215 H215       -3.0518  -25.7387  -50.5383 H         1 UNK         0.3000 
    216 H216       -5.1490  -26.0407  -51.2256 H         1 UNK         0.0600 
    217 H217       -5.5735  -27.6246  -53.0733 H         1 UNK         0.0600 
    218 H218       -3.9285  -27.4395  -53.6649 H         1 UNK         0.0600 
    219 H219       -4.2268  -28.1893  -52.0974 H         1 UNK         0.0600 
    220 H220       -4.4915  -23.5735  -51.4960 H         1 UNK         0.3000 
    221 H221       -4.9005  -21.5916  -52.2906 H         1 UNK         0.0600 
    222 H222       -6.9368  -21.2209  -53.6350 H         1 UNK         0.0600 
    223 H223       -6.9874  -22.9102  -54.1048 H         1 UNK         0.0600 
    224 H224       -7.2389  -22.4487  -52.4202 H         1 UNK         0.0600 
    225 H225       -2.9751  -23.4454  -53.9465 H         1 UNK         0.3000 
    226 H226       -2.9524  -22.2128  -56.5733 H         1 UNK         0.0600 
    227 H227       -2.1821  -24.5645  -56.1629 H         1 UNK         0.0600 
    228 H228       -0.9481  -23.5779  -56.9330 H         1 UNK         0.0600 
    229 H229       -0.8260  -23.9443  -55.2196 H         1 UNK         0.0600 
    230 H230       -1.3722  -21.5296  -53.4590 H         1 UNK         0.3000 
    231 H231        0.6992  -19.8353  -54.5759 H         1 UNK         0.0600 
    232 H232        1.1698  -19.2687  -52.2290 H         1 UNK         0.0600 
    233 H233        0.9661  -21.0055  -52.3928 H         1 UNK         0.0600 
    234 H234       -0.3238  -20.0301  -51.6988 H         1 UNK         0.0600 
    235 H235       -2.3935  -19.1922  -52.8351 H         1 UNK         0.3000 
    236 H236       -3.2831  -17.1381  -54.4531 H         1 UNK         0.0600 
    237 H237       -1.4032  -15.7618  -53.2371 H         1 UNK         0.0600 
    238 H238       -3.0239  -15.1299  -53.0845 H         1 UNK         0.0600 
    239 H239       -2.3191  -16.0206  -51.7555 H         1 UNK         0.0600 
    240 H240       -5.1223  -15.9343  -53.0979 H         1 UNK         0.3000 
    241 H241       -6.9916  -15.9451  -51.9676 H         1 UNK         0.0600 
    242 H242       -8.0525  -19.2121  -53.6638 H         1 UNK         0.3800 
    243 H243       -6.6562  -18.2306  -54.0236 H         1 UNK         0.3800 
    244 H244       -5.6403  -17.7699  -49.9322 H         1 UNK         0.0800 
    245 H245       -7.0947  -16.8543  -49.6535 H         1 UNK         0.0800 
    246 H246       -3.0520  -15.3842  -48.6298 H         1 UNK         0.0800 
    247 H247       -3.3985  -16.9360  -49.3478 H         1 UNK         0.0800 
@<TRIPOS>BOND
     1    1    2 1    
     2    1  127 1    
     3    1  128 1    
     4    1  129 1    
     5    2    3 2    
     6    2    4 am   BACKBONE|DICT|INTERRES
     7    4    5 1    
     8    4  130 1    
     9    5    6 1    
    10    5   65 1    
    11    5  131 1    
    12    6    7 1    
    13    6  132 1    
    14    6  133 1    
    15    7    8 1    
    16    8    9 1    
    17    8  134 1    
    18    8  135 1    
    19    9   10 ar   
    20    9   14 ar   
    21   10   11 ar   
    22   10  136 1    
    23   11   12 ar   
    24   11  126 1    
    25   12   13 ar   
    26   12  137 1    
    27   13   14 ar   
    28   13   15 1    
    29   14  138 1    
    30   15   16 1    
    31   15  139 1    
    32   15  140 1    
    33   16   17 1    
    34   17   18 1    
    35   17  141 1    
    36   17  142 1    
    37   18   19 1    
    38   18   67 1    
    39   18  143 1    
    40   19   20 am   BACKBONE|DICT|INTERRES
    41   19  144 1    
    42   20   21 2    
    43   20   22 1    
    44   22   23 1    
    45   22   24 1    
    46   22  145 1    
    47   23  146 1    
    48   23  147 1    
    49   23  148 1    
    50   24   25 am   BACKBONE|DICT|INTERRES
    51   24  149 1    
    52   25   26 2    
    53   25   27 1    
    54   27   28 1    
    55   27   29 1    
    56   27  150 1    
    57   28  151 1    
    58   28  152 1    
    59   28  153 1    
    60   29   30 am   BACKBONE|DICT|INTERRES
    61   29  154 1    
    62   30   31 2    
    63   30   32 1    
    64   32   33 1    
    65   32   34 1    
    66   32  155 1    
    67   33  156 1    
    68   33  157 1    
    69   33  158 1    
    70   34   35 am   BACKBONE|DICT|INTERRES
    71   34  159 1    
    72   35   36 2    
    73   35   37 1    
    74   37   38 1    
    75   37   39 1    
    76   37  160 1    
    77   38  161 1    
    78   38  162 1    
    79   38  163 1    
    80   39   40 am   BACKBONE|DICT|INTERRES
    81   39  164 1    
    82   40   41 2    
    83   40   42 1    
    84   42   43 1    
    85   42   44 1    
    86   42  165 1    
    87   43  166 1    
    88   43  167 1    
    89   43  168 1    
    90   44   45 am   BACKBONE|DICT|INTERRES
    91   44  169 1    
    92   45   46 2    
    93   45   47 1    
    94   47   48 1    
    95   47   49 1    
    96   47  170 1    
    97   48  171 1    
    98   48  172 1    
    99   48  173 1    
   100   49   50 am   BACKBONE|DICT|INTERRES
   101   49  174 1    
   102   50   51 2    
   103   50   52 1    
   104   52   53 1    
   105   52   54 1    
   106   52  175 1    
   107   53  176 1    
   108   53  177 1    
   109   53  178 1    
   110   54   55 am   BACKBONE|DICT|INTERRES
   111   54  179 1    
   112   55   56 2    
   113   55   57 1    
   114   57   58 1    
   115   57   59 1    
   116   57  180 1    
   117   58  181 1    
   118   58  182 1    
   119   58  183 1    
   120   59   60 am   BACKBONE|DICT|INTERRES
   121   59  184 1    
   122   60   61 2    
   123   60   62 1    
   124   62   63 1    
   125   62   64 1    
   126   62  185 1    
   127   63  186 1    
   128   63  187 1    
   129   63  188 1    
   130   64   65 am   BACKBONE|DICT|INTERRES
   131   64  189 1    
   132   65   66 2    
   133   67   68 2    
   134   67   69 am   BACKBONE|DICT|INTERRES
   135   69   70 1    
   136   69  190 1    
   137   70   71 1    
   138   70   72 1    
   139   70  191 1    
   140   71  192 1    
   141   71  193 1    
   142   71  194 1    
   143   72   73 2    
   144   72   74 am   BACKBONE|DICT|INTERRES
   145   74   75 1    
   146   74  195 1    
   147   75   76 1    
   148   75   77 1    
   149   75  196 1    
   150   76  197 1    
   151   76  198 1    
   152   76  199 1    
   153   77   78 2    
   154   77   79 am   BACKBONE|DICT|INTERRES
   155   79   80 1    
   156   79  200 1    
   157   80   81 1    
   158   80   82 1    
   159   80  201 1    
   160   81  202 1    
   161   81  203 1    
   162   81  204 1    
   163   82   83 2    
   164   82   84 am   BACKBONE|DICT|INTERRES
   165   84   85 1    
   166   84  205 1    
   167   85   86 1    
   168   85   87 1    
   169   85  206 1    
   170   86  207 1    
   171   86  208 1    
   172   86  209 1    
   173   87   88 2    
   174   87   89 am   BACKBONE|DICT|INTERRES
   175   89   90 1    
   176   89  210 1    
   177   90   91 1    
   178   90   92 1    
   179   90  211 1    
   180   91  212 1    
   181   91  213 1    
   182   91  214 1    
   183   92   93 2    
   184   92   94 am   BACKBONE|DICT|INTERRES
   185   94   95 1    
   186   94  215 1    
   187   95   96 1    
   188   95   97 1    
   189   95  216 1    
   190   96  217 1    
   191   96  218 1    
   192   96  219 1    
   193   97   98 2    
   194   97   99 am   BACKBONE|DICT|INTERRES
   195   99  100 1    
   196   99  220 1    
   197  100  101 1    
   198  100  102 1    
   199  100  221 1    
   200  101  222 1    
   201  101  223 1    
   202  101  224 1    
   203  102  103 2    
   204  102  104 am   BACKBONE|DICT|INTERRES
   205  104  105 1    
   206  104  225 1    
   207  105  106 1    
   208  105  107 1    
   209  105  226 1    
   210  106  227 1    
   211  106  228 1    
   212  106  229 1    
   213  107  108 2    
   214  107  109 am   BACKBONE|DICT|INTERRES
   215  109  110 1    
   216  109  230 1    
   217  110  111 1    
   218  110  112 1    
   219  110  231 1    
   220  111  232 1    
   221  111  233 1    
   222  111  234 1    
   223  112  113 2    
   224  112  114 am   BACKBONE|DICT|INTERRES
   225  114  115 1    
   226  114  235 1    
   227  115  116 1    
   228  115  117 1    
   229  115  236 1    
   230  116  237 1    
   231  116  238 1    
   232  116  239 1    
   233  117  118 2    
   234  117  119 am   BACKBONE|DICT|INTERRES
   235  119  120 1    
   236  119  240 1    
   237  120  121 1    
   238  120  124 1    
   239  120  241 1    
   240  121  122 am   BACKBONE|DICT|INTERRES
   241  121  123 2    
   242  122  242 1    
   243  122  243 1    
   244  124  125 1    
   245  124  244 1    
   246  124  245 1    
   247  125  126 1    
   248  126  246 1    
   249  126  247 1    
@<TRIPOS>SUBSTRUCTURE
     1 UNK         1 GROUP             0       ****    0 ROOT    
