@<TRIPOS>MOLECULE
3R540
247   249    1
SMALL
USER_CHARGES


@<TRIPOS>ATOM
      1 CA          1.5199  -13.4366  -54.5966 C.3       0 UNK        -0.1800 
      2 C           2.5346  -13.2311  -53.4803 C.2       0 UNK         0.5000 
      3 O           3.7222  -13.4858  -53.6817 O.2       0 UNK        -0.5000 
      4 N           2.0716  -12.7766  -52.3122 N.am      1 UNK        -0.5000 
      5 CA          2.8838  -12.5217  -51.1251 C.3       1 UNK         0.1400 
      6 C6          2.7776  -13.6884  -50.1106 C.3       23 UNK        -0.0398 
      7 S7          3.8966  -13.5493  -48.6739 S.3       23 UNK        -0.2404 
      8 C8          3.0222  -14.5774  -47.4465 C.3       23 UNK        -0.0205 
      9 C9          2.9018  -16.0202  -47.9148 C.ar      23 UNK        -0.0193 
     10 C10         1.7417  -16.4514  -48.5626 C.ar      23 UNK        -0.1150 
     11 C11         1.6481  -17.7493  -49.0685 C.ar      23 UNK        -0.0193 
     12 C12         2.7173  -18.6309  -48.8899 C.ar      23 UNK        -0.1150 
     13 C13         3.8608  -18.2332  -48.1902 C.ar      23 UNK        -0.0193 
     14 C14         3.9507  -16.9216  -47.7130 C.ar      23 UNK        -0.1150 
     15 C15         5.0068  -19.2101  -47.9660 C.3       23 UNK        -0.0205 
     16 S16         4.6329  -20.4108  -46.6453 S.3       23 UNK        -0.2404 
     17 C17         3.6632  -21.6572  -47.5598 C.3       23 UNK        -0.0398 
     18 CA          3.6409  -23.0330  -46.8541 C.3       11 UNK         0.1400 
     19 N           2.9117  -22.9824  -45.5836 N.am      11 UNK        -0.5000 
     20 C           3.0038  -23.9077  -44.6185 C.2       10 UNK         0.5000 
     21 O           3.6242  -24.9643  -44.7390 O.2       10 UNK        -0.5000 
     22 CA          2.3035  -23.5912  -43.2871 C.3       10 UNK         0.1400 
     23 CB          3.1187  -22.5690  -42.4786 C.3       10 UNK        -0.1800 
     24 N           0.9624  -23.0609  -43.5148 N.am      10 UNK        -0.5000 
     25 C          -0.1640  -23.7801  -43.4265 C.2       9 UNK         0.5000 
     26 O          -0.2010  -24.9576  -43.0694 O.2       9 UNK        -0.5000 
     27 CA         -1.4781  -23.0771  -43.8236 C.3       9 UNK         0.1400 
     28 CB         -2.1470  -22.4665  -42.5837 C.3       9 UNK        -0.1800 
     29 N          -1.3130  -22.0363  -44.8436 N.am      9 UNK        -0.5000 
     30 C          -0.8063  -22.2380  -46.0705 C.2       8 UNK         0.5000 
     31 O          -0.4893  -23.3480  -46.4911 O.2       8 UNK        -0.5000 
     32 CA         -0.5330  -21.0048  -46.9564 C.3       8 UNK         0.1400 
     33 CB         -1.7295  -20.7587  -47.8811 C.3       8 UNK        -0.1800 
     34 N          -0.2454  -19.7821  -46.2041 N.am      8 UNK        -0.5000 
     35 C           0.6787  -19.6546  -45.2371 C.2       7 UNK         0.5000 
     36 O           1.5027  -20.5312  -44.9705 O.2       7 UNK        -0.5000 
     37 CA          0.6137  -18.3908  -44.3523 C.3       7 UNK         0.1400 
     38 CB          1.7268  -17.4090  -44.7362 C.3       7 UNK        -0.1800 
     39 N          -0.6763  -17.6922  -44.3926 N.am      7 UNK        -0.5000 
     40 C          -1.8716  -18.2283  -44.0912 C.2       6 UNK         0.5000 
     41 O          -2.0070  -19.3626  -43.6321 O.2       6 UNK        -0.5000 
     42 CA         -3.1323  -17.3994  -44.4198 C.3       6 UNK         0.1400 
     43 CB         -3.7312  -16.8031  -43.1376 C.3       6 UNK        -0.1800 
     44 N          -2.9063  -16.3188  -45.3831 N.am      6 UNK        -0.5000 
     45 C          -2.4488  -16.4563  -46.6369 C.2       5 UNK         0.5000 
     46 O          -2.2452  -17.5473  -47.1682 O.2       5 UNK        -0.5000 
     47 CA         -2.0881  -15.1594  -47.3907 C.3       5 UNK         0.1400 
     48 CB         -3.1254  -14.8255  -48.4709 C.3       5 UNK        -0.1800 
     49 N          -1.9278  -13.9946  -46.5167 N.am      5 UNK        -0.5000 
     50 C          -0.9633  -13.8224  -45.6037 C.2       4 UNK         0.5000 
     51 O          -0.1030  -14.6741  -45.3758 O.2       4 UNK        -0.5000 
     52 CA         -0.9791  -12.4942  -44.8084 C.3       4 UNK         0.1400 
     53 CB          0.3520  -12.2379  -44.0790 C.3       4 UNK        -0.1800 
     54 N          -1.2838  -11.3278  -45.6424 N.am      4 UNK        -0.5000 
     55 C          -2.4839  -10.9830  -46.1315 C.2       3 UNK         0.5000 
     56 O          -3.5205  -11.5941  -45.8713 O.2       3 UNK        -0.5000 
     57 CA         -2.5271   -9.7993  -47.1225 C.3       3 UNK         0.1400 
     58 CB         -2.9740   -8.5159  -46.4065 C.3       3 UNK        -0.1800 
     59 N          -1.2501   -9.5491  -47.8016 N.am      3 UNK        -0.5000 
     60 C          -0.6257  -10.4183  -48.6088 C.2       2 UNK         0.5000 
     61 O          -1.0955  -11.5158  -48.9220 O.2       2 UNK        -0.5000 
     62 CA          0.7771  -10.0175  -49.0951 C.3       2 UNK         0.1400 
     63 CB          1.7057   -9.7169  -47.8946 C.3       2 UNK        -0.1800 
     64 N           1.3077  -11.1268  -49.8797 N.am      2 UNK        -0.5000 
     65 C           2.4684  -11.1614  -50.5424 C.2       1 UNK         0.5000 
     66 O           3.1964  -10.1809  -50.7065 O.2       1 UNK        -0.5000 
     67 C           3.1210  -24.1197  -47.8191 C.2       11 UNK         0.5000 
     68 O           3.9346  -24.7417  -48.5040 O.2       11 UNK        -0.5000 
     69 N           1.7973  -24.3146  -47.8815 N.am      12 UNK        -0.5000 
     70 CA          1.1385  -25.2406  -48.8073 C.3       12 UNK         0.1400 
     71 CB          0.1253  -24.4593  -49.6633 C.3       12 UNK        -0.1800 
     72 C           0.4349  -26.3932  -48.0726 C.2       12 UNK         0.5000 
     73 O           0.3780  -27.4983  -48.6138 O.2       12 UNK        -0.5000 
     74 N          -0.0912  -26.1147  -46.8701 N.am      13 UNK        -0.5000 
     75 CA         -0.9853  -26.9663  -46.0803 C.3       13 UNK         0.1400 
     76 CB         -0.2818  -28.2638  -45.6242 C.3       13 UNK        -0.1800 
     77 C          -2.3200  -27.1813  -46.8257 C.2       13 UNK         0.5000 
     78 O          -2.8049  -26.2320  -47.4416 O.2       13 UNK        -0.5000 
     79 N          -2.9014  -28.3892  -46.7486 N.am      14 UNK        -0.5000 
     80 CA         -4.1139  -28.8277  -47.4578 C.3       14 UNK         0.1400 
     81 CB         -3.8131  -28.9907  -48.9628 C.3       14 UNK        -0.1800 
     82 C          -5.3301  -27.9139  -47.1916 C.2       14 UNK         0.5000 
     83 O          -5.8958  -27.3402  -48.1247 O.2       14 UNK        -0.5000 
     84 N          -5.6613  -27.7434  -45.9016 N.am      15 UNK        -0.5000 
     85 CA         -6.7001  -26.8430  -45.3734 C.3       15 UNK         0.1400 
     86 CB         -8.1072  -27.3197  -45.7908 C.3       15 UNK        -0.1800 
     87 C          -6.4371  -25.3598  -45.7223 C.2       15 UNK         0.5000 
     88 O          -7.3720  -24.5978  -45.9728 O.2       15 UNK        -0.5000 
     89 N          -5.1457  -25.0025  -45.7608 N.am      16 UNK        -0.5000 
     90 CA         -4.5684  -23.7186  -46.1672 C.3       16 UNK         0.1400 
     91 CB         -5.0247  -22.5758  -45.2373 C.3       16 UNK        -0.1800 
     92 C          -4.7569  -23.3798  -47.6586 C.2       16 UNK         0.5000 
     93 O          -4.5609  -22.2242  -48.0301 O.2       16 UNK        -0.5000 
     94 N          -5.1165  -24.3731  -48.4882 N.am      17 UNK        -0.5000 
     95 CA         -5.1720  -24.3383  -49.9553 C.3       17 UNK         0.1400 
     96 CB         -3.7358  -24.3848  -50.5167 C.3       17 UNK        -0.1800 
     97 C          -5.9947  -23.1687  -50.5434 C.2       17 UNK         0.5000 
     98 O          -5.6439  -22.6432  -51.6011 O.2       17 UNK        -0.5000 
     99 N          -7.0442  -22.7439  -49.8216 N.am      18 UNK        -0.5000 
    100 CA        -7.8761  -21.5616  -50.0897 C.3       18 UNK         0.1400 
    101 CB        -8.7477  -21.7844  -51.3434 C.3       18 UNK        -0.1800 
    102 C         -7.0612  -20.2463  -50.1468 C.2       18 UNK         0.5000 
    103 O         -7.3569  -19.3685  -50.9591 O.2       18 UNK        -0.5000 
    104 N         -6.0248  -20.1588  -49.2983 N.am      19 UNK        -0.5000 
    105 CA        -5.0176  -19.0957  -49.1910 C.3       19 UNK         0.1400 
    106 CB        -5.6710  -17.7234  -48.9347 C.3       19 UNK        -0.1800 
    107 C         -4.0110  -19.0737  -50.3630 C.2       19 UNK         0.5000 
    108 O         -3.2447  -18.1163  -50.4869 O.2       19 UNK        -0.5000 
    109 N         -4.0330  -20.1204  -51.2066 N.am      20 UNK        -0.5000 
    110 CA        -3.1386  -20.4113  -52.3354 C.3       20 UNK         0.1400 
    111 CB        -1.7609  -20.8501  -51.8053 C.3       20 UNK        -0.1800 
    112 C         -3.0356  -19.2966  -53.4024 C.2       20 UNK         0.5000 
    113 O         -2.0887  -19.2930  -54.1904 O.2       20 UNK        -0.5000 
    114 N         -4.0121  -18.3763  -53.4089 N.am      21 UNK        -0.5000 
    115 CA        -4.0882  -17.1557  -54.2172 C.3       21 UNK         0.1400 
    116 CB        -4.2723  -17.4983  -55.7107 C.3       21 UNK        -0.1800 
    117 C         -2.9248  -16.1675  -53.9639 C.2       21 UNK         0.5000 
    118 O         -2.5783  -15.3957  -54.8603 O.2       21 UNK        -0.5000 
    119 N         -2.3470  -16.1897  -52.7529 N.am      22 UNK        -0.5000 
    120 CA        -1.2264  -15.3162  -52.3578 C.3       22 UNK         0.1400 
    121 C         -1.6171  -13.8373  -52.0602 C.2       22 UNK         0.5000 
    122 N         -2.8929  -13.4809  -51.9876 N.am      22 UNK        -0.7600 
    123 O         -0.7377  -12.9955  -51.8956 O.2       22 UNK        -0.5000 
    124 C124       -0.4161  -15.8954  -51.1741 C.3       23 UNK        -0.0398 
    125 S125        0.2907  -17.5449  -51.4915 S.3       23 UNK        -0.2404 
    126 C126        0.3934  -18.2076  -49.7965 C.3       23 UNK        -0.0205 
    127 H127        1.3974  -14.5002  -54.8012 H         1 UNK         0.0600 
    128 H128        1.8618  -12.9498  -55.5100 H         1 UNK         0.0600 
    129 H129        0.5444  -13.0228  -54.3407 H         1 UNK         0.0600 
    130 H130        1.0733  -12.6035  -52.2057 H         1 UNK         0.3000 
    131 H131        3.9332  -12.4264  -51.4125 H         1 UNK         0.0600 
    132 H132        1.7535  -13.7843  -49.7511 H         1 UNK         0.0800 
    133 H133        3.0104  -14.6284  -50.6134 H         1 UNK         0.0800 
    134 H134        3.5629  -14.5418  -46.4997 H         1 UNK         0.0800 
    135 H135        2.0359  -14.1543  -47.2481 H         1 UNK         0.0800 
    136 H136        0.9217  -15.7645  -48.6943 H         1 UNK         0.1150 
    137 H137        2.6542  -19.6317  -49.2900 H         1 UNK         0.1150 
    138 H138        4.8416  -16.5957  -47.1949 H         1 UNK         0.1150 
    139 H139        5.2452  -19.7271  -48.8963 H         1 UNK         0.0800 
    140 H140        5.9106  -18.6663  -47.6875 H         1 UNK         0.0800 
    141 H141        4.0911  -21.7500  -48.5599 H         1 UNK         0.0800 
    142 H142        2.6483  -21.2833  -47.6886 H         1 UNK         0.0800 
    143 H143        4.6750  -23.2990  -46.6228 H         1 UNK         0.0600 
    144 H144        2.4217  -22.1140  -45.3847 H         1 UNK         0.3000 
    145 H145        2.2548  -24.5140  -42.7052 H         1 UNK         0.0600 
    146 H146        2.6563  -22.3763  -41.5105 H         1 UNK         0.0600 
    147 H147        4.1280  -22.9368  -42.2897 H         1 UNK         0.0600 
    148 H148        3.2091  -21.6157  -43.0011 H         1 UNK         0.0600 
    149 H149        0.9102  -22.1093  -43.8604 H         1 UNK         0.3000 
    150 H150       -2.1419  -23.8424  -44.2266 H         1 UNK         0.0600 
    151 H151       -2.3491  -23.2301  -41.8316 H         1 UNK         0.0600 
    152 H152       -3.0975  -21.9964  -42.8344 H         1 UNK         0.0600 
    153 H153       -1.5144  -21.7080  -42.1210 H         1 UNK         0.0600 
    154 H154       -1.5355  -21.0888  -44.5530 H         1 UNK         0.3000 
    155 H155        0.3369  -21.2257  -47.5753 H         1 UNK         0.0600 
    156 H156       -1.9457  -21.6394  -48.4873 H         1 UNK         0.0600 
    157 H157       -1.5503  -19.9330  -48.5662 H         1 UNK         0.0600 
    158 H158       -2.6255  -20.5220  -47.3071 H         1 UNK         0.0600 
    159 H159       -0.8764  -19.0055  -46.3675 H         1 UNK         0.3000 
    160 H160        0.7813  -18.7141  -43.3232 H         1 UNK         0.0600 
    161 H161        1.5486  -16.9856  -45.7232 H         1 UNK         0.0600 
    162 H162        2.7013  -17.8994  -44.7578 H         1 UNK         0.0600 
    163 H163        1.7897  -16.5837  -44.0268 H         1 UNK         0.0600 
    164 H164       -0.6523  -16.7484  -44.7602 H         1 UNK         0.3000 
    165 H165       -3.8623  -18.0834  -44.8574 H         1 UNK         0.0600 
    166 H166       -4.6707  -16.2890  -43.3419 H         1 UNK         0.0600 
    167 H167       -3.9428  -17.5833  -42.4050 H         1 UNK         0.0600 
    168 H168       -3.0510  -16.0897  -42.6704 H         1 UNK         0.0600 
    169 H169       -3.0392  -15.3796  -45.0390 H         1 UNK         0.3000 
    170 H170       -1.1317  -15.3324  -47.8832 H         1 UNK         0.0600 
    171 H171       -3.1974  -15.6280  -49.2051 H         1 UNK         0.0600 
    172 H172       -4.1170  -14.6711  -48.0443 H         1 UNK         0.0600 
    173 H173       -2.8491  -13.9208  -49.0133 H         1 UNK         0.0600 
    174 H174       -2.6134  -13.2542  -46.6145 H         1 UNK         0.3000 
    175 H175       -1.7606  -12.5888  -44.0520 H         1 UNK         0.0600 
    176 H176        1.1847  -12.1606  -44.7794 H         1 UNK         0.0600 
    177 H177        0.3137  -11.3157  -43.4988 H         1 UNK         0.0600 
    178 H178        0.5817  -13.0457  -43.3828 H         1 UNK         0.0600 
    179 H179       -0.4904  -10.7787  -45.9361 H         1 UNK         0.3000 
    180 H180       -3.2685  -10.0425  -47.8864 H         1 UNK         0.0600 
    181 H181       -2.2565   -8.2094  -45.6443 H         1 UNK         0.0600 
    182 H182       -3.9364   -8.6585  -45.9129 H         1 UNK         0.0600 
    183 H183       -3.0912   -7.6913  -47.1100 H         1 UNK         0.0600 
    184 H184       -0.8040   -8.6663  -47.5976 H         1 UNK         0.3000 
    185 H185        0.6867   -9.1371  -49.7337 H         1 UNK         0.0600 
    186 H186        1.3264   -8.8959  -47.2859 H         1 UNK         0.0600 
    187 H187        1.8135  -10.5872  -47.2457 H         1 UNK         0.0600 
    188 H188        2.7035   -9.4220  -48.2180 H         1 UNK         0.0600 
    189 H189        0.6969  -11.9364  -49.8687 H         1 UNK         0.3000 
    190 H190        1.1830  -23.7998  -47.2592 H         1 UNK         0.3000 
    191 H191        1.8663  -25.6901  -49.4859 H         1 UNK         0.0600 
    192 H192        0.6102  -23.6521  -50.2123 H         1 UNK         0.0600 
    193 H193       -0.3495  -25.1124  -50.3966 H         1 UNK         0.0600 
    194 H194       -0.6697  -24.0224  -49.0581 H         1 UNK         0.0600 
    195 H195       -0.0861  -25.1384  -46.5885 H         1 UNK         0.3000 
    196 H196       -1.2311  -26.3935  -45.1859 H         1 UNK         0.0600 
    197 H197       -0.8780  -28.7955  -44.8821 H         1 UNK         0.0600 
    198 H198        0.6781  -28.0406  -45.1582 H         1 UNK         0.0600 
    199 H199       -0.0964  -28.9473  -46.4533 H         1 UNK         0.0600 
    200 H200       -2.4371  -29.1003  -46.2012 H         1 UNK         0.3000 
    201 H201       -4.3730  -29.8118  -47.0646 H         1 UNK         0.0600 
    202 H202       -2.9825  -29.6773  -49.1261 H         1 UNK         0.0600 
    203 H203       -3.5559  -28.0393  -49.4305 H         1 UNK         0.0600 
    204 H204       -4.6767  -29.3935  -49.4932 H         1 UNK         0.0600 
    205 H205       -5.1248  -28.2450  -45.2069 H         1 UNK         0.3000 
    206 H206       -6.6411  -26.9106  -44.2861 H         1 UNK         0.0600 
    207 H207       -8.2636  -28.3655  -45.5265 H         1 UNK         0.0600 
    208 H208       -8.8814  -26.7399  -45.2869 H         1 UNK         0.0600 
    209 H209       -8.2703  -27.2166  -46.8639 H         1 UNK         0.0600 
    210 H210       -4.4691  -25.7339  -45.5977 H         1 UNK         0.3000 
    211 H211       -3.4923  -23.8332  -46.0460 H         1 UNK         0.0600 
    212 H212       -6.0686  -22.3099  -45.4050 H         1 UNK         0.0600 
    213 H213       -4.4286  -21.6770  -45.4014 H         1 UNK         0.0600 
    214 H214       -4.9136  -22.8515  -44.1892 H         1 UNK         0.0600 
    215 H215       -5.2575  -25.2925  -48.0849 H         1 UNK         0.3000 
    216 H216       -5.6801  -25.2527  -50.2641 H         1 UNK         0.0600 
    217 H217       -3.1899  -25.2443  -50.1266 H         1 UNK         0.0600 
    218 H218       -3.1753  -23.4882  -50.2520 H         1 UNK         0.0600 
    219 H219       -3.7345  -24.4678  -51.6040 H         1 UNK         0.0600 
    220 H220       -7.2354  -23.2280  -48.9549 H         1 UNK         0.3000 
    221 H221       -8.5479  -21.4612  -49.2363 H         1 UNK         0.0600 
    222 H222       -8.1466  -21.8357  -52.2517 H         1 UNK         0.0600 
    223 H223       -9.3191  -22.7093  -51.2668 H         1 UNK         0.0600 
    224 H224       -9.4639  -20.9720  -51.4714 H         1 UNK         0.0600 
    225 H225       -5.8048  -20.9775  -48.7355 H         1 UNK         0.3000 
    226 H226       -4.4326  -19.3400  -48.3042 H         1 UNK         0.0600 
    227 H227       -6.4422  -17.7874  -48.1672 H         1 UNK         0.0600 
    228 H228       -4.9311  -17.0083  -48.5823 H         1 UNK         0.0600 
    229 H229       -6.1227  -17.3099  -49.8366 H         1 UNK         0.0600 
    230 H230       -4.7311  -20.8366  -51.0412 H         1 UNK         0.3000 
    231 H231       -3.5763  -21.2673  -52.8503 H         1 UNK         0.0600 
    232 H232       -1.2695  -20.0375  -51.2763 H         1 UNK         0.0600 
    233 H233       -1.1012  -21.1646  -52.6146 H         1 UNK         0.0600 
    234 H234       -1.8495  -21.6895  -51.1168 H         1 UNK         0.0600 
    235 H235       -4.7354  -18.4806  -52.7111 H         1 UNK         0.3000 
    236 H236       -4.9906  -16.6383  -53.8894 H         1 UNK         0.0600 
    237 H237       -5.1021  -18.1898  -55.8575 H         1 UNK         0.0600 
    238 H238       -4.4919  -16.6034  -56.2940 H         1 UNK         0.0600 
    239 H239       -3.3772  -17.9526  -56.1361 H         1 UNK         0.0600 
    240 H240       -2.6614  -16.8623  -52.0605 H         1 UNK         0.3000 
    241 H241       -0.5443  -15.2675  -53.2085 H         1 UNK         0.0600 
    242 H242       -3.1216  -12.5198  -51.7911 H         1 UNK         0.3800 
    243 H243       -3.6263  -14.1567  -52.1227 H         1 UNK         0.3800 
    244 H244       -1.0461  -15.9400  -50.2861 H         1 UNK         0.0800 
    245 H245        0.4180  -15.2375  -50.9357 H         1 UNK         0.0800 
    246 H246        0.3846  -19.2962  -49.8523 H         1 UNK         0.0800 
    247 H247       -0.4937  -17.9274  -49.2276 H         1 UNK         0.0800 
@<TRIPOS>BOND
     1    1    2 1    
     2    1  127 1    
     3    1  128 1    
     4    1  129 1    
     5    2    3 2    
     6    2    4 am   BACKBONE|DICT|INTERRES
     7    4    5 1    
     8    4  130 1    
     9    5    6 1    
    10    5   65 1    
    11    5  131 1    
    12    6    7 1    
    13    6  132 1    
    14    6  133 1    
    15    7    8 1    
    16    8    9 1    
    17    8  134 1    
    18    8  135 1    
    19    9   10 ar   
    20    9   14 ar   
    21   10   11 ar   
    22   10  136 1    
    23   11   12 ar   
    24   11  126 1    
    25   12   13 ar   
    26   12  137 1    
    27   13   14 ar   
    28   13   15 1    
    29   14  138 1    
    30   15   16 1    
    31   15  139 1    
    32   15  140 1    
    33   16   17 1    
    34   17   18 1    
    35   17  141 1    
    36   17  142 1    
    37   18   19 1    
    38   18   67 1    
    39   18  143 1    
    40   19   20 am   BACKBONE|DICT|INTERRES
    41   19  144 1    
    42   20   21 2    
    43   20   22 1    
    44   22   23 1    
    45   22   24 1    
    46   22  145 1    
    47   23  146 1    
    48   23  147 1    
    49   23  148 1    
    50   24   25 am   BACKBONE|DICT|INTERRES
    51   24  149 1    
    52   25   26 2    
    53   25   27 1    
    54   27   28 1    
    55   27   29 1    
    56   27  150 1    
    57   28  151 1    
    58   28  152 1    
    59   28  153 1    
    60   29   30 am   BACKBONE|DICT|INTERRES
    61   29  154 1    
    62   30   31 2    
    63   30   32 1    
    64   32   33 1    
    65   32   34 1    
    66   32  155 1    
    67   33  156 1    
    68   33  157 1    
    69   33  158 1    
    70   34   35 am   BACKBONE|DICT|INTERRES
    71   34  159 1    
    72   35   36 2    
    73   35   37 1    
    74   37   38 1    
    75   37   39 1    
    76   37  160 1    
    77   38  161 1    
    78   38  162 1    
    79   38  163 1    
    80   39   40 am   BACKBONE|DICT|INTERRES
    81   39  164 1    
    82   40   41 2    
    83   40   42 1    
    84   42   43 1    
    85   42   44 1    
    86   42  165 1    
    87   43  166 1    
    88   43  167 1    
    89   43  168 1    
    90   44   45 am   BACKBONE|DICT|INTERRES
    91   44  169 1    
    92   45   46 2    
    93   45   47 1    
    94   47   48 1    
    95   47   49 1    
    96   47  170 1    
    97   48  171 1    
    98   48  172 1    
    99   48  173 1    
   100   49   50 am   BACKBONE|DICT|INTERRES
   101   49  174 1    
   102   50   51 2    
   103   50   52 1    
   104   52   53 1    
   105   52   54 1    
   106   52  175 1    
   107   53  176 1    
   108   53  177 1    
   109   53  178 1    
   110   54   55 am   BACKBONE|DICT|INTERRES
   111   54  179 1    
   112   55   56 2    
   113   55   57 1    
   114   57   58 1    
   115   57   59 1    
   116   57  180 1    
   117   58  181 1    
   118   58  182 1    
   119   58  183 1    
   120   59   60 am   BACKBONE|DICT|INTERRES
   121   59  184 1    
   122   60   61 2    
   123   60   62 1    
   124   62   63 1    
   125   62   64 1    
   126   62  185 1    
   127   63  186 1    
   128   63  187 1    
   129   63  188 1    
   130   64   65 am   BACKBONE|DICT|INTERRES
   131   64  189 1    
   132   65   66 2    
   133   67   68 2    
   134   67   69 am   BACKBONE|DICT|INTERRES
   135   69   70 1    
   136   69  190 1    
   137   70   71 1    
   138   70   72 1    
   139   70  191 1    
   140   71  192 1    
   141   71  193 1    
   142   71  194 1    
   143   72   73 2    
   144   72   74 am   BACKBONE|DICT|INTERRES
   145   74   75 1    
   146   74  195 1    
   147   75   76 1    
   148   75   77 1    
   149   75  196 1    
   150   76  197 1    
   151   76  198 1    
   152   76  199 1    
   153   77   78 2    
   154   77   79 am   BACKBONE|DICT|INTERRES
   155   79   80 1    
   156   79  200 1    
   157   80   81 1    
   158   80   82 1    
   159   80  201 1    
   160   81  202 1    
   161   81  203 1    
   162   81  204 1    
   163   82   83 2    
   164   82   84 am   BACKBONE|DICT|INTERRES
   165   84   85 1    
   166   84  205 1    
   167   85   86 1    
   168   85   87 1    
   169   85  206 1    
   170   86  207 1    
   171   86  208 1    
   172   86  209 1    
   173   87   88 2    
   174   87   89 am   BACKBONE|DICT|INTERRES
   175   89   90 1    
   176   89  210 1    
   177   90   91 1    
   178   90   92 1    
   179   90  211 1    
   180   91  212 1    
   181   91  213 1    
   182   91  214 1    
   183   92   93 2    
   184   92   94 am   BACKBONE|DICT|INTERRES
   185   94   95 1    
   186   94  215 1    
   187   95   96 1    
   188   95   97 1    
   189   95  216 1    
   190   96  217 1    
   191   96  218 1    
   192   96  219 1    
   193   97   98 2    
   194   97   99 am   BACKBONE|DICT|INTERRES
   195   99  100 1    
   196   99  220 1    
   197  100  101 1    
   198  100  102 1    
   199  100  221 1    
   200  101  222 1    
   201  101  223 1    
   202  101  224 1    
   203  102  103 2    
   204  102  104 am   BACKBONE|DICT|INTERRES
   205  104  105 1    
   206  104  225 1    
   207  105  106 1    
   208  105  107 1    
   209  105  226 1    
   210  106  227 1    
   211  106  228 1    
   212  106  229 1    
   213  107  108 2    
   214  107  109 am   BACKBONE|DICT|INTERRES
   215  109  110 1    
   216  109  230 1    
   217  110  111 1    
   218  110  112 1    
   219  110  231 1    
   220  111  232 1    
   221  111  233 1    
   222  111  234 1    
   223  112  113 2    
   224  112  114 am   BACKBONE|DICT|INTERRES
   225  114  115 1    
   226  114  235 1    
   227  115  116 1    
   228  115  117 1    
   229  115  236 1    
   230  116  237 1    
   231  116  238 1    
   232  116  239 1    
   233  117  118 2    
   234  117  119 am   BACKBONE|DICT|INTERRES
   235  119  120 1    
   236  119  240 1    
   237  120  121 1    
   238  120  124 1    
   239  120  241 1    
   240  121  122 am   BACKBONE|DICT|INTERRES
   241  121  123 2    
   242  122  242 1    
   243  122  243 1    
   244  124  125 1    
   245  124  244 1    
   246  124  245 1    
   247  125  126 1    
   248  126  246 1    
   249  126  247 1    
@<TRIPOS>SUBSTRUCTURE
     1 UNK         1 GROUP             0       ****    0 ROOT    
