@<TRIPOS>MOLECULE
3R540
247   249    1
SMALL
USER_CHARGES


@<TRIPOS>ATOM
      1 CA          0.0033  -13.7690  -50.2194 C.3       0 UNK        -0.1800 
      2 C           0.1487  -14.6003  -48.9491 C.2       0 UNK         0.5000 
      3 O          -0.8515  -14.9542  -48.3304 O.2       0 UNK        -0.5000 
      4 N           1.3643  -14.9394  -48.4982 N.am      1 UNK        -0.5000 
      5 CA          2.6803  -14.5285  -49.0147 C.3       1 UNK         0.1400 
      6 C6          3.7674  -15.5035  -48.4880 C.3       23 UNK        -0.0398 
      7 S7          5.2358  -15.7090  -49.5555 S.3       23 UNK        -0.2404 
      8 C8          4.5776  -16.3413  -51.1390 C.3       23 UNK        -0.0205 
      9 C9          3.4796  -17.3867  -50.9842 C.ar      23 UNK        -0.0193 
     10 C10         2.1684  -17.0715  -51.3443 C.ar      23 UNK        -0.1150 
     11 C11         1.1483  -18.0130  -51.2143 C.ar      23 UNK        -0.0193 
     12 C12         1.4505  -19.2919  -50.7377 C.ar      23 UNK        -0.1150 
     13 C13         2.7651  -19.6381  -50.3917 C.ar      23 UNK        -0.0193 
     14 C14         3.7701  -18.6704  -50.5125 C.ar      23 UNK        -0.1150 
     15 C15         3.1699  -21.0427  -49.9318 C.3       23 UNK        -0.0205 
     16 S16         1.8127  -22.2391  -49.6605 S.3       23 UNK        -0.2404 
     17 C17         1.2340  -21.7666  -47.9993 C.3       23 UNK        -0.0398 
     18 CA          0.4593  -22.9030  -47.2837 C.3       11 UNK         0.1400 
     19 N           0.5031  -22.7303  -45.8309 N.am      11 UNK        -0.5000 
     20 C           0.1127  -23.6257  -44.9163 C.2       10 UNK         0.5000 
     21 O          -0.3128  -24.7426  -45.2067 O.2       10 UNK        -0.5000 
     22 CA          0.1336  -23.1766  -43.4397 C.3       10 UNK         0.1400 
     23 CB          0.5644  -24.3077  -42.4832 C.3       10 UNK        -0.1800 
     24 N           0.9019  -21.9488  -43.2034 N.am      10 UNK        -0.5000 
     25 C           2.2286  -21.7695  -43.3009 C.2       9 UNK         0.5000 
     26 O           3.0234  -22.6640  -43.5895 O.2       9 UNK        -0.5000 
     27 CA          2.7614  -20.3390  -43.0766 C.3       9 UNK         0.1400 
     28 CB          3.2878  -19.7573  -44.3992 C.3       9 UNK        -0.1800 
     29 N           1.7600  -19.4197  -42.5320 N.am      9 UNK        -0.5000 
     30 C           1.3152  -19.4136  -41.2685 C.2       8 UNK         0.5000 
     31 O           1.7375  -20.1643  -40.3889 O.2       8 UNK        -0.5000 
     32 CA          0.1780  -18.4255  -40.9502 C.3       8 UNK         0.1400 
     33 CB          0.7390  -17.0276  -40.6459 C.3       8 UNK        -0.1800 
     34 N          -0.8038  -18.3291  -42.0339 N.am      8 UNK        -0.5000 
     35 C          -1.6667  -19.2969  -42.3755 C.2       7 UNK         0.5000 
     36 O          -1.7252  -20.3916  -41.8165 O.2       7 UNK        -0.5000 
     37 CA         -2.5914  -19.0042  -43.5708 C.3       7 UNK         0.1400 
     38 CB         -3.7763  -18.1233  -43.1485 C.3       7 UNK        -0.1800 
     39 N          -1.8714  -18.3610  -44.6695 N.am      7 UNK        -0.5000 
     40 C          -0.9915  -18.9982  -45.4558 C.2       6 UNK         0.5000 
     41 O          -0.7877  -20.2104  -45.4023 O.2       6 UNK        -0.5000 
     42 CA         -0.1862  -18.1532  -46.4610 C.3       6 UNK         0.1400 
     43 CB         -0.8696  -18.1865  -47.8330 C.3       6 UNK        -0.1800 
     44 N          -0.0023  -16.7630  -46.0353 N.am      6 UNK        -0.5000 
     45 C           0.6376  -16.3971  -44.9134 C.2       5 UNK         0.5000 
     46 O           1.2324  -17.1937  -44.1907 O.2       5 UNK        -0.5000 
     47 CA          0.5743  -14.9193  -44.4845 C.3       5 UNK         0.1400 
     48 CB          1.9456  -14.2510  -44.6566 C.3       5 UNK        -0.1800 
     49 N          -0.4454  -14.1176  -45.1646 N.am      5 UNK        -0.5000 
     50 C          -1.7708  -14.3183  -45.1200 C.2       4 UNK         0.5000 
     51 O          -2.2908  -15.2841  -44.5566 O.2       4 UNK        -0.5000 
     52 CA         -2.6436  -13.2780  -45.8568 C.3       4 UNK         0.1400 
     53 CB         -4.0567  -13.1503  -45.2528 C.3       4 UNK        -0.1800 
     54 N          -2.0012  -11.9616  -45.9954 N.am      4 UNK        -0.5000 
     55 C          -1.6419  -11.1137  -45.0198 C.2       3 UNK         0.5000 
     56 O          -1.8229  -11.3298  -43.8206 O.2       3 UNK        -0.5000 
     57 CA         -0.9031   -9.8354  -45.4751 C.3       3 UNK         0.1400 
     58 CB         -0.7971   -8.7839  -44.3559 C.3       3 UNK        -0.1800 
     59 N           0.4464  -10.1391  -45.9612 N.am      3 UNK        -0.5000 
     60 C           0.7368  -10.6939  -47.1445 C.2       2 UNK         0.5000 
     61 O          -0.1245  -10.9908  -47.9748 O.2       2 UNK        -0.5000 
     62 CA          2.2063  -11.0380  -47.4449 C.3       2 UNK         0.1400 
     63 CB          3.1913  -10.7567  -46.2916 C.3       2 UNK        -0.1800 
     64 N           2.2317  -12.4526  -47.7903 N.am      2 UNK        -0.5000 
     65 C           3.0123  -13.0487  -48.6966 C.2       1 UNK         0.5000 
     66 O           3.9243  -12.4773  -49.2936 O.2       1 UNK        -0.5000 
     67 C          -0.9969  -23.0098  -47.7836 C.2       11 UNK         0.5000 
     68 O          -1.3011  -23.8556  -48.6260 O.2       11 UNK        -0.5000 
     69 N          -1.8827  -22.1761  -47.2199 N.am      12 UNK        -0.5000 
     70 CA         -3.3206  -22.2066  -47.4865 C.3       12 UNK         0.1400 
     71 CB         -3.9456  -20.8612  -47.0903 C.3       12 UNK        -0.1800 
     72 C          -4.0243  -23.3783  -46.7798 C.2       12 UNK         0.5000 
     73 O          -4.9745  -23.9295  -47.3335 O.2       12 UNK        -0.5000 
     74 N          -3.5305  -23.7617  -45.5932 N.am      13 UNK        -0.5000 
     75 CA         -4.0455  -24.8844  -44.8033 C.3       13 UNK         0.1400 
     76 CB         -3.4769  -24.8174  -43.3781 C.3       13 UNK        -0.1800 
     77 C          -3.7421  -26.2471  -45.4538 C.2       13 UNK         0.5000 
     78 O          -4.6118  -27.1181  -45.4800 O.2       13 UNK        -0.5000 
     79 N          -2.5288  -26.3884  -46.0054 N.am      14 UNK        -0.5000 
     80 CA         -2.0892  -27.5458  -46.7889 C.3       14 UNK         0.1400 
     81 CB         -0.5534  -27.5352  -46.8566 C.3       14 UNK        -0.1800 
     82 C          -2.6800  -27.5777  -48.2138 C.2       14 UNK         0.5000 
     83 O          -2.5483  -28.5945  -48.8954 O.2       14 UNK        -0.5000 
     84 N          -3.2853  -26.4597  -48.6431 N.am      15 UNK        -0.5000 
     85 CA         -3.8444  -26.1828  -49.9705 C.3       15 UNK         0.1400 
     86 CB         -4.9897  -27.1556  -50.3172 C.3       15 UNK        -0.1800 
     87 C          -2.7789  -26.0919  -51.0832 C.2       15 UNK         0.5000 
     88 O          -3.1224  -26.1453  -52.2643 O.2       15 UNK        -0.5000 
     89 N          -1.5119  -25.8895  -50.6970 N.am      16 UNK        -0.5000 
     90 CA         -0.3800  -25.6374  -51.5902 C.3       16 UNK         0.1400 
     91 CB          0.9244  -25.7800  -50.7922 C.3       16 UNK        -0.1800 
     92 C          -0.4697  -24.2561  -52.2680 C.2       16 UNK         0.5000 
     93 O           0.0158  -24.0924  -53.3874 O.2       16 UNK        -0.5000 
     94 N          -1.1398  -23.3082  -51.5975 N.am      17 UNK        -0.5000 
     95 CA         -1.5057  -21.9929  -52.1250 C.3       17 UNK         0.1400 
     96 CB         -1.9869  -21.1227  -50.9536 C.3       17 UNK        -0.1800 
     97 C          -2.6075  -22.0528  -53.2059 C.2       17 UNK         0.5000 
     98 O          -2.8152  -21.0643  -53.9062 O.2       17 UNK        -0.5000 
     99 N          -3.3322  -23.1811  -53.2842 N.am      18 UNK        -0.5000 
    100 CA        -4.4880  -23.4873  -54.1419 C.3       18 UNK         0.1400 
    101 CB        -4.1393  -23.3351  -55.6353 C.3       18 UNK        -0.1800 
    102 C         -5.7855  -22.7283  -53.7855 C.2       18 UNK         0.5000 
    103 O         -6.8657  -23.1769  -54.1718 O.2       18 UNK        -0.5000 
    104 N         -5.6769  -21.6269  -53.0384 N.am      19 UNK        -0.5000 
    105 CA        -6.7612  -20.7991  -52.5288 C.3       19 UNK         0.1400 
    106 CB        -7.2843  -19.8761  -53.6439 C.3       19 UNK        -0.1800 
    107 C         -6.2243  -19.9859  -51.3426 C.2       19 UNK         0.5000 
    108 O         -5.0054  -19.8539  -51.1909 O.2       19 UNK        -0.5000 
    109 N         -7.1377  -19.4390  -50.5299 N.am      20 UNK        -0.5000 
    110 CA        -6.8300  -18.5675  -49.3938 C.3       20 UNK         0.1400 
    111 CB        -8.1321  -18.1923  -48.6704 C.3       20 UNK        -0.1800 
    112 C         -6.0674  -17.3097  -49.8481 C.2       20 UNK         0.5000 
    113 O         -6.5638  -16.5771  -50.7073 O.2       20 UNK        -0.5000 
    114 N         -4.8495  -17.1319  -49.3160 N.am      21 UNK        -0.5000 
    115 CA        -3.8777  -16.0911  -49.6801 C.3       21 UNK         0.1400 
    116 CB        -4.3639  -14.7076  -49.2013 C.3       21 UNK        -0.1800 
    117 C         -3.4866  -16.1043  -51.1762 C.2       21 UNK         0.5000 
    118 O         -3.1396  -15.0578  -51.7246 O.2       21 UNK        -0.5000 
    119 N         -3.5704  -17.2848  -51.8112 N.am      22 UNK        -0.5000 
    120 CA        -3.4263  -17.5043  -53.2613 C.3       22 UNK         0.1400 
    121 C         -4.5688  -16.8673  -54.1166 C.2       22 UNK         0.5000 
    122 N         -5.6961  -16.4620  -53.5406 N.am      22 UNK        -0.7600 
    123 O         -4.4543  -16.7666  -55.3352 O.2       22 UNK        -0.5000 
    124 C124       -2.0041  -17.1652  -53.8010 C.3       23 UNK        -0.0398 
    125 S125       -0.7049  -18.3147  -53.2333 S.3       23 UNK        -0.2404 
    126 C126       -0.2734  -17.6412  -51.6026 C.3       23 UNK        -0.0205 
    127 H127        0.3971  -12.7637  -50.0766 H         1 UNK         0.0600 
    128 H128        0.5207  -14.2348  -51.0566 H         1 UNK         0.0600 
    129 H129       -1.0484  -13.6769  -50.4901 H         1 UNK         0.0600 
    130 H130        1.4081  -15.5480  -47.6953 H         1 UNK         0.3000 
    131 H131        2.6435  -14.5997  -50.1001 H         1 UNK         0.0600 
    132 H132        3.3471  -16.5021  -48.3576 H         1 UNK         0.0800 
    133 H133        4.1037  -15.2099  -47.4918 H         1 UNK         0.0800 
    134 H134        5.4008  -16.7740  -51.7091 H         1 UNK         0.0800 
    135 H135        4.2213  -15.4965  -51.7303 H         1 UNK         0.0800 
    136 H136        1.9385  -16.0913  -51.7355 H         1 UNK         0.1150 
    137 H137        0.6555  -20.0159  -50.6692 H         1 UNK         0.1150 
    138 H138        4.7894  -18.9197  -50.2519 H         1 UNK         0.1150 
    139 H139        3.8258  -21.4633  -50.6951 H         1 UNK         0.0800 
    140 H140        3.7717  -20.9693  -49.0250 H         1 UNK         0.0800 
    141 H141        2.1165  -21.5068  -47.4128 H         1 UNK         0.0800 
    142 H142        0.6446  -20.8524  -48.0677 H         1 UNK         0.0800 
    143 H143        0.9519  -23.8531  -47.5020 H         1 UNK         0.0600 
    144 H144        0.7218  -21.8019  -45.4965 H         1 UNK         0.3000 
    145 H145       -0.8983  -22.9213  -43.1956 H         1 UNK         0.0600 
    146 H146        0.5588  -23.9700  -41.4469 H         1 UNK         0.0600 
    147 H147       -0.1137  -25.1589  -42.5490 H         1 UNK         0.0600 
    148 H148        1.5643  -24.6765  -42.7120 H         1 UNK         0.0600 
    149 H149        0.3460  -21.1383  -42.9657 H         1 UNK         0.3000 
    150 H150        3.5929  -20.4036  -42.3721 H         1 UNK         0.0600 
    151 H151        4.0773  -20.3823  -44.8185 H         1 UNK         0.0600 
    152 H152        3.7064  -18.7612  -44.2533 H         1 UNK         0.0600 
    153 H153        2.4974  -19.6809  -45.1463 H         1 UNK         0.0600 
    154 H154        1.4129  -18.7053  -43.1688 H         1 UNK         0.3000 
    155 H155       -0.3369  -18.7867  -40.0574 H         1 UNK         0.0600 
    156 H156       -0.0555  -16.3356  -40.3664 H         1 UNK         0.0600 
    157 H157        1.2656  -16.6062  -41.5027 H         1 UNK         0.0600 
    158 H158        1.4444  -17.0644  -39.8148 H         1 UNK         0.0600 
    159 H159       -0.7978  -17.4778  -42.5749 H         1 UNK         0.3000 
    160 H160       -2.9891  -19.9580  -43.9224 H         1 UNK         0.0600 
    161 H161       -3.4476  -17.1468  -42.7906 H         1 UNK         0.0600 
    162 H162       -4.3458  -18.5935  -42.3459 H         1 UNK         0.0600 
    163 H163       -4.4606  -17.9601  -43.9812 H         1 UNK         0.0600 
    164 H164       -1.9939  -17.3589  -44.7708 H         1 UNK         0.3000 
    165 H165        0.8010  -18.6082  -46.5594 H         1 UNK         0.0600 
    166 H166       -1.8530  -17.7213  -47.7906 H         1 UNK         0.0600 
    167 H167       -0.2736  -17.6613  -48.5779 H         1 UNK         0.0600 
    168 H168       -1.0093  -19.2074  -48.1887 H         1 UNK         0.0600 
    169 H169       -0.4959  -16.0581  -46.5723 H         1 UNK         0.3000 
    170 H170        0.3286  -14.9122  -43.4206 H         1 UNK         0.0600 
    171 H171        2.7083  -14.7748  -44.0785 H         1 UNK         0.0600 
    172 H172        2.2713  -14.2526  -45.6954 H         1 UNK         0.0600 
    173 H173        1.9290  -13.2202  -44.3035 H         1 UNK         0.0600 
    174 H174       -0.1296  -13.2844  -45.6329 H         1 UNK         0.3000 
    175 H175       -2.7582  -13.6590  -46.8715 H         1 UNK         0.0600 
    176 H176       -4.6557  -12.4241  -45.8021 H         1 UNK         0.0600 
    177 H177       -4.5868  -14.1025  -45.2940 H         1 UNK         0.0600 
    178 H178       -4.0254  -12.8402  -44.2081 H         1 UNK         0.0600 
    179 H179       -1.7359  -11.7032  -46.9411 H         1 UNK         0.3000 
    180 H180       -1.4819   -9.3932  -46.2889 H         1 UNK         0.0600 
    181 H181       -0.3397   -7.8646  -44.7220 H         1 UNK         0.0600 
    182 H182       -1.7835   -8.5230  -43.9704 H         1 UNK         0.0600 
    183 H183       -0.2002   -9.1436  -43.5168 H         1 UNK         0.0600 
    184 H184        1.2021   -9.9528  -45.3179 H         1 UNK         0.3000 
    185 H185        2.4993  -10.4435  -48.3127 H         1 UNK         0.0600 
    186 H186        4.2077  -11.0301  -46.5757 H         1 UNK         0.0600 
    187 H187        3.2082   -9.6968  -46.0353 H         1 UNK         0.0600 
    188 H188        2.9415  -11.3189  -45.3918 H         1 UNK         0.0600 
    189 H189        1.4617  -12.9927  -47.4270 H         1 UNK         0.3000 
    190 H190       -1.5513  -21.5105  -46.5264 H         1 UNK         0.3000 
    191 H191       -3.4757  -22.3451  -48.5567 H         1 UNK         0.0600 
    192 H192       -5.0165  -20.8545  -47.2963 H         1 UNK         0.0600 
    193 H193       -3.5005  -20.0408  -47.6531 H         1 UNK         0.0600 
    194 H194       -3.8144  -20.6527  -46.0291 H         1 UNK         0.0600 
    195 H195       -2.7339  -23.2684  -45.2228 H         1 UNK         0.3000 
    196 H196       -5.1308  -24.7803  -44.7378 H         1 UNK         0.0600 
    197 H197       -3.9148  -25.5942  -42.7500 H         1 UNK         0.0600 
    198 H198       -3.6945  -23.8583  -42.9076 H         1 UNK         0.0600 
    199 H199       -2.3974  -24.9624  -43.3669 H         1 UNK         0.0600 
    200 H200       -1.8366  -25.6563  -45.8669 H         1 UNK         0.3000 
    201 H201       -2.4066  -28.4570  -46.2779 H         1 UNK         0.0600 
    202 H202       -0.1149  -27.5625  -45.8588 H         1 UNK         0.0600 
    203 H203       -0.1804  -26.6424  -47.3609 H         1 UNK         0.0600 
    204 H204       -0.1764  -28.4022  -47.4004 H         1 UNK         0.0600 
    205 H205       -3.3304  -25.6885  -47.9919 H         1 UNK         0.3000 
    206 H206       -4.2792  -25.1847  -49.9004 H         1 UNK         0.0600 
    207 H207       -5.7258  -27.1991  -49.5144 H         1 UNK         0.0600 
    208 H208       -5.5136  -26.8365  -51.2189 H         1 UNK         0.0600 
    209 H209       -4.6251  -28.1674  -50.4954 H         1 UNK         0.0600 
    210 H210       -1.3402  -25.7527  -49.7092 H         1 UNK         0.3000 
    211 H211       -0.3871  -26.3941  -52.3773 H         1 UNK         0.0600 
    212 H212        0.9517  -25.0982  -49.9421 H         1 UNK         0.0600 
    213 H213        1.7927  -25.5644  -51.4162 H         1 UNK         0.0600 
    214 H214        1.0412  -26.7938  -50.4091 H         1 UNK         0.0600 
    215 H215       -1.4353  -23.5213  -50.6511 H         1 UNK         0.3000 
    216 H216       -0.6179  -21.5341  -52.5649 H         1 UNK         0.0600 
    217 H217       -2.1636  -20.0970  -51.2758 H         1 UNK         0.0600 
    218 H218       -1.2613  -21.0934  -50.1424 H         1 UNK         0.0600 
    219 H219       -2.9269  -21.4940  -50.5489 H         1 UNK         0.0600 
    220 H220       -3.0643  -23.9406  -52.6723 H         1 UNK         0.3000 
    221 H221       -4.7027  -24.5426  -53.9672 H         1 UNK         0.0600 
    222 H222       -3.9745  -22.2939  -55.9131 H         1 UNK         0.0600 
    223 H223       -3.2418  -23.8986  -55.8904 H         1 UNK         0.0600 
    224 H224       -4.9484  -23.7115  -56.2623 H         1 UNK         0.0600 
    225 H225       -4.7547  -21.3092  -52.7636 H         1 UNK         0.3000 
    226 H226       -7.5672  -21.4419  -52.1692 H         1 UNK         0.0600 
    227 H227       -8.0573  -19.2025  -53.2724 H         1 UNK         0.0600 
    228 H228       -6.4853  -19.2623  -54.0604 H         1 UNK         0.0600 
    229 H229       -7.7219  -20.4502  -54.4606 H         1 UNK         0.0600 
    230 H230       -8.1167  -19.5678  -50.7391 H         1 UNK         0.3000 
    231 H231       -6.2056  -19.1332  -48.6998 H         1 UNK         0.0600 
    232 H232       -7.9295  -17.5525  -47.8105 H         1 UNK         0.0600 
    233 H233       -8.6483  -19.0785  -48.3009 H         1 UNK         0.0600 
    234 H234       -8.8168  -17.6532  -49.3265 H         1 UNK         0.0600 
    235 H235       -4.5239  -17.8085  -48.6411 H         1 UNK         0.3000 
    236 H236       -2.9632  -16.3187  -49.1368 H         1 UNK         0.0600 
    237 H237       -5.2320  -14.3663  -49.7658 H         1 UNK         0.0600 
    238 H238       -4.6370  -14.7292  -48.1465 H         1 UNK         0.0600 
    239 H239       -3.5808  -13.9573  -49.3178 H         1 UNK         0.0600 
    240 H240       -3.9076  -18.0914  -51.2974 H         1 UNK         0.3000 
    241 H241       -3.5737  -18.5752  -53.3985 H         1 UNK         0.0600 
    242 H242       -6.4207  -16.0624  -54.1147 H         1 UNK         0.3800 
    243 H243       -5.8379  -16.5286  -52.5378 H         1 UNK         0.3800 
    244 H244       -1.7195  -16.1383  -53.5729 H         1 UNK         0.0800 
    245 H245       -1.9873  -17.2321  -54.8895 H         1 UNK         0.0800 
    246 H246       -0.3914  -16.5571  -51.6070 H         1 UNK         0.0800 
    247 H247       -0.9723  -18.0239  -50.8594 H         1 UNK         0.0800 
@<TRIPOS>BOND
     1    1    2 1    
     2    1  127 1    
     3    1  128 1    
     4    1  129 1    
     5    2    3 2    
     6    2    4 am   BACKBONE|DICT|INTERRES
     7    4    5 1    
     8    4  130 1    
     9    5    6 1    
    10    5   65 1    
    11    5  131 1    
    12    6    7 1    
    13    6  132 1    
    14    6  133 1    
    15    7    8 1    
    16    8    9 1    
    17    8  134 1    
    18    8  135 1    
    19    9   10 ar   
    20    9   14 ar   
    21   10   11 ar   
    22   10  136 1    
    23   11   12 ar   
    24   11  126 1    
    25   12   13 ar   
    26   12  137 1    
    27   13   14 ar   
    28   13   15 1    
    29   14  138 1    
    30   15   16 1    
    31   15  139 1    
    32   15  140 1    
    33   16   17 1    
    34   17   18 1    
    35   17  141 1    
    36   17  142 1    
    37   18   19 1    
    38   18   67 1    
    39   18  143 1    
    40   19   20 am   BACKBONE|DICT|INTERRES
    41   19  144 1    
    42   20   21 2    
    43   20   22 1    
    44   22   23 1    
    45   22   24 1    
    46   22  145 1    
    47   23  146 1    
    48   23  147 1    
    49   23  148 1    
    50   24   25 am   BACKBONE|DICT|INTERRES
    51   24  149 1    
    52   25   26 2    
    53   25   27 1    
    54   27   28 1    
    55   27   29 1    
    56   27  150 1    
    57   28  151 1    
    58   28  152 1    
    59   28  153 1    
    60   29   30 am   BACKBONE|DICT|INTERRES
    61   29  154 1    
    62   30   31 2    
    63   30   32 1    
    64   32   33 1    
    65   32   34 1    
    66   32  155 1    
    67   33  156 1    
    68   33  157 1    
    69   33  158 1    
    70   34   35 am   BACKBONE|DICT|INTERRES
    71   34  159 1    
    72   35   36 2    
    73   35   37 1    
    74   37   38 1    
    75   37   39 1    
    76   37  160 1    
    77   38  161 1    
    78   38  162 1    
    79   38  163 1    
    80   39   40 am   BACKBONE|DICT|INTERRES
    81   39  164 1    
    82   40   41 2    
    83   40   42 1    
    84   42   43 1    
    85   42   44 1    
    86   42  165 1    
    87   43  166 1    
    88   43  167 1    
    89   43  168 1    
    90   44   45 am   BACKBONE|DICT|INTERRES
    91   44  169 1    
    92   45   46 2    
    93   45   47 1    
    94   47   48 1    
    95   47   49 1    
    96   47  170 1    
    97   48  171 1    
    98   48  172 1    
    99   48  173 1    
   100   49   50 am   BACKBONE|DICT|INTERRES
   101   49  174 1    
   102   50   51 2    
   103   50   52 1    
   104   52   53 1    
   105   52   54 1    
   106   52  175 1    
   107   53  176 1    
   108   53  177 1    
   109   53  178 1    
   110   54   55 am   BACKBONE|DICT|INTERRES
   111   54  179 1    
   112   55   56 2    
   113   55   57 1    
   114   57   58 1    
   115   57   59 1    
   116   57  180 1    
   117   58  181 1    
   118   58  182 1    
   119   58  183 1    
   120   59   60 am   BACKBONE|DICT|INTERRES
   121   59  184 1    
   122   60   61 2    
   123   60   62 1    
   124   62   63 1    
   125   62   64 1    
   126   62  185 1    
   127   63  186 1    
   128   63  187 1    
   129   63  188 1    
   130   64   65 am   BACKBONE|DICT|INTERRES
   131   64  189 1    
   132   65   66 2    
   133   67   68 2    
   134   67   69 am   BACKBONE|DICT|INTERRES
   135   69   70 1    
   136   69  190 1    
   137   70   71 1    
   138   70   72 1    
   139   70  191 1    
   140   71  192 1    
   141   71  193 1    
   142   71  194 1    
   143   72   73 2    
   144   72   74 am   BACKBONE|DICT|INTERRES
   145   74   75 1    
   146   74  195 1    
   147   75   76 1    
   148   75   77 1    
   149   75  196 1    
   150   76  197 1    
   151   76  198 1    
   152   76  199 1    
   153   77   78 2    
   154   77   79 am   BACKBONE|DICT|INTERRES
   155   79   80 1    
   156   79  200 1    
   157   80   81 1    
   158   80   82 1    
   159   80  201 1    
   160   81  202 1    
   161   81  203 1    
   162   81  204 1    
   163   82   83 2    
   164   82   84 am   BACKBONE|DICT|INTERRES
   165   84   85 1    
   166   84  205 1    
   167   85   86 1    
   168   85   87 1    
   169   85  206 1    
   170   86  207 1    
   171   86  208 1    
   172   86  209 1    
   173   87   88 2    
   174   87   89 am   BACKBONE|DICT|INTERRES
   175   89   90 1    
   176   89  210 1    
   177   90   91 1    
   178   90   92 1    
   179   90  211 1    
   180   91  212 1    
   181   91  213 1    
   182   91  214 1    
   183   92   93 2    
   184   92   94 am   BACKBONE|DICT|INTERRES
   185   94   95 1    
   186   94  215 1    
   187   95   96 1    
   188   95   97 1    
   189   95  216 1    
   190   96  217 1    
   191   96  218 1    
   192   96  219 1    
   193   97   98 2    
   194   97   99 am   BACKBONE|DICT|INTERRES
   195   99  100 1    
   196   99  220 1    
   197  100  101 1    
   198  100  102 1    
   199  100  221 1    
   200  101  222 1    
   201  101  223 1    
   202  101  224 1    
   203  102  103 2    
   204  102  104 am   BACKBONE|DICT|INTERRES
   205  104  105 1    
   206  104  225 1    
   207  105  106 1    
   208  105  107 1    
   209  105  226 1    
   210  106  227 1    
   211  106  228 1    
   212  106  229 1    
   213  107  108 2    
   214  107  109 am   BACKBONE|DICT|INTERRES
   215  109  110 1    
   216  109  230 1    
   217  110  111 1    
   218  110  112 1    
   219  110  231 1    
   220  111  232 1    
   221  111  233 1    
   222  111  234 1    
   223  112  113 2    
   224  112  114 am   BACKBONE|DICT|INTERRES
   225  114  115 1    
   226  114  235 1    
   227  115  116 1    
   228  115  117 1    
   229  115  236 1    
   230  116  237 1    
   231  116  238 1    
   232  116  239 1    
   233  117  118 2    
   234  117  119 am   BACKBONE|DICT|INTERRES
   235  119  120 1    
   236  119  240 1    
   237  120  121 1    
   238  120  124 1    
   239  120  241 1    
   240  121  122 am   BACKBONE|DICT|INTERRES
   241  121  123 2    
   242  122  242 1    
   243  122  243 1    
   244  124  125 1    
   245  124  244 1    
   246  124  245 1    
   247  125  126 1    
   248  126  246 1    
   249  126  247 1    
@<TRIPOS>SUBSTRUCTURE
     1 UNK         1 GROUP             0       ****    0 ROOT    
