@<TRIPOS>MOLECULE
3R540
247   249    1
SMALL
USER_CHARGES


@<TRIPOS>ATOM
      1 CA         -4.7462  -14.8709  -47.1451 C.3       0 UNK        -0.1800 
      2 C          -3.5234  -14.3701  -47.9022 C.2       0 UNK         0.5000 
      3 O          -3.2617  -13.1670  -47.9079 O.2       0 UNK        -0.5000 
      4 N          -2.7879  -15.2811  -48.5507 N.am      1 UNK        -0.5000 
      5 CA         -1.5479  -14.9923  -49.2774 C.3       1 UNK         0.1400 
      6 C6         -1.1702  -16.1461  -50.2460 C.3       23 UNK        -0.0398 
      7 S7         -0.4068  -15.5257  -51.7863 S.3       23 UNK        -0.2404 
      8 C8          1.3366  -16.0357  -51.6305 C.3       23 UNK        -0.0205 
      9 C9          1.5118  -17.5460  -51.6467 C.ar      23 UNK        -0.0193 
     10 C10         1.1810  -18.2798  -52.7876 C.ar      23 UNK        -0.1150 
     11 C11         1.3379  -19.6678  -52.8104 C.ar      23 UNK        -0.0193 
     12 C12         1.8448  -20.3227  -51.6824 C.ar      23 UNK        -0.1150 
     13 C13         2.1972  -19.5975  -50.5384 C.ar      23 UNK        -0.0193 
     14 C14         2.0286  -18.2087  -50.5305 C.ar      23 UNK        -0.1150 
     15 C15         2.8140  -20.3051  -49.3363 C.3       23 UNK        -0.0205 
     16 S16         2.0060  -19.8840  -47.7566 S.3       23 UNK        -0.2404 
     17 C17         0.5387  -20.9664  -47.7788 C.3       23 UNK        -0.0398 
     18 CA          0.6901  -22.1842  -46.8381 C.3       11 UNK         0.1400 
     19 N           0.9611  -21.7965  -45.4460 N.am      11 UNK        -0.5000 
     20 C           1.3463  -22.6384  -44.4752 C.2       10 UNK         0.5000 
     21 O           1.5370  -23.8414  -44.6540 O.2       10 UNK        -0.5000 
     22 CA          1.4763  -22.0510  -43.0594 C.3       10 UNK         0.1400 
     23 CB          2.8071  -21.3039  -42.8793 C.3       10 UNK        -0.1800 
     24 N           0.3502  -21.1633  -42.7661 N.am      10 UNK        -0.5000 
     25 C          -0.8610  -21.6046  -42.3963 C.2       9 UNK         0.5000 
     26 O          -1.0967  -22.7839  -42.1346 O.2       9 UNK        -0.5000 
     27 CA         -2.0129  -20.5822  -42.3162 C.3       9 UNK         0.1400 
     28 CB         -2.2476  -20.1531  -40.8602 C.3       9 UNK        -0.1800 
     29 N          -1.8155  -19.3912  -43.1432 N.am      9 UNK        -0.5000 
     30 C          -1.7702  -19.3736  -44.4826 C.2       8 UNK         0.5000 
     31 O          -1.9309  -20.3702  -45.1828 O.2       8 UNK        -0.5000 
     32 CA         -1.4164  -18.0289  -45.1465 C.3       8 UNK         0.1400 
     33 CB         -2.6697  -17.1562  -45.2899 C.3       8 UNK        -0.1800 
     34 N          -0.3788  -17.2950  -44.4155 N.am      8 UNK        -0.5000 
     35 C           0.8519  -17.7694  -44.1699 C.2       7 UNK         0.5000 
     36 O           1.2490  -18.8642  -44.5664 O.2       7 UNK        -0.5000 
     37 CA          1.7557  -16.9252  -43.2568 C.3       7 UNK         0.1400 
     38 CB          2.4348  -15.7851  -44.0311 C.3       7 UNK        -0.1800 
     39 N           0.9928  -16.3844  -42.1323 N.am      7 UNK        -0.5000 
     40 C           0.6538  -17.0951  -41.0464 C.2       6 UNK         0.5000 
     41 O           1.0244  -18.2520  -40.8472 O.2       6 UNK        -0.5000 
     42 CA         -0.2728  -16.4130  -40.0192 C.3       6 UNK         0.1400 
     43 CB          0.5549  -15.6763  -38.9556 C.3       6 UNK        -0.1800 
     44 N          -1.2148  -15.4720  -40.6276 N.am      6 UNK        -0.5000 
     45 C          -2.2115  -15.8162  -41.4557 C.2       5 UNK         0.5000 
     46 O          -2.4873  -16.9803  -41.7369 O.2       5 UNK        -0.5000 
     47 CA         -2.9946  -14.6686  -42.1270 C.3       5 UNK         0.1400 
     48 CB         -4.2522  -14.3284  -41.3145 C.3       5 UNK        -0.1800 
     49 N          -2.2003  -13.4516  -42.3234 N.am      5 UNK        -0.5000 
     50 C          -1.0683  -13.3835  -43.0365 C.2       4 UNK         0.5000 
     51 O          -0.5818  -14.3445  -43.6382 O.2       4 UNK        -0.5000 
     52 CA         -0.3192  -12.0464  -42.9911 C.3       4 UNK         0.1400 
     53 CB          0.2219  -11.7884  -41.5675 C.3       4 UNK        -0.1800 
     54 N           0.7844  -12.0802  -43.9461 N.am      4 UNK        -0.5000 
     55 C           1.5052  -11.0221  -44.3310 C.2       3 UNK         0.5000 
     56 O           1.2707   -9.8678  -43.9694 O.2       3 UNK        -0.5000 
     57 CA          2.7083  -11.2852  -45.2547 C.3       3 UNK         0.1400 
     58 CB          3.9786  -11.5051  -44.4179 C.3       3 UNK        -0.1800 
     59 N           2.5527  -12.4128  -46.1760 N.am      3 UNK        -0.5000 
     60 C           1.6888  -12.4583  -47.1984 C.2       2 UNK         0.5000 
     61 O           0.8189  -11.6067  -47.3948 O.2       2 UNK        -0.5000 
     62 CA          1.8927  -13.5866  -48.2319 C.3       2 UNK         0.1400 
     63 CB          2.6857  -14.8095  -47.7136 C.3       2 UNK        -0.1800 
     64 N           0.6421  -13.9922  -48.8757 N.am      2 UNK        -0.5000 
     65 C          -0.3798  -14.6572  -48.3219 C.2       1 UNK         0.5000 
     66 O          -0.4030  -15.0361  -47.1491 O.2       1 UNK        -0.5000 
     67 C          -0.5209  -23.1379  -46.9630 C.2       11 UNK         0.5000 
     68 O          -0.5526  -23.9567  -47.8813 O.2       11 UNK        -0.5000 
     69 N          -1.4537  -23.0767  -45.9999 N.am      12 UNK        -0.5000 
     70 CA         -2.6061  -23.9695  -45.8381 C.3       12 UNK         0.1400 
     71 CB         -3.4639  -23.4902  -44.6568 C.3       12 UNK        -0.1800 
     72 C          -2.2536  -25.4617  -45.6632 C.2       12 UNK         0.5000 
     73 O          -3.1372  -26.3052  -45.8178 O.2       12 UNK        -0.5000 
     74 N          -0.9769  -25.7835  -45.4011 N.am      13 UNK        -0.5000 
     75 CA         -0.4283  -27.1408  -45.4767 C.3       13 UNK         0.1400 
     76 CB          1.0287  -27.1233  -44.9929 C.3       13 UNK        -0.1800 
     77 C          -0.5200  -27.7530  -46.8927 C.2       13 UNK         0.5000 
     78 O          -0.5844  -28.9761  -47.0171 O.2       13 UNK        -0.5000 
     79 N          -0.5711  -26.8958  -47.9227 N.am      14 UNK        -0.5000 
     80 CA         -0.8452  -27.2435  -49.3159 C.3       14 UNK         0.1400 
     81 CB          0.2481  -26.6304  -50.2090 C.3       14 UNK        -0.1800 
     82 C          -2.2782  -26.8255  -49.7182 C.2       14 UNK         0.5000 
     83 O          -2.5175  -26.4646  -50.8720 O.2       14 UNK        -0.5000 
     84 N          -3.2128  -26.9048  -48.7576 N.am      15 UNK        -0.5000 
     85 CA         -4.6599  -26.7130  -48.8793 C.3       15 UNK         0.1400 
     86 CB         -5.2859  -27.8844  -49.6694 C.3       15 UNK        -0.1800 
     87 C          -5.0355  -25.3209  -49.4235 C.2       15 UNK         0.5000 
     88 O          -4.9183  -24.3335  -48.6961 O.2       15 UNK        -0.5000 
     89 N          -5.4745  -25.2632  -50.6888 N.am      16 UNK        -0.5000 
     90 CA         -5.9192  -24.0589  -51.3954 C.3       16 UNK         0.1400 
     91 CB         -6.4583  -24.4646  -52.7756 C.3       16 UNK        -0.1800 
     92 C          -4.8430  -22.9655  -51.5399 C.2       16 UNK         0.5000 
     93 O          -5.1955  -21.8065  -51.7566 O.2       16 UNK        -0.5000 
     94 N          -3.5639  -23.3349  -51.3780 N.am      17 UNK        -0.5000 
     95 CA         -2.4034  -22.4427  -51.4248 C.3       17 UNK         0.1400 
     96 CB         -1.1255  -23.2904  -51.4090 C.3       17 UNK        -0.1800 
     97 C          -2.3577  -21.3599  -50.3247 C.2       17 UNK         0.5000 
     98 O          -1.5169  -20.4658  -50.3973 O.2       17 UNK        -0.5000 
     99 N          -3.2640  -21.4274  -49.3380 N.am      18 UNK        -0.5000 
    100 CA        -3.5409  -20.3358  -48.4031 C.3       18 UNK         0.1400 
    101 CB        -4.5637  -20.8123  -47.3640 C.3       18 UNK        -0.1800 
    102 C         -4.0563  -19.0640  -49.1086 C.2       18 UNK         0.5000 
    103 O         -3.7550  -17.9592  -48.6566 O.2       18 UNK        -0.5000 
    104 N         -4.8061  -19.2429  -50.2049 N.am      19 UNK        -0.5000 
    105 CA        -5.2615  -18.1766  -51.0900 C.3       19 UNK         0.1400 
    106 CB        -6.6410  -18.5572  -51.6507 C.3       19 UNK        -0.1800 
    107 C         -4.2560  -17.9742  -52.2356 C.2       19 UNK         0.5000 
    108 O         -3.5138  -18.8924  -52.5837 O.2       19 UNK        -0.5000 
    109 N         -4.2846  -16.7809  -52.8399 N.am      20 UNK        -0.5000 
    110 CA        -3.3765  -16.3538  -53.9104 C.3       20 UNK         0.1400 
    111 CB        -3.4298  -14.8202  -54.0086 C.3       20 UNK        -0.1800 
    112 C         -3.6276  -17.0069  -55.2877 C.2       20 UNK         0.5000 
    113 O         -2.9112  -16.6910  -56.2389 O.2       20 UNK        -0.5000 
    114 N         -4.6199  -17.9036  -55.3856 N.am      21 UNK        -0.5000 
    115 CA        -5.0207  -18.6293  -56.5966 C.3       21 UNK         0.1400 
    116 CB        -6.2210  -19.5263  -56.2561 C.3       21 UNK        -0.1800 
    117 C         -3.8974  -19.4607  -57.2530 C.2       21 UNK         0.5000 
    118 O         -3.9290  -19.6680  -58.4667 O.2       21 UNK        -0.5000 
    119 N         -2.9218  -19.8996  -56.4496 N.am      22 UNK        -0.5000 
    120 CA        -1.6781  -20.5489  -56.8936 C.3       22 UNK         0.1400 
    121 C         -0.6160  -19.5863  -57.5075 C.2       22 UNK         0.5000 
    122 N         -0.7944  -18.2705  -57.4792 N.am      22 UNK        -0.7600 
    123 O          0.3910  -20.0475  -58.0380 O.2       22 UNK        -0.5000 
    124 C124       -1.0748  -21.4416  -55.7772 C.3       23 UNK        -0.0398 
    125 S125       -0.8538  -20.5664  -54.1913 S.3       23 UNK        -0.2404 
    126 C126        0.9518  -20.4468  -54.0577 C.3       23 UNK        -0.0205 
    127 H127       -5.6412  -14.3556  -47.4933 H         1 UNK         0.0600 
    128 H128       -4.6316  -14.6761  -46.0787 H         1 UNK         0.0600 
    129 H129       -4.8986  -15.9415  -47.2802 H         1 UNK         0.0600 
    130 H130       -3.0606  -16.2614  -48.5062 H         1 UNK         0.3000 
    131 H131       -1.7502  -14.0966  -49.8694 H         1 UNK         0.0600 
    132 H132       -0.5381  -16.8965  -49.7670 H         1 UNK         0.0800 
    133 H133       -2.0657  -16.6858  -50.5555 H         1 UNK         0.0800 
    134 H134        1.8980  -15.6108  -52.4636 H         1 UNK         0.0800 
    135 H135        1.7683  -15.6069  -50.7273 H         1 UNK         0.0800 
    136 H136        0.7830  -17.7715  -53.6549 H         1 UNK         0.1150 
    137 H137        1.9730  -21.3956  -51.6996 H         1 UNK         0.1150 
    138 H138        2.3051  -17.6448  -49.6512 H         1 UNK         0.1150 
    139 H139        2.8043  -21.3882  -49.4684 H         1 UNK         0.0800 
    140 H140        3.8635  -20.0150  -49.2734 H         1 UNK         0.0800 
    141 H141       -0.3264  -20.3670  -47.4956 H         1 UNK         0.0800 
    142 H142        0.3632  -21.2979  -48.8030 H         1 UNK         0.0800 
    143 H143        1.5583  -22.7513  -47.1808 H         1 UNK         0.0600 
    144 H144        0.8673  -20.8102  -45.2270 H         1 UNK         0.3000 
    145 H145        1.4685  -22.8798  -42.3480 H         1 UNK         0.0600 
    146 H146        2.8701  -20.8417  -41.8940 H         1 UNK         0.0600 
    147 H147        3.6485  -21.9914  -42.9717 H         1 UNK         0.0600 
    148 H148        2.9475  -20.5228  -43.6253 H         1 UNK         0.0600 
    149 H149        0.4727  -20.1836  -42.9877 H         1 UNK         0.3000 
    150 H150       -2.9157  -21.0833  -42.6704 H         1 UNK         0.0600 
    151 H151       -2.4193  -21.0184  -40.2187 H         1 UNK         0.0600 
    152 H152       -3.1228  -19.5088  -40.7750 H         1 UNK         0.0600 
    153 H153       -1.3911  -19.6110  -40.4590 H         1 UNK         0.0600 
    154 H154       -1.7567  -18.5059  -42.6481 H         1 UNK         0.3000 
    155 H155       -1.0272  -18.2349  -46.1458 H         1 UNK         0.0600 
    156 H156       -2.4228  -16.1741  -45.6911 H         1 UNK         0.0600 
    157 H157       -3.1755  -17.0125  -44.3363 H         1 UNK         0.0600 
    158 H158       -3.3861  -17.6198  -45.9683 H         1 UNK         0.0600 
    159 H159       -0.6112  -16.3612  -44.0957 H         1 UNK         0.3000 
    160 H160        2.5423  -17.5754  -42.8673 H         1 UNK         0.0600 
    161 H161        1.7109  -15.1405  -44.5283 H         1 UNK         0.0600 
    162 H162        3.0969  -16.1865  -44.7989 H         1 UNK         0.0600 
    163 H163        3.0413  -15.1641  -43.3717 H         1 UNK         0.0600 
    164 H164        0.5863  -15.4681  -42.2671 H         1 UNK         0.3000 
    165 H165       -0.8500  -17.1961  -39.5229 H         1 UNK         0.0600 
    166 H166        1.1375  -14.8629  -39.3902 H         1 UNK         0.0600 
    167 H167       -0.0847  -15.2550  -38.1798 H         1 UNK         0.0600 
    168 H168        1.2537  -16.3556  -38.4655 H         1 UNK         0.0600 
    169 H169       -1.0637  -14.4922  -40.4410 H         1 UNK         0.3000 
    170 H170       -3.3096  -15.0156  -43.1123 H         1 UNK         0.0600 
    171 H171       -4.8767  -15.2118  -41.1741 H         1 UNK         0.0600 
    172 H172       -4.0010  -13.9432  -40.3255 H         1 UNK         0.0600 
    173 H173       -4.8605  -13.5803  -41.8231 H         1 UNK         0.0600 
    174 H174       -2.5306  -12.6224  -41.8509 H         1 UNK         0.3000 
    175 H175       -1.0148  -11.2547  -43.2764 H         1 UNK         0.0600 
    176 H176        0.7322  -10.8280  -41.4982 H         1 UNK         0.0600 
    177 H177       -0.5815  -11.7681  -40.8305 H         1 UNK         0.0600 
    178 H178        0.9287  -12.5614  -41.2626 H         1 UNK         0.0600 
    179 H179        0.9791  -12.9954  -44.3322 H         1 UNK         0.3000 
    180 H180        2.8538  -10.3860  -45.8573 H         1 UNK         0.0600 
    181 H181        4.8618  -11.5846  -45.0522 H         1 UNK         0.0600 
    182 H182        4.1465  -10.6718  -43.7341 H         1 UNK         0.0600 
    183 H183        3.9119  -12.4135  -43.8175 H         1 UNK         0.0600 
    184 H184        3.2341  -13.1527  -46.0933 H         1 UNK         0.3000 
    185 H185        2.4920  -13.1383  -49.0254 H         1 UNK         0.0600 
    186 H186        2.8145  -15.5521  -48.5000 H         1 UNK         0.0600 
    187 H187        3.6863  -14.5312  -47.3818 H         1 UNK         0.0600 
    188 H188        2.1824  -15.3003  -46.8823 H         1 UNK         0.0600 
    189 H189        0.5440  -13.6961  -49.8366 H         1 UNK         0.3000 
    190 H190       -1.3970  -22.3004  -45.3495 H         1 UNK         0.3000 
    191 H191       -3.1982  -23.8874  -46.7499 H         1 UNK         0.0600 
    192 H192       -4.4151  -24.0231  -44.6297 H         1 UNK         0.0600 
    193 H193       -3.6910  -22.4270  -44.7217 H         1 UNK         0.0600 
    194 H194       -2.9672  -23.6687  -43.7041 H         1 UNK         0.0600 
    195 H195       -0.3076  -25.0366  -45.2606 H         1 UNK         0.3000 
    196 H196       -1.0079  -27.7751  -44.8029 H         1 UNK         0.0600 
    197 H197        1.4540  -28.1277  -44.9949 H         1 UNK         0.0600 
    198 H198        1.1025  -26.7405  -43.9748 H         1 UNK         0.0600 
    199 H199        1.6555  -26.4992  -45.6314 H         1 UNK         0.0600 
    200 H200       -0.5279  -25.8978  -47.7318 H         1 UNK         0.3000 
    201 H201       -0.8031  -28.3259  -49.4504 H         1 UNK         0.0600 
    202 H202        1.2194  -27.0722  -49.9868 H         1 UNK         0.0600 
    203 H203        0.3381  -25.5560  -50.0593 H         1 UNK         0.0600 
    204 H204        0.0501  -26.8068  -51.2669 H         1 UNK         0.0600 
    205 H205       -2.9018  -27.1239  -47.8194 H         1 UNK         0.3000 
    206 H206       -5.0604  -26.7551  -47.8653 H         1 UNK         0.0600 
    207 H207       -5.0980  -28.8331  -49.1664 H         1 UNK         0.0600 
    208 H208       -6.3684  -27.7740  -49.7468 H         1 UNK         0.0600 
    209 H209       -4.8846  -27.9663  -50.6801 H         1 UNK         0.0600 
    210 H210       -5.4992  -26.1235  -51.2167 H         1 UNK         0.3000 
    211 H211       -6.7402  -23.6256  -50.8206 H         1 UNK         0.0600 
    212 H212       -5.6849  -24.9320  -53.3866 H         1 UNK         0.0600 
    213 H213       -6.8284  -23.5962  -53.3224 H         1 UNK         0.0600 
    214 H214       -7.2873  -25.1668  -52.6857 H         1 UNK         0.0600 
    215 H215       -3.3708  -24.3117  -51.1931 H         1 UNK         0.3000 
    216 H216       -2.4596  -21.9151  -52.3756 H         1 UNK         0.0600 
    217 H217       -0.2370  -22.6658  -51.5077 H         1 UNK         0.0600 
    218 H218       -1.1122  -24.0098  -52.2278 H         1 UNK         0.0600 
    219 H219       -1.0424  -23.8392  -50.4732 H         1 UNK         0.0600 
    220 H220       -3.8938  -22.2185  -49.3176 H         1 UNK         0.3000 
    221 H221       -2.6138  -20.0833  -47.8871 H         1 UNK         0.0600 
    222 H222       -5.5266  -21.0444  -47.8208 H         1 UNK         0.0600 
    223 H223       -4.2140  -21.7073  -46.8552 H         1 UNK         0.0600 
    224 H224       -4.7307  -20.0490  -46.6028 H         1 UNK         0.0600 
    225 H225       -4.9150  -20.1832  -50.5717 H         1 UNK         0.3000 
    226 H226       -5.3552  -17.2431  -50.5308 H         1 UNK         0.0600 
    227 H227       -7.3600  -18.7215  -50.8480 H         1 UNK         0.0600 
    228 H228       -7.0401  -17.7657  -52.2861 H         1 UNK         0.0600 
    229 H229       -6.5958  -19.4677  -52.2499 H         1 UNK         0.0600 
    230 H230       -4.9508  -16.0900  -52.5257 H         1 UNK         0.3000 
    231 H231       -2.3636  -16.6406  -53.6235 H         1 UNK         0.0600 
    232 H232       -2.7154  -14.4471  -54.7436 H         1 UNK         0.0600 
    233 H233       -3.1785  -14.3553  -53.0550 H         1 UNK         0.0600 
    234 H234       -4.4196  -14.4707  -54.3044 H         1 UNK         0.0600 
    235 H235       -5.1346  -18.1182  -54.5451 H         1 UNK         0.3000 
    236 H236       -5.3430  -17.8868  -57.3292 H         1 UNK         0.0600 
    237 H237       -5.9666  -20.2645  -55.4942 H         1 UNK         0.0600 
    238 H238       -7.0620  -18.9387  -55.8873 H         1 UNK         0.0600 
    239 H239       -6.5672  -20.0688  -57.1370 H         1 UNK         0.0600 
    240 H240       -2.9678  -19.6768  -55.4645 H         1 UNK         0.3000 
    241 H241       -1.9461  -21.2209  -57.7109 H         1 UNK         0.0600 
    242 H242       -0.0959  -17.6727  -57.8907 H         1 UNK         0.3800 
    243 H243       -1.6135  -17.8521  -57.0483 H         1 UNK         0.3800 
    244 H244       -0.1328  -21.8922  -56.0945 H         1 UNK         0.0800 
    245 H245       -1.7471  -22.2799  -55.5904 H         1 UNK         0.0800 
    246 H246        1.3826  -21.4489  -54.0368 H         1 UNK         0.0800 
    247 H247        1.3527  -19.9481  -54.9415 H         1 UNK         0.0800 
@<TRIPOS>BOND
     1    1    2 1    
     2    1  127 1    
     3    1  128 1    
     4    1  129 1    
     5    2    3 2    
     6    2    4 am   BACKBONE|DICT|INTERRES
     7    4    5 1    
     8    4  130 1    
     9    5    6 1    
    10    5   65 1    
    11    5  131 1    
    12    6    7 1    
    13    6  132 1    
    14    6  133 1    
    15    7    8 1    
    16    8    9 1    
    17    8  134 1    
    18    8  135 1    
    19    9   10 ar   
    20    9   14 ar   
    21   10   11 ar   
    22   10  136 1    
    23   11   12 ar   
    24   11  126 1    
    25   12   13 ar   
    26   12  137 1    
    27   13   14 ar   
    28   13   15 1    
    29   14  138 1    
    30   15   16 1    
    31   15  139 1    
    32   15  140 1    
    33   16   17 1    
    34   17   18 1    
    35   17  141 1    
    36   17  142 1    
    37   18   19 1    
    38   18   67 1    
    39   18  143 1    
    40   19   20 am   BACKBONE|DICT|INTERRES
    41   19  144 1    
    42   20   21 2    
    43   20   22 1    
    44   22   23 1    
    45   22   24 1    
    46   22  145 1    
    47   23  146 1    
    48   23  147 1    
    49   23  148 1    
    50   24   25 am   BACKBONE|DICT|INTERRES
    51   24  149 1    
    52   25   26 2    
    53   25   27 1    
    54   27   28 1    
    55   27   29 1    
    56   27  150 1    
    57   28  151 1    
    58   28  152 1    
    59   28  153 1    
    60   29   30 am   BACKBONE|DICT|INTERRES
    61   29  154 1    
    62   30   31 2    
    63   30   32 1    
    64   32   33 1    
    65   32   34 1    
    66   32  155 1    
    67   33  156 1    
    68   33  157 1    
    69   33  158 1    
    70   34   35 am   BACKBONE|DICT|INTERRES
    71   34  159 1    
    72   35   36 2    
    73   35   37 1    
    74   37   38 1    
    75   37   39 1    
    76   37  160 1    
    77   38  161 1    
    78   38  162 1    
    79   38  163 1    
    80   39   40 am   BACKBONE|DICT|INTERRES
    81   39  164 1    
    82   40   41 2    
    83   40   42 1    
    84   42   43 1    
    85   42   44 1    
    86   42  165 1    
    87   43  166 1    
    88   43  167 1    
    89   43  168 1    
    90   44   45 am   BACKBONE|DICT|INTERRES
    91   44  169 1    
    92   45   46 2    
    93   45   47 1    
    94   47   48 1    
    95   47   49 1    
    96   47  170 1    
    97   48  171 1    
    98   48  172 1    
    99   48  173 1    
   100   49   50 am   BACKBONE|DICT|INTERRES
   101   49  174 1    
   102   50   51 2    
   103   50   52 1    
   104   52   53 1    
   105   52   54 1    
   106   52  175 1    
   107   53  176 1    
   108   53  177 1    
   109   53  178 1    
   110   54   55 am   BACKBONE|DICT|INTERRES
   111   54  179 1    
   112   55   56 2    
   113   55   57 1    
   114   57   58 1    
   115   57   59 1    
   116   57  180 1    
   117   58  181 1    
   118   58  182 1    
   119   58  183 1    
   120   59   60 am   BACKBONE|DICT|INTERRES
   121   59  184 1    
   122   60   61 2    
   123   60   62 1    
   124   62   63 1    
   125   62   64 1    
   126   62  185 1    
   127   63  186 1    
   128   63  187 1    
   129   63  188 1    
   130   64   65 am   BACKBONE|DICT|INTERRES
   131   64  189 1    
   132   65   66 2    
   133   67   68 2    
   134   67   69 am   BACKBONE|DICT|INTERRES
   135   69   70 1    
   136   69  190 1    
   137   70   71 1    
   138   70   72 1    
   139   70  191 1    
   140   71  192 1    
   141   71  193 1    
   142   71  194 1    
   143   72   73 2    
   144   72   74 am   BACKBONE|DICT|INTERRES
   145   74   75 1    
   146   74  195 1    
   147   75   76 1    
   148   75   77 1    
   149   75  196 1    
   150   76  197 1    
   151   76  198 1    
   152   76  199 1    
   153   77   78 2    
   154   77   79 am   BACKBONE|DICT|INTERRES
   155   79   80 1    
   156   79  200 1    
   157   80   81 1    
   158   80   82 1    
   159   80  201 1    
   160   81  202 1    
   161   81  203 1    
   162   81  204 1    
   163   82   83 2    
   164   82   84 am   BACKBONE|DICT|INTERRES
   165   84   85 1    
   166   84  205 1    
   167   85   86 1    
   168   85   87 1    
   169   85  206 1    
   170   86  207 1    
   171   86  208 1    
   172   86  209 1    
   173   87   88 2    
   174   87   89 am   BACKBONE|DICT|INTERRES
   175   89   90 1    
   176   89  210 1    
   177   90   91 1    
   178   90   92 1    
   179   90  211 1    
   180   91  212 1    
   181   91  213 1    
   182   91  214 1    
   183   92   93 2    
   184   92   94 am   BACKBONE|DICT|INTERRES
   185   94   95 1    
   186   94  215 1    
   187   95   96 1    
   188   95   97 1    
   189   95  216 1    
   190   96  217 1    
   191   96  218 1    
   192   96  219 1    
   193   97   98 2    
   194   97   99 am   BACKBONE|DICT|INTERRES
   195   99  100 1    
   196   99  220 1    
   197  100  101 1    
   198  100  102 1    
   199  100  221 1    
   200  101  222 1    
   201  101  223 1    
   202  101  224 1    
   203  102  103 2    
   204  102  104 am   BACKBONE|DICT|INTERRES
   205  104  105 1    
   206  104  225 1    
   207  105  106 1    
   208  105  107 1    
   209  105  226 1    
   210  106  227 1    
   211  106  228 1    
   212  106  229 1    
   213  107  108 2    
   214  107  109 am   BACKBONE|DICT|INTERRES
   215  109  110 1    
   216  109  230 1    
   217  110  111 1    
   218  110  112 1    
   219  110  231 1    
   220  111  232 1    
   221  111  233 1    
   222  111  234 1    
   223  112  113 2    
   224  112  114 am   BACKBONE|DICT|INTERRES
   225  114  115 1    
   226  114  235 1    
   227  115  116 1    
   228  115  117 1    
   229  115  236 1    
   230  116  237 1    
   231  116  238 1    
   232  116  239 1    
   233  117  118 2    
   234  117  119 am   BACKBONE|DICT|INTERRES
   235  119  120 1    
   236  119  240 1    
   237  120  121 1    
   238  120  124 1    
   239  120  241 1    
   240  121  122 am   BACKBONE|DICT|INTERRES
   241  121  123 2    
   242  122  242 1    
   243  122  243 1    
   244  124  125 1    
   245  124  244 1    
   246  124  245 1    
   247  125  126 1    
   248  126  246 1    
   249  126  247 1    
@<TRIPOS>SUBSTRUCTURE
     1 UNK         1 GROUP             0       ****    0 ROOT    
