@<TRIPOS>MOLECULE
3R540
247   249    1
SMALL
USER_CHARGES


@<TRIPOS>ATOM
      1 CA         -4.0051  -14.9301  -48.8383 C.3       0 UNK        -0.1800 
      2 C          -2.8119  -14.6787  -47.9290 C.2       0 UNK         0.5000 
      3 O          -2.8479  -13.7727  -47.0960 O.2       0 UNK        -0.5000 
      4 N          -1.7584  -15.4925  -48.0691 N.am      1 UNK        -0.5000 
      5 CA         -0.4861  -15.3699  -47.3411 C.3       1 UNK         0.1400 
      6 C6          0.6738  -16.0853  -48.0712 C.3       23 UNK        -0.0398 
      7 S7          0.9379  -15.4397  -49.7576 S.3       23 UNK        -0.2404 
      8 C8          1.9849  -16.7482  -50.4834 C.3       23 UNK        -0.0205 
      9 C9          1.3693  -18.1447  -50.4368 C.ar      23 UNK        -0.0193 
     10 C10        -0.0006  -18.3415  -50.6282 C.ar      23 UNK        -0.1150 
     11 C11        -0.5597  -19.6182  -50.5542 C.ar      23 UNK        -0.0193 
     12 C12         0.2738  -20.7178  -50.3279 C.ar      23 UNK        -0.1150 
     13 C13         1.6551  -20.5456  -50.1632 C.ar      23 UNK        -0.0193 
     14 C14         2.1879  -19.2537  -50.2105 C.ar      23 UNK        -0.1150 
     15 C15         2.6159  -21.7221  -49.9876 C.3       23 UNK        -0.0205 
     16 S16         1.9090  -23.2123  -49.2108 S.3       23 UNK        -0.2404 
     17 C17         1.5627  -22.6085  -47.5257 C.3       23 UNK        -0.0398 
     18 CA          0.3747  -23.3579  -46.8811 C.3       11 UNK         0.1400 
     19 N           0.4094  -23.2727  -45.4173 N.am      11 UNK        -0.5000 
     20 C          -0.3191  -24.0384  -44.5930 C.2       10 UNK         0.5000 
     21 O          -1.1097  -24.8949  -44.9828 O.2       10 UNK        -0.5000 
     22 CA         -0.1840  -23.7621  -43.0858 C.3       10 UNK         0.1400 
     23 CB          1.1310  -24.3368  -42.5385 C.3       10 UNK        -0.1800 
     24 N          -0.2589  -22.3333  -42.7860 N.am      10 UNK        -0.5000 
     25 C          -1.3578  -21.5843  -42.9542 C.2       9 UNK         0.5000 
     26 O          -2.4484  -22.0372  -43.3003 O.2       9 UNK        -0.5000 
     27 CA         -1.2037  -20.0678  -42.7403 C.3       9 UNK         0.1400 
     28 CB         -1.5680  -19.6745  -41.3019 C.3       9 UNK        -0.1800 
     29 N           0.1315  -19.5539  -43.0560 N.am      9 UNK        -0.5000 
     30 C           0.7130  -19.5883  -44.2630 C.2       8 UNK         0.5000 
     31 O           0.2033  -20.1353  -45.2428 O.2       8 UNK        -0.5000 
     32 CA          2.0836  -18.8929  -44.3829 C.3       8 UNK         0.1400 
     33 CB          2.5333  -18.7293  -45.8454 C.3       8 UNK        -0.1800 
     34 N           2.0650  -17.5766  -43.7431 N.am      8 UNK        -0.5000 
     35 C           2.3507  -17.3235  -42.4605 C.2       7 UNK         0.5000 
     36 O           2.6344  -18.2089  -41.6519 O.2       7 UNK        -0.5000 
     37 CA          2.2649  -15.8507  -42.0008 C.3       7 UNK         0.1400 
     38 CB          3.0882  -15.5725  -40.7266 C.3       7 UNK        -0.1800 
     39 N           2.5942  -14.8740  -43.0446 N.am      7 UNK        -0.5000 
     40 C           3.7464  -14.7485  -43.7208 C.2       6 UNK         0.5000 
     41 O           4.7196  -15.4868  -43.5641 O.2       6 UNK        -0.5000 
     42 CA          3.8474  -13.5832  -44.7202 C.3       6 UNK         0.1400 
     43 CB          3.2340  -13.9532  -46.0791 C.3       6 UNK        -0.1800 
     44 N           3.2004  -12.3744  -44.2072 N.am      6 UNK        -0.5000 
     45 C           3.7788  -11.1675  -44.1326 C.2       5 UNK         0.5000 
     46 O           4.9160  -10.9267  -44.5405 O.2       5 UNK        -0.5000 
     47 CA          2.9597  -10.0260  -43.4914 C.3       5 UNK         0.1400 
     48 CB          2.2835   -9.1767  -44.5787 C.3       5 UNK        -0.1800 
     49 N           1.9364  -10.4914  -42.5542 N.am      5 UNK        -0.5000 
     50 C           2.1775  -11.1214  -41.3968 C.2       4 UNK         0.5000 
     51 O           3.3066  -11.2794  -40.9315 O.2       4 UNK        -0.5000 
     52 CA          0.9632  -11.6951  -40.6358 C.3       4 UNK         0.1400 
     53 CB          0.6607  -10.8421  -39.3939 C.3       4 UNK        -0.1800 
     54 N          -0.2760  -11.8498  -41.4113 N.am      4 UNK        -0.5000 
     55 C          -0.4303  -12.5666  -42.5325 C.2       3 UNK         0.5000 
     56 O           0.5042  -13.0600  -43.1686 O.2       3 UNK        -0.5000 
     57 CA         -1.8721  -12.7281  -43.0479 C.3       3 UNK         0.1400 
     58 CB         -2.1982  -11.6242  -44.0646 C.3       3 UNK        -0.1800 
     59 N          -2.0801  -14.0282  -43.6840 N.am      3 UNK        -0.5000 
     60 C          -1.9470  -15.2204  -43.0823 C.2       2 UNK         0.5000 
     61 O          -1.7429  -15.3620  -41.8760 O.2       2 UNK        -0.5000 
     62 CA         -2.0546  -16.4715  -43.9774 C.3       2 UNK         0.1400 
     63 CB         -3.4588  -17.0829  -43.8631 C.3       2 UNK        -0.1800 
     64 N          -1.7631  -16.2027  -45.3870 N.am      2 UNK        -0.5000 
     65 C          -0.5700  -15.8211  -45.8650 C.2       1 UNK         0.5000 
     66 O           0.4474  -15.7954  -45.1743 O.2       1 UNK        -0.5000 
     67 C          -0.9803  -22.8873  -47.4485 C.2       11 UNK         0.5000 
     68 O          -1.5098  -23.5068  -48.3735 O.2       11 UNK        -0.5000 
     69 N          -1.5526  -21.8438  -46.8347 N.am      12 UNK        -0.5000 
     70 CA         -2.8822  -21.3211  -47.1457 C.3       12 UNK         0.1400 
     71 CB         -3.0954  -20.0092  -46.3800 C.3       12 UNK        -0.1800 
     72 C          -4.0310  -22.3114  -46.8657 C.2       12 UNK         0.5000 
     73 O          -5.1112  -22.1392  -47.4288 O.2       12 UNK        -0.5000 
     74 N          -3.7829  -23.3248  -46.0258 N.am      13 UNK        -0.5000 
     75 CA         -4.6946  -24.4351  -45.7695 C.3       13 UNK         0.1400 
     76 CB         -4.6505  -24.7901  -44.2745 C.3       13 UNK        -0.1800 
     77 C          -4.3409  -25.6594  -46.6328 C.2       13 UNK         0.5000 
     78 O          -5.2366  -26.2469  -47.2396 O.2       13 UNK        -0.5000 
     79 N          -3.0550  -26.0402  -46.6526 N.am      14 UNK        -0.5000 
     80 CA         -2.5564  -27.2603  -47.2884 C.3       14 UNK         0.1400 
     81 CB         -1.1365  -27.5614  -46.7829 C.3       14 UNK        -0.1800 
     82 C          -2.5843  -27.2146  -48.8247 C.2       14 UNK         0.5000 
     83 O          -3.0694  -28.1619  -49.4452 O.2       14 UNK        -0.5000 
     84 N          -2.0590  -26.1304  -49.4091 N.am      15 UNK        -0.5000 
     85 CA         -2.0652  -25.9021  -50.8530 C.3       15 UNK         0.1400 
     86 CB         -0.7912  -25.1537  -51.2785 C.3       15 UNK        -0.1800 
     87 C          -3.3209  -25.1179  -51.2476 C.2       15 UNK         0.5000 
     88 O          -4.0351  -25.5324  -52.1615 O.2       15 UNK        -0.5000 
     89 N          -3.5761  -24.0133  -50.5297 N.am      16 UNK        -0.5000 
     90 CA         -4.7224  -23.1170  -50.6924 C.3       16 UNK         0.1400 
     91 CB         -5.9978  -23.7970  -50.1435 C.3       16 UNK        -0.1800 
     92 C          -4.8539  -22.6198  -52.1491 C.2       16 UNK         0.5000 
     93 O          -3.9380  -21.9636  -52.6490 O.2       16 UNK        -0.5000 
     94 N          -5.9598  -22.9747  -52.8154 N.am      17 UNK        -0.5000 
     95 CA         -6.2620  -22.6394  -54.2062 C.3       17 UNK         0.1400 
     96 CB         -7.6901  -23.1019  -54.5307 C.3       17 UNK        -0.1800 
     97 C          -5.2640  -23.2134  -55.2312 C.2       17 UNK         0.5000 
     98 O          -5.1369  -22.6426  -56.3141 O.2       17 UNK        -0.5000 
     99 N          -4.5427  -24.2916  -54.8825 N.am      18 UNK        -0.5000 
    100 CA        -3.4972  -24.8818  -55.7266 C.3       18 UNK         0.1400 
    101 CB        -3.1022  -26.2627  -55.1816 C.3       18 UNK        -0.1800 
    102 C         -2.2534  -23.9809  -55.8618 C.2       18 UNK         0.5000 
    103 O         -1.5382  -24.0867  -56.8584 O.2       18 UNK        -0.5000 
    104 N         -2.0337  -23.0967  -54.8783 N.am      19 UNK        -0.5000 
    105 CA        -0.9925  -22.0689  -54.8995 C.3       19 UNK         0.1400 
    106 CB        -0.4795  -21.8599  -53.4673 C.3       19 UNK        -0.1800 
    107 C         -1.4828  -20.7449  -55.5243 C.2       19 UNK         0.5000 
    108 O         -0.6859  -19.8162  -55.6567 O.2       19 UNK        -0.5000 
    109 N         -2.7731  -20.6714  -55.8905 N.am      20 UNK        -0.5000 
    110 CA        -3.4981  -19.5977  -56.5886 C.3       20 UNK         0.1400 
    111 CB        -2.9003  -19.3554  -57.9871 C.3       20 UNK        -0.1800 
    112 C         -3.6525  -18.2677  -55.8218 C.2       20 UNK         0.5000 
    113 O         -4.6595  -17.5837  -56.0068 O.2       20 UNK        -0.5000 
    114 N         -2.6717  -17.9163  -54.9844 N.am      21 UNK        -0.5000 
    115 CA        -2.6141  -16.6786  -54.2049 C.3       21 UNK         0.1400 
    116 CB        -1.1770  -16.4973  -53.6923 C.3       21 UNK        -0.1800 
    117 C         -3.6235  -16.6120  -53.0406 C.2       21 UNK         0.5000 
    118 O         -3.8999  -15.5154  -52.5525 O.2       21 UNK        -0.5000 
    119 N         -4.1460  -17.7675  -52.6163 N.am      22 UNK        -0.5000 
    120 CA        -5.1321  -17.9083  -51.5375 C.3       22 UNK         0.1400 
    121 C         -6.5209  -18.2478  -52.1349 C.2       22 UNK         0.5000 
    122 N         -7.5805  -17.5946  -51.6785 N.am      22 UNK        -0.7600 
    123 O         -6.6514  -19.1287  -52.9815 O.2       22 UNK        -0.5000 
    124 C124       -4.7118  -18.9919  -50.5126 C.3       23 UNK        -0.0398 
    125 S125       -3.0740  -18.6820  -49.7715 S.3       23 UNK        -0.2404 
    126 C126       -2.0525  -19.8111  -50.7771 C.3       23 UNK        -0.0205 
    127 H127       -3.7483  -15.6069  -49.6530 H         1 UNK         0.0600 
    128 H128       -4.8265  -15.3683  -48.2718 H         1 UNK         0.0600 
    129 H129       -4.3497  -13.9937  -49.2768 H         1 UNK         0.0600 
    130 H130       -1.7939  -16.2303  -48.7589 H         1 UNK         0.3000 
    131 H131       -0.2336  -14.3079  -47.3043 H         1 UNK         0.0600 
    132 H132        1.6132  -15.9689  -47.5297 H         1 UNK         0.0800 
    133 H133        0.4725  -17.1561  -48.1112 H         1 UNK         0.0800 
    134 H134        2.9455  -16.7413  -49.9658 H         1 UNK         0.0800 
    135 H135        2.1905  -16.4945  -51.5239 H         1 UNK         0.0800 
    136 H136       -0.6425  -17.4949  -50.8226 H         1 UNK         0.1150 
    137 H137       -0.1548  -21.7093  -50.3075 H         1 UNK         0.1150 
    138 H138        3.2523  -19.1116  -50.0849 H         1 UNK         0.1150 
    139 H139        3.4826  -21.4128  -49.4013 H         1 UNK         0.0800 
    140 H140        2.9938  -21.9984  -50.9726 H         1 UNK         0.0800 
    141 H141        1.3907  -21.5305  -47.5296 H         1 UNK         0.0800 
    142 H142        2.4695  -22.7670  -46.9405 H         1 UNK         0.0800 
    143 H143        0.4728  -24.4172  -47.1291 H         1 UNK         0.0600 
    144 H144        0.9806  -22.5413  -45.0212 H         1 UNK         0.3000 
    145 H145       -1.0120  -24.2622  -42.5786 H         1 UNK         0.0600 
    146 H146        1.2044  -25.4055  -42.7448 H         1 UNK         0.0600 
    147 H147        1.1953  -24.2109  -41.4576 H         1 UNK         0.0600 
    148 H148        2.0022  -23.8556  -42.9845 H         1 UNK         0.0600 
    149 H149        0.5917  -21.8791  -42.4884 H         1 UNK         0.3000 
    150 H150       -1.9092  -19.5782  -43.4116 H         1 UNK         0.0600 
    151 H151       -0.8734  -20.1041  -40.5790 H         1 UNK         0.0600 
    152 H152       -2.5692  -20.0220  -41.0435 H         1 UNK         0.0600 
    153 H153       -1.5592  -18.5914  -41.1751 H         1 UNK         0.0600 
    154 H154        0.6430  -19.1160  -42.3010 H         1 UNK         0.3000 
    155 H155        2.8149  -19.5299  -43.8816 H         1 UNK         0.0600 
    156 H156        1.8014  -18.1706  -46.4261 H         1 UNK         0.0600 
    157 H157        2.6633  -19.6984  -46.3279 H         1 UNK         0.0600 
    158 H158        3.4861  -18.2036  -45.9105 H         1 UNK         0.0600 
    159 H159        1.7143  -16.8083  -44.3123 H         1 UNK         0.3000 
    160 H160        1.2158  -15.6775  -41.7567 H         1 UNK         0.0600 
    161 H161        4.1462  -15.7906  -40.8746 H         1 UNK         0.0600 
    162 H162        2.7409  -16.1841  -39.8931 H         1 UNK         0.0600 
    163 H163        3.0016  -14.5300  -40.4205 H         1 UNK         0.0600 
    164 H164        1.8279  -14.2436  -43.2735 H         1 UNK         0.3000 
    165 H165        4.9138  -13.4056  -44.8742 H         1 UNK         0.0600 
    166 H166        3.6064  -14.9155  -46.4326 H         1 UNK         0.0600 
    167 H167        2.1480  -14.0135  -46.0229 H         1 UNK         0.0600 
    168 H168        3.4834  -13.2088  -46.8351 H         1 UNK         0.0600 
    169 H169        2.2635  -12.4858  -43.8326 H         1 UNK         0.3000 
    170 H170        3.6563   -9.3899  -42.9415 H         1 UNK         0.0600 
    171 H171        1.7646   -8.3211  -44.1462 H         1 UNK         0.0600 
    172 H172        1.5578   -9.7580  -45.1491 H         1 UNK         0.0600 
    173 H173        3.0188   -8.7867  -45.2838 H         1 UNK         0.0600 
    174 H174        0.9770  -10.4126  -42.8563 H         1 UNK         0.3000 
    175 H175        1.2516  -12.6925  -40.2986 H         1 UNK         0.0600 
    176 H176        1.5464  -10.7318  -38.7667 H         1 UNK         0.0600 
    177 H177        0.3257   -9.8408  -39.6677 H         1 UNK         0.0600 
    178 H178       -0.1137  -11.3000  -38.7781 H         1 UNK         0.0600 
    179 H179       -1.1013  -11.4515  -40.9867 H         1 UNK         0.3000 
    180 H180       -2.5616  -12.6513  -42.2050 H         1 UNK         0.0600 
    181 H181       -1.5430  -11.6747  -44.9357 H         1 UNK         0.0600 
    182 H182       -2.0822  -10.6341  -43.6219 H         1 UNK         0.0600 
    183 H183       -3.2269  -11.7036  -44.4168 H         1 UNK         0.0600 
    184 H184       -2.2339  -14.0152  -44.6829 H         1 UNK         0.3000 
    185 H185       -1.3242  -17.1953  -43.6145 H         1 UNK         0.0600 
    186 H186       -3.6829  -17.3550  -42.8307 H         1 UNK         0.0600 
    187 H187       -4.2288  -16.3847  -44.1938 H         1 UNK         0.0600 
    188 H188       -3.5503  -17.9864  -44.4623 H         1 UNK         0.0600 
    189 H189       -2.5481  -16.1953  -46.0212 H         1 UNK         0.3000 
    190 H190       -1.0255  -21.3510  -46.1190 H         1 UNK         0.3000 
    191 H191       -2.9030  -21.1061  -48.2135 H         1 UNK         0.0600 
    192 H192       -2.2927  -19.2974  -46.5761 H         1 UNK         0.0600 
    193 H193       -4.0317  -19.5337  -46.6747 H         1 UNK         0.0600 
    194 H194       -3.1398  -20.1853  -45.3063 H         1 UNK         0.0600 
    195 H195       -2.8751  -23.3725  -45.5839 H         1 UNK         0.3000 
    196 H196       -5.7188  -24.1416  -46.0092 H         1 UNK         0.0600 
    197 H197       -5.3271  -25.6152  -44.0487 H         1 UNK         0.0600 
    198 H198       -4.9550  -23.9413  -43.6619 H         1 UNK         0.0600 
    199 H199       -3.6511  -25.0866  -43.9545 H         1 UNK         0.0600 
    200 H200       -2.3790  -25.5264  -46.0913 H         1 UNK         0.3000 
    201 H201       -3.2001  -28.0843  -46.9731 H         1 UNK         0.0600 
    202 H202       -0.7512  -28.4820  -47.2230 H         1 UNK         0.0600 
    203 H203       -1.1228  -27.6885  -45.7003 H         1 UNK         0.0600 
    204 H204       -0.4402  -26.7606  -47.0337 H         1 UNK         0.0600 
    205 H205       -1.7409  -25.3575  -48.8324 H         1 UNK         0.3000 
    206 H206       -2.0791  -26.8567  -51.3836 H         1 UNK         0.0600 
    207 H207        0.1040  -25.7056  -50.9921 H         1 UNK         0.0600 
    208 H208       -0.7628  -25.0263  -52.3613 H         1 UNK         0.0600 
    209 H209       -0.7260  -24.1613  -50.8323 H         1 UNK         0.0600 
    210 H210       -2.9089  -23.7565  -49.8093 H         1 UNK         0.3000 
    211 H211       -4.5197  -22.2371  -50.0822 H         1 UNK         0.0600 
    212 H212       -6.8484  -23.1146  -50.1622 H         1 UNK         0.0600 
    213 H213       -5.8586  -24.1021  -49.1066 H         1 UNK         0.0600 
    214 H214       -6.2674  -24.6916  -50.7059 H         1 UNK         0.0600 
    215 H215       -6.6412  -23.5437  -52.3350 H         1 UNK         0.3000 
    216 H216       -6.2257  -21.5519  -54.2970 H         1 UNK         0.0600 
    217 H217       -8.4178  -22.6259  -53.8730 H         1 UNK         0.0600 
    218 H218       -7.7963  -24.1824  -54.4263 H         1 UNK         0.0600 
    219 H219       -7.9624  -22.8421  -55.5546 H         1 UNK         0.0600 
    220 H220       -4.6625  -24.6958  -53.9590 H         1 UNK         0.3000 
    221 H221       -3.9141  -25.0219  -56.7262 H         1 UNK         0.0600 
    222 H222       -2.5721  -26.1869  -54.2323 H         1 UNK         0.0600 
    223 H223       -3.9760  -26.8971  -55.0317 H         1 UNK         0.0600 
    224 H224       -2.4412  -26.7783  -55.8793 H         1 UNK         0.0600 
    225 H225       -2.6874  -23.0504  -54.1053 H         1 UNK         0.3000 
    226 H226       -0.1498  -22.4084  -55.5051 H         1 UNK         0.0600 
    227 H227        0.0219  -22.7532  -53.0958 H         1 UNK         0.0600 
    228 H228        0.2406  -21.0422  -53.4137 H         1 UNK         0.0600 
    229 H229       -1.2936  -21.6299  -52.7833 H         1 UNK         0.0600 
    230 H230       -3.3345  -21.4969  -55.7265 H         1 UNK         0.3000 
    231 H231       -4.5099  -19.9799  -56.7315 H         1 UNK         0.0600 
    232 H232       -1.8862  -18.9586  -57.9334 H         1 UNK         0.0600 
    233 H233       -3.5005  -18.6381  -58.5483 H         1 UNK         0.0600 
    234 H234       -2.8705  -20.2776  -58.5675 H         1 UNK         0.0600 
    235 H235       -1.8522  -18.5165  -54.9586 H         1 UNK         0.3000 
    236 H236       -2.8436  -15.8453  -54.8721 H         1 UNK         0.0600 
    237 H237       -1.0933  -15.6361  -53.0277 H         1 UNK         0.0600 
    238 H238       -0.8381  -17.3751  -53.1436 H         1 UNK         0.0600 
    239 H239       -0.4844  -16.3381  -54.5188 H         1 UNK         0.0600 
    240 H240       -3.9210  -18.6119  -53.1205 H         1 UNK         0.3000 
    241 H241       -5.2203  -16.9653  -50.9956 H         1 UNK         0.0600 
    242 H242       -7.5005  -16.8714  -50.9804 H         1 UNK         0.3800 
    243 H243       -8.4893  -17.8196  -52.0527 H         1 UNK         0.3800 
    244 H244       -5.4367  -19.0401  -49.6982 H         1 UNK         0.0800 
    245 H245       -4.7155  -19.9771  -50.9755 H         1 UNK         0.0800 
    246 H246       -2.3427  -20.8403  -50.5618 H         1 UNK         0.0800 
    247 H247       -2.2612  -19.6443  -51.8337 H         1 UNK         0.0800 
@<TRIPOS>BOND
     1    1    2 1    
     2    1  127 1    
     3    1  128 1    
     4    1  129 1    
     5    2    3 2    
     6    2    4 am   BACKBONE|DICT|INTERRES
     7    4    5 1    
     8    4  130 1    
     9    5    6 1    
    10    5   65 1    
    11    5  131 1    
    12    6    7 1    
    13    6  132 1    
    14    6  133 1    
    15    7    8 1    
    16    8    9 1    
    17    8  134 1    
    18    8  135 1    
    19    9   10 ar   
    20    9   14 ar   
    21   10   11 ar   
    22   10  136 1    
    23   11   12 ar   
    24   11  126 1    
    25   12   13 ar   
    26   12  137 1    
    27   13   14 ar   
    28   13   15 1    
    29   14  138 1    
    30   15   16 1    
    31   15  139 1    
    32   15  140 1    
    33   16   17 1    
    34   17   18 1    
    35   17  141 1    
    36   17  142 1    
    37   18   19 1    
    38   18   67 1    
    39   18  143 1    
    40   19   20 am   BACKBONE|DICT|INTERRES
    41   19  144 1    
    42   20   21 2    
    43   20   22 1    
    44   22   23 1    
    45   22   24 1    
    46   22  145 1    
    47   23  146 1    
    48   23  147 1    
    49   23  148 1    
    50   24   25 am   BACKBONE|DICT|INTERRES
    51   24  149 1    
    52   25   26 2    
    53   25   27 1    
    54   27   28 1    
    55   27   29 1    
    56   27  150 1    
    57   28  151 1    
    58   28  152 1    
    59   28  153 1    
    60   29   30 am   BACKBONE|DICT|INTERRES
    61   29  154 1    
    62   30   31 2    
    63   30   32 1    
    64   32   33 1    
    65   32   34 1    
    66   32  155 1    
    67   33  156 1    
    68   33  157 1    
    69   33  158 1    
    70   34   35 am   BACKBONE|DICT|INTERRES
    71   34  159 1    
    72   35   36 2    
    73   35   37 1    
    74   37   38 1    
    75   37   39 1    
    76   37  160 1    
    77   38  161 1    
    78   38  162 1    
    79   38  163 1    
    80   39   40 am   BACKBONE|DICT|INTERRES
    81   39  164 1    
    82   40   41 2    
    83   40   42 1    
    84   42   43 1    
    85   42   44 1    
    86   42  165 1    
    87   43  166 1    
    88   43  167 1    
    89   43  168 1    
    90   44   45 am   BACKBONE|DICT|INTERRES
    91   44  169 1    
    92   45   46 2    
    93   45   47 1    
    94   47   48 1    
    95   47   49 1    
    96   47  170 1    
    97   48  171 1    
    98   48  172 1    
    99   48  173 1    
   100   49   50 am   BACKBONE|DICT|INTERRES
   101   49  174 1    
   102   50   51 2    
   103   50   52 1    
   104   52   53 1    
   105   52   54 1    
   106   52  175 1    
   107   53  176 1    
   108   53  177 1    
   109   53  178 1    
   110   54   55 am   BACKBONE|DICT|INTERRES
   111   54  179 1    
   112   55   56 2    
   113   55   57 1    
   114   57   58 1    
   115   57   59 1    
   116   57  180 1    
   117   58  181 1    
   118   58  182 1    
   119   58  183 1    
   120   59   60 am   BACKBONE|DICT|INTERRES
   121   59  184 1    
   122   60   61 2    
   123   60   62 1    
   124   62   63 1    
   125   62   64 1    
   126   62  185 1    
   127   63  186 1    
   128   63  187 1    
   129   63  188 1    
   130   64   65 am   BACKBONE|DICT|INTERRES
   131   64  189 1    
   132   65   66 2    
   133   67   68 2    
   134   67   69 am   BACKBONE|DICT|INTERRES
   135   69   70 1    
   136   69  190 1    
   137   70   71 1    
   138   70   72 1    
   139   70  191 1    
   140   71  192 1    
   141   71  193 1    
   142   71  194 1    
   143   72   73 2    
   144   72   74 am   BACKBONE|DICT|INTERRES
   145   74   75 1    
   146   74  195 1    
   147   75   76 1    
   148   75   77 1    
   149   75  196 1    
   150   76  197 1    
   151   76  198 1    
   152   76  199 1    
   153   77   78 2    
   154   77   79 am   BACKBONE|DICT|INTERRES
   155   79   80 1    
   156   79  200 1    
   157   80   81 1    
   158   80   82 1    
   159   80  201 1    
   160   81  202 1    
   161   81  203 1    
   162   81  204 1    
   163   82   83 2    
   164   82   84 am   BACKBONE|DICT|INTERRES
   165   84   85 1    
   166   84  205 1    
   167   85   86 1    
   168   85   87 1    
   169   85  206 1    
   170   86  207 1    
   171   86  208 1    
   172   86  209 1    
   173   87   88 2    
   174   87   89 am   BACKBONE|DICT|INTERRES
   175   89   90 1    
   176   89  210 1    
   177   90   91 1    
   178   90   92 1    
   179   90  211 1    
   180   91  212 1    
   181   91  213 1    
   182   91  214 1    
   183   92   93 2    
   184   92   94 am   BACKBONE|DICT|INTERRES
   185   94   95 1    
   186   94  215 1    
   187   95   96 1    
   188   95   97 1    
   189   95  216 1    
   190   96  217 1    
   191   96  218 1    
   192   96  219 1    
   193   97   98 2    
   194   97   99 am   BACKBONE|DICT|INTERRES
   195   99  100 1    
   196   99  220 1    
   197  100  101 1    
   198  100  102 1    
   199  100  221 1    
   200  101  222 1    
   201  101  223 1    
   202  101  224 1    
   203  102  103 2    
   204  102  104 am   BACKBONE|DICT|INTERRES
   205  104  105 1    
   206  104  225 1    
   207  105  106 1    
   208  105  107 1    
   209  105  226 1    
   210  106  227 1    
   211  106  228 1    
   212  106  229 1    
   213  107  108 2    
   214  107  109 am   BACKBONE|DICT|INTERRES
   215  109  110 1    
   216  109  230 1    
   217  110  111 1    
   218  110  112 1    
   219  110  231 1    
   220  111  232 1    
   221  111  233 1    
   222  111  234 1    
   223  112  113 2    
   224  112  114 am   BACKBONE|DICT|INTERRES
   225  114  115 1    
   226  114  235 1    
   227  115  116 1    
   228  115  117 1    
   229  115  236 1    
   230  116  237 1    
   231  116  238 1    
   232  116  239 1    
   233  117  118 2    
   234  117  119 am   BACKBONE|DICT|INTERRES
   235  119  120 1    
   236  119  240 1    
   237  120  121 1    
   238  120  124 1    
   239  120  241 1    
   240  121  122 am   BACKBONE|DICT|INTERRES
   241  121  123 2    
   242  122  242 1    
   243  122  243 1    
   244  124  125 1    
   245  124  244 1    
   246  124  245 1    
   247  125  126 1    
   248  126  246 1    
   249  126  247 1    
@<TRIPOS>SUBSTRUCTURE
     1 UNK         1 GROUP             0       ****    0 ROOT    
