@<TRIPOS>MOLECULE
3R540
247   249    1
SMALL
USER_CHARGES


@<TRIPOS>ATOM
      1 CA          4.9835  -17.0567  -46.8747 C.3       0 UNK        -0.1800 
      2 C           5.1523  -17.0789  -48.3925 C.2       0 UNK         0.5000 
      3 O           5.9336  -17.8818  -48.8980 O.2       0 UNK        -0.5000 
      4 N           4.4478  -16.2395  -49.1641 N.am      1 UNK        -0.5000 
      5 CA          3.5571  -15.1600  -48.7338 C.3       1 UNK         0.1400 
      6 C6          2.4844  -14.8750  -49.8213 C.3       23 UNK        -0.0398 
      7 S7          1.0116  -14.0033  -49.1891 S.3       23 UNK        -0.2404 
      8 C8          0.2089  -15.3191  -48.2243 C.3       23 UNK        -0.0205 
      9 C9         -0.9534  -15.9987  -48.9257 C.ar      23 UNK        -0.0193 
     10 C10        -0.7350  -16.9800  -49.8964 C.ar      23 UNK        -0.1150 
     11 C11        -1.8126  -17.6666  -50.4659 C.ar      23 UNK        -0.0193 
     12 C12        -3.1156  -17.3640  -50.0578 C.ar      23 UNK        -0.1150 
     13 C13        -3.3393  -16.4174  -49.0539 C.ar      23 UNK        -0.0193 
     14 C14        -2.2574  -15.7213  -48.5124 C.ar      23 UNK        -0.1150 
     15 C15        -4.7369  -16.1835  -48.4991 C.3       23 UNK        -0.0205 
     16 S16        -5.3869  -17.6215  -47.5762 S.3       23 UNK        -0.2404 
     17 C17        -4.0007  -18.1328  -46.4876 C.3       23 UNK        -0.0398 
     18 CA         -3.2403  -19.3647  -47.0512 C.3       11 UNK         0.1400 
     19 N          -1.8152  -19.3658  -46.6941 N.am      11 UNK        -0.5000 
     20 C          -0.8758  -20.0728  -47.3390 C.2       10 UNK         0.5000 
     21 O          -1.1114  -20.7761  -48.3208 O.2       10 UNK        -0.5000 
     22 CA          0.5451  -20.0787  -46.7469 C.3       10 UNK         0.1400 
     23 CB          1.3816  -18.9250  -47.3079 C.3       10 UNK        -0.1800 
     24 N           0.5742  -20.0438  -45.2832 N.am      10 UNK        -0.5000 
     25 C           0.0607  -20.9925  -44.4874 C.2       9 UNK         0.5000 
     26 O          -0.5043  -22.0002  -44.9120 O.2       9 UNK        -0.5000 
     27 CA          0.1611  -20.7647  -42.9694 C.3       9 UNK         0.1400 
     28 CB          1.5835  -21.0515  -42.4662 C.3       9 UNK        -0.1800 
     29 N          -0.2341  -19.4115  -42.5836 N.am      9 UNK        -0.5000 
     30 C          -1.4764  -18.9193  -42.6961 C.2       8 UNK         0.5000 
     31 O          -2.4457  -19.5769  -43.0762 O.2       8 UNK        -0.5000 
     32 CA         -1.6550  -17.4228  -42.3764 C.3       8 UNK         0.1400 
     33 CB         -1.7566  -17.1888  -40.8619 C.3       8 UNK        -0.1800 
     34 N          -0.5811  -16.5982  -42.9341 N.am      8 UNK        -0.5000 
     35 C          -0.3240  -16.4883  -44.2450 C.2       7 UNK         0.5000 
     36 O          -0.9829  -17.0414  -45.1250 O.2       7 UNK        -0.5000 
     37 CA          0.8975  -15.6466  -44.6410 C.3       7 UNK         0.1400 
     38 CB          0.5328  -14.1574  -44.6815 C.3       7 UNK        -0.1800 
     39 N           2.0542  -15.8711  -43.7749 N.am      7 UNK        -0.5000 
     40 C           2.7108  -17.0379  -43.6942 C.2       6 UNK         0.5000 
     41 O           2.4473  -18.0189  -44.3881 O.2       6 UNK        -0.5000 
     42 CA          3.8010  -17.1480  -42.6159 C.3       6 UNK         0.1400 
     43 CB          5.1114  -16.4940  -43.0794 C.3       6 UNK        -0.1800 
     44 N           3.3699  -16.5596  -41.3484 N.am      6 UNK        -0.5000 
     45 C           2.3677  -17.0408  -40.5974 C.2       5 UNK         0.5000 
     46 O           1.7388  -18.0621  -40.8742 O.2       5 UNK        -0.5000 
     47 CA          1.9757  -16.2326  -39.3468 C.3       5 UNK         0.1400 
     48 CB          2.6994  -16.7776  -38.1068 C.3       5 UNK        -0.1800 
     49 N           2.2484  -14.7999  -39.4718 N.am      5 UNK        -0.5000 
     50 C           1.6465  -13.9725  -40.3373 C.2       4 UNK         0.5000 
     51 O           0.7620  -14.3374  -41.1165 O.2       4 UNK        -0.5000 
     52 CA          2.1064  -12.4948  -40.3249 C.3       4 UNK         0.1400 
     53 CB          3.4648  -12.2725  -39.6208 C.3       4 UNK        -0.1800 
     54 N           2.1390  -11.8744  -41.6545 N.am      4 UNK        -0.5000 
     55 C           2.8026  -12.3051  -42.7373 C.2       3 UNK         0.5000 
     56 O           3.4043  -13.3813  -42.7861 O.2       3 UNK        -0.5000 
     57 CA          2.7290  -11.3853  -43.9800 C.3       3 UNK         0.1400 
     58 CB          3.1005   -9.9229  -43.6479 C.3       3 UNK        -0.1800 
     59 N           3.5117  -11.8713  -45.1272 N.am      3 UNK        -0.5000 
     60 C           4.8450  -12.0044  -45.2109 C.2       2 UNK         0.5000 
     61 O           5.6265  -11.6908  -44.3112 O.2       2 UNK        -0.5000 
     62 CA          5.3911  -12.5840  -46.5308 C.3       2 UNK         0.1400 
     63 CB          6.8129  -13.1660  -46.3847 C.3       2 UNK        -0.1800 
     64 N           4.4941  -13.6054  -47.0785 N.am      2 UNK        -0.5000 
     65 C           4.4084  -13.9245  -48.3775 C.2       1 UNK         0.5000 
     66 O           5.0093  -13.3260  -49.2719 O.2       1 UNK        -0.5000 
     67 C          -3.9595  -20.7111  -46.7678 C.2       11 UNK         0.5000 
     68 O          -5.1193  -20.8651  -47.1516 O.2       11 UNK        -0.5000 
     69 N          -3.2652  -21.6827  -46.1592 N.am      12 UNK        -0.5000 
     70 CA         -3.6795  -23.0812  -46.0953 C.3       12 UNK         0.1400 
     71 CB         -3.6439  -23.5656  -44.6366 C.3       12 UNK        -0.1800 
     72 C          -2.7736  -23.9409  -46.9939 C.2       12 UNK         0.5000 
     73 O          -3.2798  -24.6278  -47.8820 O.2       12 UNK        -0.5000 
     74 N          -1.4576  -23.8934  -46.7435 N.am      13 UNK        -0.5000 
     75 CA         -0.4484  -24.7605  -47.3509 C.3       13 UNK         0.1400 
     76 CB          0.8633  -24.6479  -46.5551 C.3       13 UNK        -0.1800 
     77 C          -0.2256  -24.4884  -48.8482 C.2       13 UNK         0.5000 
     78 O          -0.5461  -25.3416  -49.6759 O.2       13 UNK        -0.5000 
     79 N           0.3085  -23.3029  -49.1739 N.am      14 UNK        -0.5000 
     80 CA          0.6081  -22.8673  -50.5440 C.3       14 UNK         0.1400 
     81 CB          1.4583  -21.5878  -50.5016 C.3       14 UNK        -0.1800 
     82 C          -0.6598  -22.6589  -51.3927 C.2       14 UNK         0.5000 
     83 O          -0.6313  -22.8650  -52.6058 O.2       14 UNK        -0.5000 
     84 N          -1.7600  -22.3020  -50.7199 N.am      15 UNK        -0.5000 
     85 CA         -3.1112  -22.2230  -51.2645 C.3       15 UNK         0.1400 
     86 CB         -4.0046  -21.5520  -50.2163 C.3       15 UNK        -0.1800 
     87 C          -3.7183  -23.5833  -51.6529 C.2       15 UNK         0.5000 
     88 O          -4.7389  -23.5888  -52.3453 O.2       15 UNK        -0.5000 
     89 N          -3.1228  -24.6897  -51.1816 N.am      16 UNK        -0.5000 
     90 CA         -3.5505  -26.0780  -51.3714 C.3       16 UNK         0.1400 
     91 CB         -3.4019  -26.4905  -52.8514 C.3       16 UNK        -0.1800 
     92 C          -4.9661  -26.3205  -50.8135 C.2       16 UNK         0.5000 
     93 O          -5.8315  -26.8323  -51.5227 O.2       16 UNK        -0.5000 
     94 N          -5.1954  -25.8744  -49.5688 N.am      17 UNK        -0.5000 
     95 CA         -6.4869  -25.8600  -48.8675 C.3       17 UNK         0.1400 
     96 CB         -6.9531  -27.2947  -48.5444 C.3       17 UNK        -0.1800 
     97 C          -7.5568  -25.0267  -49.6102 C.2       17 UNK         0.5000 
     98 O          -8.7360  -25.3826  -49.6118 O.2       17 UNK        -0.5000 
     99 N          -7.0975  -23.9377  -50.2437 N.am      18 UNK        -0.5000 
    100 CA        -7.8391  -22.9986  -51.0901 C.3       18 UNK         0.1400 
    101 CB        -8.9802  -22.3117  -50.3117 C.3       18 UNK        -0.1800 
    102 C         -8.2966  -23.5847  -52.4431 C.2       18 UNK         0.5000 
    103 O         -9.1540  -22.9863  -53.0945 O.2       18 UNK        -0.5000 
    104 N         -7.7035  -24.7079  -52.8775 N.am      19 UNK        -0.5000 
    105 CA        -7.9121  -25.2657  -54.2163 C.3       19 UNK         0.1400 
    106 CB        -7.4664  -26.7346  -54.2518 C.3       19 UNK        -0.1800 
    107 C         -7.1762  -24.4526  -55.2974 C.2       19 UNK         0.5000 
    108 O         -7.7110  -24.2832  -56.3939 O.2       19 UNK        -0.5000 
    109 N         -5.9775  -23.9542  -54.9639 N.am      20 UNK        -0.5000 
    110 CA        -5.1886  -23.0563  -55.8073 C.3       20 UNK         0.1400 
    111 CB        -3.7026  -23.4384  -55.7112 C.3       20 UNK        -0.1800 
    112 C         -5.3996  -21.5938  -55.3844 C.2       20 UNK         0.5000 
    113 O         -5.4989  -20.7178  -56.2452 O.2       20 UNK        -0.5000 
    114 N         -5.4547  -21.3592  -54.0625 N.am      21 UNK        -0.5000 
    115 CA        -5.7404  -20.0842  -53.3864 C.3       21 UNK         0.1400 
    116 CB        -7.2123  -19.6868  -53.6182 C.3       21 UNK        -0.1800 
    117 C         -4.7707  -18.9263  -53.7183 C.2       21 UNK         0.5000 
    118 O         -5.0995  -17.7714  -53.4453 O.2       21 UNK        -0.5000 
    119 N         -3.6073  -19.2453  -54.3063 N.am      22 UNK        -0.5000 
    120 CA        -2.6613  -18.2915  -54.9160 C.3       22 UNK         0.1400 
    121 C         -3.2580  -17.5069  -56.1294 C.2       22 UNK         0.5000 
    122 N         -4.2763  -18.0244  -56.8095 N.am      22 UNK        -0.7600 
    123 O         -2.7782  -16.4347  -56.4884 O.2       22 UNK        -0.5000 
    124 C124       -1.9440  -17.3866  -53.8690 C.3       23 UNK        -0.0398 
    125 S125       -0.6682  -18.3013  -52.9393 S.3       23 UNK        -0.2404 
    126 C126       -1.5658  -18.8062  -51.4420 C.3       23 UNK        -0.0205 
    127 H127        3.9343  -17.0994  -46.5867 H         1 UNK         0.0600 
    128 H128        5.4370  -16.1632  -46.4479 H         1 UNK         0.0600 
    129 H129        5.4743  -17.9215  -46.4279 H         1 UNK         0.0600 
    130 H130        4.6147  -16.2709  -50.1597 H         1 UNK         0.3000 
    131 H131        3.0415  -15.4829  -47.8313 H         1 UNK         0.0600 
    132 H132        2.9030  -14.3028  -50.6511 H         1 UNK         0.0800 
    133 H133        2.1409  -15.8116  -50.2616 H         1 UNK         0.0800 
    134 H134       -0.1420  -14.8768  -47.2949 H         1 UNK         0.0800 
    135 H135        0.9337  -16.0779  -47.9481 H         1 UNK         0.0800 
    136 H136        0.2730  -17.2354  -50.1887 H         1 UNK         0.1150 
    137 H137       -3.9531  -17.9092  -50.4701 H         1 UNK         0.1150 
    138 H138       -2.4268  -14.9966  -47.7284 H         1 UNK         0.1150 
    139 H139       -4.7501  -15.3127  -47.8419 H         1 UNK         0.0800 
    140 H140       -5.4156  -15.9545  -49.3218 H         1 UNK         0.0800 
    141 H141       -4.3828  -18.3349  -45.4855 H         1 UNK         0.0800 
    142 H142       -3.3270  -17.2837  -46.3744 H         1 UNK         0.0800 
    143 H143       -3.2528  -19.2701  -48.1361 H         1 UNK         0.0600 
    144 H144       -1.5350  -18.7645  -45.9248 H         1 UNK         0.3000 
    145 H145        1.0173  -21.0115  -47.0601 H         1 UNK         0.0600 
    146 H146        2.4367  -19.0539  -47.0672 H         1 UNK         0.0600 
    147 H147        1.2987  -18.8563  -48.3932 H         1 UNK         0.0600 
    148 H148        1.0562  -17.9788  -46.8836 H         1 UNK         0.0600 
    149 H149        1.0637  -19.2593  -44.8608 H         1 UNK         0.3000 
    150 H150       -0.5190  -21.4668  -42.4826 H         1 UNK         0.0600 
    151 H151        1.8967  -22.0615  -42.7334 H         1 UNK         0.0600 
    152 H152        1.6400  -20.9691  -41.3807 H         1 UNK         0.0600 
    153 H153        2.3103  -20.3578  -42.8902 H         1 UNK         0.0600 
    154 H154        0.4971  -18.8136  -42.2102 H         1 UNK         0.3000 
    155 H155       -2.5913  -17.0949  -42.8330 H         1 UNK         0.0600 
    156 H156       -0.8692  -17.5419  -40.3378 H         1 UNK         0.0600 
    157 H157       -2.6132  -17.7196  -40.4449 H         1 UNK         0.0600 
    158 H158       -1.8846  -16.1308  -40.6318 H         1 UNK         0.0600 
    159 H159       -0.0056  -16.0798  -42.2813 H         1 UNK         0.3000 
    160 H160        1.1886  -15.9514  -45.6449 H         1 UNK         0.0600 
    161 H161        0.4176  -13.7415  -43.6814 H         1 UNK         0.0600 
    162 H162       -0.4103  -13.9893  -45.2026 H         1 UNK         0.0600 
    163 H163        1.2962  -13.5909  -45.2099 H         1 UNK         0.0600 
    164 H164        2.3453  -15.1030  -43.1786 H         1 UNK         0.3000 
    165 H165        3.9945  -18.2091  -42.4449 H         1 UNK         0.0600 
    166 H166        5.8870  -16.5837  -42.3187 H         1 UNK         0.0600 
    167 H167        5.4877  -16.9778  -43.9807 H         1 UNK         0.0600 
    168 H168        4.9843  -15.4350  -43.3044 H         1 UNK         0.0600 
    169 H169        3.8107  -15.6940  -41.0731 H         1 UNK         0.3000 
    170 H170        0.9017  -16.3564  -39.1964 H         1 UNK         0.0600 
    171 H171        2.4946  -17.8406  -37.9714 H         1 UNK         0.0600 
    172 H172        3.7807  -16.6592  -38.1866 H         1 UNK         0.0600 
    173 H173        2.3705  -16.2673  -37.2013 H         1 UNK         0.0600 
    174 H174        2.9618  -14.4232  -38.8647 H         1 UNK         0.3000 
    175 H175        1.3482  -11.9538  -39.7573 H         1 UNK         0.0600 
    176 H176        4.2648  -12.8451  -40.0924 H         1 UNK         0.0600 
    177 H177        3.7520  -11.2212  -39.6528 H         1 UNK         0.0600 
    178 H178        3.4237  -12.5530  -38.5678 H         1 UNK         0.0600 
    179 H179        1.6188  -11.0123  -41.7324 H         1 UNK         0.3000 
    180 H180        1.6880  -11.3896  -44.3053 H         1 UNK         0.0600 
    181 H181        4.0818   -9.8485  -43.1783 H         1 UNK         0.0600 
    182 H182        2.3794   -9.4729  -42.9652 H         1 UNK         0.0600 
    183 H183        3.1129   -9.3059  -44.5465 H         1 UNK         0.0600 
    184 H184        2.9692  -12.1404  -45.9349 H         1 UNK         0.3000 
    185 H185        5.4371  -11.7433  -47.2263 H         1 UNK         0.0600 
    186 H186        7.5143  -12.4106  -46.0286 H         1 UNK         0.0600 
    187 H187        6.8327  -13.9954  -45.6768 H         1 UNK         0.0600 
    188 H188        7.1948  -13.5307  -47.3382 H         1 UNK         0.0600 
    189 H189        3.9794  -14.1399  -46.3928 H         1 UNK         0.3000 
    190 H190       -2.3177  -21.4860  -45.8610 H         1 UNK         0.3000 
    191 H191       -4.7026  -23.2024  -46.4572 H         1 UNK         0.0600 
    192 H192       -2.6535  -23.4643  -44.1924 H         1 UNK         0.0600 
    193 H193       -3.9298  -24.6158  -44.5674 H         1 UNK         0.0600 
    194 H194       -4.3413  -22.9974  -44.0209 H         1 UNK         0.0600 
    195 H195       -1.1238  -23.2713  -46.0097 H         1 UNK         0.3000 
    196 H196       -0.8003  -25.7903  -47.2595 H         1 UNK         0.0600 
    197 H197        1.6418  -25.2755  -46.9908 H         1 UNK         0.0600 
    198 H198        0.7236  -24.9738  -45.5242 H         1 UNK         0.0600 
    199 H199        1.2402  -23.6250  -46.5285 H         1 UNK         0.0600 
    200 H200        0.4687  -22.6281  -48.4421 H         1 UNK         0.3000 
    201 H201        1.1976  -23.6511  -51.0241 H         1 UNK         0.0600 
    202 H202        2.3906  -21.7508  -49.9608 H         1 UNK         0.0600 
    203 H203        0.9317  -20.7647  -50.0201 H         1 UNK         0.0600 
    204 H204        1.7198  -21.2608  -51.5088 H         1 UNK         0.0600 
    205 H205       -1.6493  -22.0661  -49.7382 H         1 UNK         0.3000 
    206 H206       -3.0866  -21.6054  -52.1637 H         1 UNK         0.0600 
    207 H207       -3.6719  -20.5377  -50.0043 H         1 UNK         0.0600 
    208 H208       -5.0425  -21.4926  -50.5368 H         1 UNK         0.0600 
    209 H209       -3.9936  -22.1155  -49.2840 H         1 UNK         0.0600 
    210 H210       -2.2972  -24.5790  -50.6042 H         1 UNK         0.3000 
    211 H211       -2.8734  -26.6976  -50.7818 H         1 UNK         0.0600 
    212 H212       -4.0726  -25.9297  -53.5026 H         1 UNK         0.0600 
    213 H213       -3.6268  -27.5491  -52.9856 H         1 UNK         0.0600 
    214 H214       -2.3833  -26.3275  -53.2032 H         1 UNK         0.0600 
    215 H215       -4.4212  -25.4514  -49.0576 H         1 UNK         0.3000 
    216 H216       -6.3111  -25.3500  -47.9192 H         1 UNK         0.0600 
    217 H217       -7.8357  -27.2837  -47.9040 H         1 UNK         0.0600 
    218 H218       -6.1781  -27.8509  -48.0172 H         1 UNK         0.0600 
    219 H219       -7.2114  -27.8509  -49.4459 H         1 UNK         0.0600 
    220 H220       -6.1011  -23.7807  -50.2064 H         1 UNK         0.3000 
    221 H221       -7.1248  -22.2186  -51.3519 H         1 UNK         0.0600 
    222 H222       -9.7947  -23.0013  -50.0900 H         1 UNK         0.0600 
    223 H223       -8.6215  -21.8985  -49.3689 H         1 UNK         0.0600 
    224 H224       -9.4022  -21.4855  -50.8852 H         1 UNK         0.0600 
    225 H225       -7.0185  -25.1707  -52.2916 H         1 UNK         0.3000 
    226 H226       -8.9806  -25.2369  -54.4407 H         1 UNK         0.0600 
    227 H227       -7.9607  -27.3177  -53.4745 H         1 UNK         0.0600 
    228 H228       -7.7143  -27.1918  -55.2104 H         1 UNK         0.0600 
    229 H229       -6.3895  -26.8340  -54.1137 H         1 UNK         0.0600 
    230 H230       -5.6270  -24.1162  -54.0255 H         1 UNK         0.3000 
    231 H231       -5.4924  -23.1519  -56.8518 H         1 UNK         0.0600 
    232 H232       -3.5416  -24.4674  -56.0327 H         1 UNK         0.0600 
    233 H233       -3.3178  -23.3446  -54.6955 H         1 UNK         0.0600 
    234 H234       -3.0940  -22.7991  -56.3520 H         1 UNK         0.0600 
    235 H235       -5.3185  -22.1566  -53.4490 H         1 UNK         0.3000 
    236 H236       -5.6213  -20.2661  -52.3204 H         1 UNK         0.0600 
    237 H237       -7.3988  -19.4226  -54.6595 H         1 UNK         0.0600 
    238 H238       -7.8880  -20.4996  -53.3539 H         1 UNK         0.0600 
    239 H239       -7.4912  -18.8274  -53.0074 H         1 UNK         0.0600 
    240 H240       -3.4300  -20.2184  -54.5029 H         1 UNK         0.3000 
    241 H241       -1.8926  -18.9095  -55.3813 H         1 UNK         0.0600 
    242 H242       -4.6790  -18.9206  -56.5533 H         1 UNK         0.3800 
    243 H243       -4.6493  -17.5204  -57.5982 H         1 UNK         0.3800 
    244 H244       -2.6512  -16.9174  -53.1850 H         1 UNK         0.0800 
    245 H245       -1.4188  -16.5644  -54.3564 H         1 UNK         0.0800 
    246 H246       -0.9822  -19.5699  -50.9290 H         1 UNK         0.0800 
    247 H247       -2.5017  -19.2810  -51.7311 H         1 UNK         0.0800 
@<TRIPOS>BOND
     1    1    2 1    
     2    1  127 1    
     3    1  128 1    
     4    1  129 1    
     5    2    3 2    
     6    2    4 am   BACKBONE|DICT|INTERRES
     7    4    5 1    
     8    4  130 1    
     9    5    6 1    
    10    5   65 1    
    11    5  131 1    
    12    6    7 1    
    13    6  132 1    
    14    6  133 1    
    15    7    8 1    
    16    8    9 1    
    17    8  134 1    
    18    8  135 1    
    19    9   10 ar   
    20    9   14 ar   
    21   10   11 ar   
    22   10  136 1    
    23   11   12 ar   
    24   11  126 1    
    25   12   13 ar   
    26   12  137 1    
    27   13   14 ar   
    28   13   15 1    
    29   14  138 1    
    30   15   16 1    
    31   15  139 1    
    32   15  140 1    
    33   16   17 1    
    34   17   18 1    
    35   17  141 1    
    36   17  142 1    
    37   18   19 1    
    38   18   67 1    
    39   18  143 1    
    40   19   20 am   BACKBONE|DICT|INTERRES
    41   19  144 1    
    42   20   21 2    
    43   20   22 1    
    44   22   23 1    
    45   22   24 1    
    46   22  145 1    
    47   23  146 1    
    48   23  147 1    
    49   23  148 1    
    50   24   25 am   BACKBONE|DICT|INTERRES
    51   24  149 1    
    52   25   26 2    
    53   25   27 1    
    54   27   28 1    
    55   27   29 1    
    56   27  150 1    
    57   28  151 1    
    58   28  152 1    
    59   28  153 1    
    60   29   30 am   BACKBONE|DICT|INTERRES
    61   29  154 1    
    62   30   31 2    
    63   30   32 1    
    64   32   33 1    
    65   32   34 1    
    66   32  155 1    
    67   33  156 1    
    68   33  157 1    
    69   33  158 1    
    70   34   35 am   BACKBONE|DICT|INTERRES
    71   34  159 1    
    72   35   36 2    
    73   35   37 1    
    74   37   38 1    
    75   37   39 1    
    76   37  160 1    
    77   38  161 1    
    78   38  162 1    
    79   38  163 1    
    80   39   40 am   BACKBONE|DICT|INTERRES
    81   39  164 1    
    82   40   41 2    
    83   40   42 1    
    84   42   43 1    
    85   42   44 1    
    86   42  165 1    
    87   43  166 1    
    88   43  167 1    
    89   43  168 1    
    90   44   45 am   BACKBONE|DICT|INTERRES
    91   44  169 1    
    92   45   46 2    
    93   45   47 1    
    94   47   48 1    
    95   47   49 1    
    96   47  170 1    
    97   48  171 1    
    98   48  172 1    
    99   48  173 1    
   100   49   50 am   BACKBONE|DICT|INTERRES
   101   49  174 1    
   102   50   51 2    
   103   50   52 1    
   104   52   53 1    
   105   52   54 1    
   106   52  175 1    
   107   53  176 1    
   108   53  177 1    
   109   53  178 1    
   110   54   55 am   BACKBONE|DICT|INTERRES
   111   54  179 1    
   112   55   56 2    
   113   55   57 1    
   114   57   58 1    
   115   57   59 1    
   116   57  180 1    
   117   58  181 1    
   118   58  182 1    
   119   58  183 1    
   120   59   60 am   BACKBONE|DICT|INTERRES
   121   59  184 1    
   122   60   61 2    
   123   60   62 1    
   124   62   63 1    
   125   62   64 1    
   126   62  185 1    
   127   63  186 1    
   128   63  187 1    
   129   63  188 1    
   130   64   65 am   BACKBONE|DICT|INTERRES
   131   64  189 1    
   132   65   66 2    
   133   67   68 2    
   134   67   69 am   BACKBONE|DICT|INTERRES
   135   69   70 1    
   136   69  190 1    
   137   70   71 1    
   138   70   72 1    
   139   70  191 1    
   140   71  192 1    
   141   71  193 1    
   142   71  194 1    
   143   72   73 2    
   144   72   74 am   BACKBONE|DICT|INTERRES
   145   74   75 1    
   146   74  195 1    
   147   75   76 1    
   148   75   77 1    
   149   75  196 1    
   150   76  197 1    
   151   76  198 1    
   152   76  199 1    
   153   77   78 2    
   154   77   79 am   BACKBONE|DICT|INTERRES
   155   79   80 1    
   156   79  200 1    
   157   80   81 1    
   158   80   82 1    
   159   80  201 1    
   160   81  202 1    
   161   81  203 1    
   162   81  204 1    
   163   82   83 2    
   164   82   84 am   BACKBONE|DICT|INTERRES
   165   84   85 1    
   166   84  205 1    
   167   85   86 1    
   168   85   87 1    
   169   85  206 1    
   170   86  207 1    
   171   86  208 1    
   172   86  209 1    
   173   87   88 2    
   174   87   89 am   BACKBONE|DICT|INTERRES
   175   89   90 1    
   176   89  210 1    
   177   90   91 1    
   178   90   92 1    
   179   90  211 1    
   180   91  212 1    
   181   91  213 1    
   182   91  214 1    
   183   92   93 2    
   184   92   94 am   BACKBONE|DICT|INTERRES
   185   94   95 1    
   186   94  215 1    
   187   95   96 1    
   188   95   97 1    
   189   95  216 1    
   190   96  217 1    
   191   96  218 1    
   192   96  219 1    
   193   97   98 2    
   194   97   99 am   BACKBONE|DICT|INTERRES
   195   99  100 1    
   196   99  220 1    
   197  100  101 1    
   198  100  102 1    
   199  100  221 1    
   200  101  222 1    
   201  101  223 1    
   202  101  224 1    
   203  102  103 2    
   204  102  104 am   BACKBONE|DICT|INTERRES
   205  104  105 1    
   206  104  225 1    
   207  105  106 1    
   208  105  107 1    
   209  105  226 1    
   210  106  227 1    
   211  106  228 1    
   212  106  229 1    
   213  107  108 2    
   214  107  109 am   BACKBONE|DICT|INTERRES
   215  109  110 1    
   216  109  230 1    
   217  110  111 1    
   218  110  112 1    
   219  110  231 1    
   220  111  232 1    
   221  111  233 1    
   222  111  234 1    
   223  112  113 2    
   224  112  114 am   BACKBONE|DICT|INTERRES
   225  114  115 1    
   226  114  235 1    
   227  115  116 1    
   228  115  117 1    
   229  115  236 1    
   230  116  237 1    
   231  116  238 1    
   232  116  239 1    
   233  117  118 2    
   234  117  119 am   BACKBONE|DICT|INTERRES
   235  119  120 1    
   236  119  240 1    
   237  120  121 1    
   238  120  124 1    
   239  120  241 1    
   240  121  122 am   BACKBONE|DICT|INTERRES
   241  121  123 2    
   242  122  242 1    
   243  122  243 1    
   244  124  125 1    
   245  124  244 1    
   246  124  245 1    
   247  125  126 1    
   248  126  246 1    
   249  126  247 1    
@<TRIPOS>SUBSTRUCTURE
     1 UNK         1 GROUP             0       ****    0 ROOT    
