@<TRIPOS>MOLECULE
3R540
247   249    1
SMALL
USER_CHARGES


@<TRIPOS>ATOM
      1 CA          6.3552  -11.0425  -47.2531 C.3       0 UNK        -0.1800 
      2 C           5.1024  -11.5866  -46.5838 C.2       0 UNK         0.5000 
      3 O           5.0314  -11.6151  -45.3555 O.2       0 UNK        -0.5000 
      4 N           4.1095  -11.9984  -47.3843 N.am      1 UNK        -0.5000 
      5 CA          2.8394  -12.6083  -46.9595 C.3       1 UNK         0.1400 
      6 C6          1.9507  -12.9748  -48.1738 C.3       23 UNK        -0.0398 
      7 S7          2.6999  -14.2225  -49.2781 S.3       23 UNK        -0.2404 
      8 C8          1.7628  -15.6909  -48.7603 C.3       23 UNK        -0.0205 
      9 C9          1.9495  -16.8780  -49.6894 C.ar      23 UNK        -0.0193 
     10 C10         1.3322  -16.8881  -50.9437 C.ar      23 UNK        -0.1150 
     11 C11         1.4283  -18.0080  -51.7756 C.ar      23 UNK        -0.0193 
     12 C12         2.1656  -19.1160  -51.3471 C.ar      23 UNK        -0.1150 
     13 C13         2.7944  -19.1149  -50.0987 C.ar      23 UNK        -0.0193 
     14 C14         2.6843  -17.9921  -49.2737 C.ar      23 UNK        -0.1150 
     15 C15         3.5921  -20.3290  -49.6466 C.3       23 UNK        -0.0205 
     16 S16         2.5162  -21.7363  -49.2283 S.3       23 UNK        -0.2404 
     17 C17         1.7316  -21.1425  -47.6926 C.3       23 UNK        -0.0398 
     18 CA          0.7560  -22.1812  -47.0891 C.3       11 UNK         0.1400 
     19 N           0.5073  -21.9425  -45.6661 N.am      11 UNK        -0.5000 
     20 C          -0.1422  -22.7851  -44.8507 C.2       10 UNK         0.5000 
     21 O          -0.5840  -23.8774  -45.2064 O.2       10 UNK        -0.5000 
     22 CA         -0.3785  -22.3101  -43.4059 C.3       10 UNK         0.1400 
     23 CB          0.8959  -22.4606  -42.5622 C.3       10 UNK        -0.1800 
     24 N          -0.8585  -20.9292  -43.3385 N.am      10 UNK        -0.5000 
     25 C          -2.0252  -20.5104  -43.8504 C.2       9 UNK         0.5000 
     26 O          -2.8356  -21.2533  -44.4048 O.2       9 UNK        -0.5000 
     27 CA         -2.3184  -19.0017  -43.7691 C.3       9 UNK         0.1400 
     28 CB         -2.8070  -18.6137  -42.3657 C.3       9 UNK        -0.1800 
     29 N          -1.1644  -18.1793  -44.1320 N.am      9 UNK        -0.5000 
     30 C          -0.5700  -18.1876  -45.3340 C.2       8 UNK         0.5000 
     31 O          -0.9436  -18.8741  -46.2839 O.2       8 UNK        -0.5000 
     32 CA          0.6945  -17.3271  -45.4822 C.3       8 UNK         0.1400 
     33 CB          0.3326  -15.8361  -45.5790 C.3       8 UNK        -0.1800 
     34 N           1.6397  -17.5383  -44.3873 N.am      8 UNK        -0.5000 
     35 C           2.2032  -18.7147  -44.0758 C.2       7 UNK         0.5000 
     36 O           2.0361  -19.7478  -44.7210 O.2       7 UNK        -0.5000 
     37 CA          3.0543  -18.7578  -42.7975 C.3       7 UNK         0.1400 
     38 CB          4.4844  -18.2756  -43.0781 C.3       7 UNK        -0.1800 
     39 N           2.4575  -17.9623  -41.7251 N.am      7 UNK        -0.5000 
     40 C           1.3260  -18.2917  -41.0850 C.2       6 UNK         0.5000 
     41 O           0.6902  -19.3231  -41.3047 O.2       6 UNK        -0.5000 
     42 CA          0.7962  -17.2732  -40.0595 C.3       6 UNK         0.1400 
     43 CB          1.5312  -17.4170  -38.7185 C.3       6 UNK        -0.1800 
     44 N           0.9138  -15.8935  -40.5353 N.am      6 UNK        -0.5000 
     45 C           0.2100  -15.3892  -41.5585 C.2       5 UNK         0.5000 
     46 O          -0.6436  -16.0261  -42.1758 O.2       5 UNK        -0.5000 
     47 CA          0.5423  -13.9480  -41.9898 C.3       5 UNK         0.1400 
     48 CB         -0.2998  -12.9353  -41.2008 C.3       5 UNK        -0.1800 
     49 N           1.9594  -13.6001  -41.8591 N.am      5 UNK        -0.5000 
     50 C           2.9653  -14.1974  -42.5112 C.2       4 UNK         0.5000 
     51 O           2.8119  -15.1803  -43.2375 O.2       4 UNK        -0.5000 
     52 CA          4.3656  -13.5833  -42.3180 C.3       4 UNK         0.1400 
     53 CB          5.4456  -14.2817  -43.1627 C.3       4 UNK        -0.1800 
     54 N           4.3644  -12.1622  -42.6555 N.am      4 UNK        -0.5000 
     55 C           4.0321  -11.1635  -41.8290 C.2       3 UNK         0.5000 
     56 O           3.6530  -11.3354  -40.6699 O.2       3 UNK        -0.5000 
     57 CA          4.0964   -9.7456  -42.4140 C.3       3 UNK         0.1400 
     58 CB          5.5526   -9.3021  -42.6292 C.3       3 UNK        -0.1800 
     59 N           3.3768   -9.6865  -43.6840 N.am      3 UNK        -0.5000 
     60 C           2.0755   -9.3913  -43.8040 C.2       2 UNK         0.5000 
     61 O           1.3524   -9.0848  -42.8554 O.2       2 UNK        -0.5000 
     62 CA          1.4759   -9.4401  -45.2227 C.3       2 UNK         0.1400 
     63 CB          1.5377   -8.0527  -45.8798 C.3       2 UNK        -0.1800 
     64 N           2.1394  -10.4099  -46.0951 N.am      2 UNK        -0.5000 
     65 C           2.0242  -11.7400  -45.9748 C.2       1 UNK         0.5000 
     66 O           1.3119  -12.2876  -45.1338 O.2       1 UNK        -0.5000 
     67 C          -0.5586  -22.2709  -47.8900 C.2       11 UNK         0.5000 
     68 O          -0.7242  -23.2062  -48.6717 O.2       11 UNK        -0.5000 
     69 N          -1.4891  -21.3373  -47.6425 N.am      12 UNK        -0.5000 
     70 CA         -2.8207  -21.3082  -48.2480 C.3       12 UNK         0.1400 
     71 CB         -3.5544  -20.0310  -47.8124 C.3       12 UNK        -0.1800 
     72 C          -3.6580  -22.5577  -47.9224 C.2       12 UNK         0.5000 
     73 O          -4.3132  -23.0958  -48.8159 O.2       12 UNK        -0.5000 
     74 N          -3.5948  -23.0167  -46.6651 N.am      13 UNK        -0.5000 
     75 CA         -4.2331  -24.2486  -46.2053 C.3       13 UNK         0.1400 
     76 CB         -4.1720  -24.3224  -44.6721 C.3       13 UNK        -0.1800 
     77 C          -3.6151  -25.5059  -46.8434 C.2       13 UNK         0.5000 
     78 O          -4.3568  -26.3729  -47.3060 O.2       13 UNK        -0.5000 
     79 N          -2.2764  -25.5721  -46.8802 N.am      14 UNK        -0.5000 
     80 CA         -1.5110  -26.6805  -47.4558 C.3       14 UNK         0.1400 
     81 CB         -0.0257  -26.5187  -47.0976 C.3       14 UNK        -0.1800 
     82 C          -1.6893  -26.8159  -48.9791 C.2       14 UNK         0.5000 
     83 O          -1.8391  -27.9323  -49.4771 O.2       14 UNK        -0.5000 
     84 N          -1.6861  -25.6795  -49.6872 N.am      15 UNK        -0.5000 
     85 CA         -1.8844  -25.5986  -51.1355 C.3       15 UNK         0.1400 
     86 CB         -1.3444  -24.2501  -51.6298 C.3       15 UNK        -0.1800 
     87 C          -3.3549  -25.7650  -51.5647 C.2       15 UNK         0.5000 
     88 O          -3.6067  -26.0036  -52.7459 O.2       15 UNK        -0.5000 
     89 N          -4.2860  -25.6240  -50.6094 N.am      16 UNK        -0.5000 
     90 CA         -5.7405  -25.6175  -50.7730 C.3       16 UNK         0.1400 
     91 CB         -6.2588  -26.9794  -51.2804 C.3       16 UNK        -0.1800 
     92 C          -6.2044  -24.4290  -51.6360 C.2       16 UNK         0.5000 
     93 O          -6.9184  -24.6093  -52.6241 O.2       16 UNK        -0.5000 
     94 N          -5.8033  -23.2174  -51.2275 N.am      17 UNK        -0.5000 
     95 CA         -6.0795  -21.9360  -51.8915 C.3       17 UNK         0.1400 
     96 CB         -5.2138  -20.8470  -51.2420 C.3       17 UNK        -0.1800 
     97 C          -7.5681  -21.5167  -51.9272 C.2       17 UNK         0.5000 
     98 O          -7.8931  -20.4783  -52.5025 O.2       17 UNK        -0.5000 
     99 N          -8.4539  -22.3231  -51.3284 N.am      18 UNK        -0.5000 
    100 CA        -9.9011  -22.2550  -51.5260 C.3       18 UNK         0.1400 
    101 CB       -10.5935  -23.0420  -50.4029 C.3       18 UNK        -0.1800 
    102 C        -10.3285  -22.7971  -52.9077 C.2       18 UNK         0.5000 
    103 O        -11.3653  -22.3752  -53.4215 O.2       18 UNK        -0.5000 
    104 N         -9.5338  -23.7159  -53.4760 N.am      19 UNK        -0.5000 
    105 CA        -9.7447  -24.3257  -54.7886 C.3       19 UNK         0.1400 
    106 CB        -9.7677  -25.8551  -54.6342 C.3       19 UNK        -0.1800 
    107 C         -8.6480  -23.8983  -55.7784 C.2       19 UNK         0.5000 
    108 O         -8.9618  -23.5669  -56.9229 O.2       19 UNK        -0.5000 
    109 N         -7.3863  -23.9034  -55.3268 N.am      20 UNK        -0.5000 
    110 CA        -6.2257  -23.4249  -56.0785 C.3       20 UNK         0.1400 
    111 CB        -4.9515  -23.9862  -55.4254 C.3       20 UNK        -0.1800 
    112 C         -6.1782  -21.8856  -56.1301 C.2       20 UNK         0.5000 
    113 O         -6.8387  -21.2196  -55.3319 O.2       20 UNK        -0.5000 
    114 N         -5.3764  -21.3398  -57.0538 N.am      21 UNK        -0.5000 
    115 CA        -5.1697  -19.8948  -57.2073 C.3       21 UNK         0.1400 
    116 CB        -4.4339  -19.6272  -58.5293 C.3       21 UNK        -0.1800 
    117 C         -4.4068  -19.2609  -56.0257 C.2       21 UNK         0.5000 
    118 O         -4.6725  -18.1111  -55.6742 O.2       21 UNK        -0.5000 
    119 N         -3.4858  -20.0286  -55.4359 N.am      22 UNK        -0.5000 
    120 CA        -2.6789  -19.7008  -54.2570 C.3       22 UNK         0.1400 
    121 C         -2.0325  -20.9987  -53.6932 C.2       22 UNK         0.5000 
    122 N         -1.3992  -20.9355  -52.5310 N.am      22 UNK        -0.7600 
    123 O         -2.0974  -22.0658  -54.3009 O.2       22 UNK        -0.5000 
    124 C124       -1.6469  -18.5697  -54.5377 C.3       23 UNK        -0.0398 
    125 S125       -1.0525  -17.7527  -53.0144 S.3       23 UNK        -0.2404 
    126 C126        0.7464  -18.0270  -53.1375 C.3       23 UNK        -0.0205 
    127 H127        6.5277  -10.0121  -46.9427 H         1 UNK         0.0600 
    128 H128        6.2764  -11.0631  -48.3402 H         1 UNK         0.0600 
    129 H129        7.2214  -11.6367  -46.9627 H         1 UNK         0.0600 
    130 H130        4.2427  -11.9508  -48.3847 H         1 UNK         0.3000 
    131 H131        3.0907  -13.5285  -46.4273 H         1 UNK         0.0600 
    132 H132        0.9759  -13.3367  -47.8408 H         1 UNK         0.0800 
    133 H133        1.7423  -12.0844  -48.7698 H         1 UNK         0.0800 
    134 H134        0.6986  -15.4571  -48.7110 H         1 UNK         0.0800 
    135 H135        2.0816  -15.9484  -47.7517 H         1 UNK         0.0800 
    136 H136        0.7587  -16.0297  -51.2648 H         1 UNK         0.1150 
    137 H137        2.2477  -19.9881  -51.9807 H         1 UNK         0.1150 
    138 H138        3.1580  -17.9922  -48.3019 H         1 UNK         0.1150 
    139 H139        4.2683  -20.6295  -50.4482 H         1 UNK         0.0800 
    140 H140        4.2235  -20.0861  -48.7905 H         1 UNK         0.0800 
    141 H141        1.2338  -20.1870  -47.8682 H         1 UNK         0.0800 
    142 H142        2.5387  -20.9404  -46.9881 H         1 UNK         0.0800 
    143 H143        1.2354  -23.1609  -47.1488 H         1 UNK         0.0600 
    144 H144        0.8737  -21.0734  -45.2839 H         1 UNK         0.3000 
    145 H145       -1.1488  -22.9497  -42.9701 H         1 UNK         0.0600 
    146 H146        0.7122  -22.1958  -41.5208 H         1 UNK         0.0600 
    147 H147        1.2548  -23.4904  -42.5781 H         1 UNK         0.0600 
    148 H148        1.7019  -21.8262  -42.9308 H         1 UNK         0.0600 
    149 H149       -0.2613  -20.2606  -42.8632 H         1 UNK         0.3000 
    150 H150       -3.1177  -18.7813  -44.4793 H         1 UNK         0.0600 
    151 H151       -3.6753  -19.2068  -42.0758 H         1 UNK         0.0600 
    152 H152       -3.1018  -17.5648  -42.3281 H         1 UNK         0.0600 
    153 H153       -2.0346  -18.7695  -41.6119 H         1 UNK         0.0600 
    154 H154       -0.8096  -17.5537  -43.4146 H         1 UNK         0.3000 
    155 H155        1.1924  -17.6284  -46.4052 H         1 UNK         0.0600 
    156 H156       -0.2824  -15.6414  -46.4578 H         1 UNK         0.0600 
    157 H157        1.2226  -15.2113  -45.6519 H         1 UNK         0.0600 
    158 H158       -0.2339  -15.4983  -44.7131 H         1 UNK         0.0600 
    159 H159        1.8906  -16.7217  -43.8358 H         1 UNK         0.3000 
    160 H160        3.1074  -19.7952  -42.4607 H         1 UNK         0.0600 
    161 H161        4.4944  -17.2714  -43.4999 H         1 UNK         0.0600 
    162 H162        4.9788  -18.9322  -43.7950 H         1 UNK         0.0600 
    163 H163        5.0886  -18.2696  -42.1709 H         1 UNK         0.0600 
    164 H164        2.8848  -17.0694  -41.5302 H         1 UNK         0.3000 
    165 H165       -0.2617  -17.4880  -39.8931 H         1 UNK         0.0600 
    166 H166        1.1099  -16.7511  -37.9652 H         1 UNK         0.0600 
    167 H167        1.4463  -18.4348  -38.3352 H         1 UNK         0.0600 
    168 H168        2.5937  -17.1889  -38.8123 H         1 UNK         0.0600 
    169 H169        1.5944  -15.3035  -40.0799 H         1 UNK         0.3000 
    170 H170        0.2806  -13.8536  -43.0451 H         1 UNK         0.0600 
    171 H171       -1.3644  -13.1524  -41.2981 H         1 UNK         0.0600 
    172 H172       -0.0560  -12.9497  -40.1378 H         1 UNK         0.0600 
    173 H173       -0.1407  -11.9212  -41.5688 H         1 UNK         0.0600 
    174 H174        2.1837  -12.7953  -41.2864 H         1 UNK         0.3000 
    175 H175        4.6353  -13.7050  -41.2671 H         1 UNK         0.0600 
    176 H176        5.1977  -14.2705  -44.2251 H         1 UNK         0.0600 
    177 H177        6.4147  -13.7974  -43.0421 H         1 UNK         0.0600 
    178 H178        5.5670  -15.3208  -42.8586 H         1 UNK         0.0600 
    179 H179        4.6211  -11.9371  -43.6150 H         1 UNK         0.3000 
    180 H180        3.6414   -9.0603  -41.6955 H         1 UNK         0.0600 
    181 H181        6.0703   -9.9349  -43.3511 H         1 UNK         0.0600 
    182 H182        6.1141   -9.3423  -41.6950 H         1 UNK         0.0600 
    183 H183        5.5996   -8.2755  -42.9926 H         1 UNK         0.0600 
    184 H184        3.8819  -10.0002  -44.5031 H         1 UNK         0.3000 
    185 H185        0.4259   -9.7255  -45.1279 H         1 UNK         0.0600 
    186 H186        1.0290   -7.3075  -45.2668 H         1 UNK         0.0600 
    187 H187        2.5664   -7.7175  -46.0177 H         1 UNK         0.0600 
    188 H188        1.0510   -8.0559  -46.8553 H         1 UNK         0.0600 
    189 H189        2.7454  -10.0408  -46.8134 H         1 UNK         0.3000 
    190 H190       -1.2702  -20.5763  -47.0035 H         1 UNK         0.3000 
    191 H191       -2.6878  -21.2750  -49.3308 H         1 UNK         0.0600 
    192 H192       -3.6289  -19.9616  -46.7271 H         1 UNK         0.0600 
    193 H193       -4.5687  -19.9975  -48.2088 H         1 UNK         0.0600 
    194 H194       -3.0361  -19.1405  -48.1686 H         1 UNK         0.0600 
    195 H195       -3.0734  -22.4865  -45.9736 H         1 UNK         0.3000 
    196 H196       -5.2844  -24.2101  -46.4984 H         1 UNK         0.0600 
    197 H197       -4.6531  -25.2296  -44.3046 H         1 UNK         0.0600 
    198 H198       -4.6850  -23.4747  -44.2174 H         1 UNK         0.0600 
    199 H199       -3.1445  -24.3236  -44.3075 H         1 UNK         0.0600 
    200 H200       -1.7364  -24.8287  -46.4452 H         1 UNK         0.3000 
    201 H201       -1.8696  -27.6047  -46.9981 H         1 UNK         0.0600 
    202 H202        0.1207  -26.5165  -46.0173 H         1 UNK         0.0600 
    203 H203        0.3837  -25.5880  -47.4919 H         1 UNK         0.0600 
    204 H204        0.5673  -27.3385  -47.5047 H         1 UNK         0.0600 
    205 H205       -1.4944  -24.8007  -49.2091 H         1 UNK         0.3000 
    206 H206       -1.3073  -26.3937  -51.6119 H         1 UNK         0.0600 
    207 H207       -0.2962  -24.1185  -51.3603 H         1 UNK         0.0600 
    208 H208       -1.4141  -24.1779  -52.7157 H         1 UNK         0.0600 
    209 H209       -1.9108  -23.4205  -51.2046 H         1 UNK         0.0600 
    210 H210       -3.9578  -25.4035  -49.6785 H         1 UNK         0.3000 
    211 H211       -6.1573  -25.4591  -49.7772 H         1 UNK         0.0600 
    212 H212       -5.9299  -27.1906  -52.2982 H         1 UNK         0.0600 
    213 H213       -7.3491  -27.0026  -51.2819 H         1 UNK         0.0600 
    214 H214       -5.9167  -27.7931  -50.6410 H         1 UNK         0.0600 
    215 H215       -5.2350  -23.1671  -50.3830 H         1 UNK         0.3000 
    216 H216       -5.7616  -22.0338  -52.9300 H         1 UNK         0.0600 
    217 H217       -5.3222  -19.8940  -51.7612 H         1 UNK         0.0600 
    218 H218       -4.1575  -21.1132  -51.2722 H         1 UNK         0.0600 
    219 H219       -5.4967  -20.6904  -50.2020 H         1 UNK         0.0600 
    220 H220       -8.0998  -23.1355  -50.8469 H         1 UNK         0.3000 
    221 H221      -10.2183  -21.2121  -51.4606 H         1 UNK         0.0600 
    222 H222      -10.3107  -24.0955  -50.4149 H         1 UNK         0.0600 
    223 H223      -10.3404  -22.6367  -49.4231 H         1 UNK         0.0600 
    224 H224      -11.6785  -22.9923  -50.5039 H         1 UNK         0.0600 
    225 H225       -8.6780  -23.9833  -52.9997 H         1 UNK         0.3000 
    226 H226      -10.7045  -24.0151  -55.2064 H         1 UNK         0.0600 
    227 H227      -10.5841  -26.1710  -53.9847 H         1 UNK         0.0600 
    228 H228       -9.9111  -26.3435  -55.5988 H         1 UNK         0.0600 
    229 H229       -8.8371  -26.2329  -54.2080 H         1 UNK         0.0600 
    230 H230       -7.2090  -24.1837  -54.3656 H         1 UNK         0.3000 
    231 H231       -6.2908  -23.8037  -57.1005 H         1 UNK         0.0600 
    232 H232       -4.9795  -25.0749  -55.3758 H         1 UNK         0.0600 
    233 H233       -4.8153  -23.6144  -54.4097 H         1 UNK         0.0600 
    234 H234       -4.0614  -23.7118  -55.9925 H         1 UNK         0.0600 
    235 H235       -4.8620  -21.9410  -57.6815 H         1 UNK         0.3000 
    236 H236       -6.1496  -19.4155  -57.2618 H         1 UNK         0.0600 
    237 H237       -4.2848  -18.5576  -58.6831 H         1 UNK         0.0600 
    238 H238       -3.4517  -20.1012  -58.5475 H         1 UNK         0.0600 
    239 H239       -5.0035  -20.0000  -59.3807 H         1 UNK         0.0600 
    240 H240       -3.3489  -20.9759  -55.7646 H         1 UNK         0.3000 
    241 H241       -3.3823  -19.3557  -53.4971 H         1 UNK         0.0600 
    242 H242       -0.9654  -21.7667  -52.1653 H         1 UNK         0.3800 
    243 H243       -1.2949  -20.0561  -52.0475 H         1 UNK         0.3800 
    244 H244       -0.8144  -18.9485  -55.1322 H         1 UNK         0.0800 
    245 H245       -2.0979  -17.7836  -55.1430 H         1 UNK         0.0800 
    246 H246        1.1853  -17.2569  -53.7731 H         1 UNK         0.0800 
    247 H247        0.9354  -18.9817  -53.6307 H         1 UNK         0.0800 
@<TRIPOS>BOND
     1    1    2 1    
     2    1  127 1    
     3    1  128 1    
     4    1  129 1    
     5    2    3 2    
     6    2    4 am   BACKBONE|DICT|INTERRES
     7    4    5 1    
     8    4  130 1    
     9    5    6 1    
    10    5   65 1    
    11    5  131 1    
    12    6    7 1    
    13    6  132 1    
    14    6  133 1    
    15    7    8 1    
    16    8    9 1    
    17    8  134 1    
    18    8  135 1    
    19    9   10 ar   
    20    9   14 ar   
    21   10   11 ar   
    22   10  136 1    
    23   11   12 ar   
    24   11  126 1    
    25   12   13 ar   
    26   12  137 1    
    27   13   14 ar   
    28   13   15 1    
    29   14  138 1    
    30   15   16 1    
    31   15  139 1    
    32   15  140 1    
    33   16   17 1    
    34   17   18 1    
    35   17  141 1    
    36   17  142 1    
    37   18   19 1    
    38   18   67 1    
    39   18  143 1    
    40   19   20 am   BACKBONE|DICT|INTERRES
    41   19  144 1    
    42   20   21 2    
    43   20   22 1    
    44   22   23 1    
    45   22   24 1    
    46   22  145 1    
    47   23  146 1    
    48   23  147 1    
    49   23  148 1    
    50   24   25 am   BACKBONE|DICT|INTERRES
    51   24  149 1    
    52   25   26 2    
    53   25   27 1    
    54   27   28 1    
    55   27   29 1    
    56   27  150 1    
    57   28  151 1    
    58   28  152 1    
    59   28  153 1    
    60   29   30 am   BACKBONE|DICT|INTERRES
    61   29  154 1    
    62   30   31 2    
    63   30   32 1    
    64   32   33 1    
    65   32   34 1    
    66   32  155 1    
    67   33  156 1    
    68   33  157 1    
    69   33  158 1    
    70   34   35 am   BACKBONE|DICT|INTERRES
    71   34  159 1    
    72   35   36 2    
    73   35   37 1    
    74   37   38 1    
    75   37   39 1    
    76   37  160 1    
    77   38  161 1    
    78   38  162 1    
    79   38  163 1    
    80   39   40 am   BACKBONE|DICT|INTERRES
    81   39  164 1    
    82   40   41 2    
    83   40   42 1    
    84   42   43 1    
    85   42   44 1    
    86   42  165 1    
    87   43  166 1    
    88   43  167 1    
    89   43  168 1    
    90   44   45 am   BACKBONE|DICT|INTERRES
    91   44  169 1    
    92   45   46 2    
    93   45   47 1    
    94   47   48 1    
    95   47   49 1    
    96   47  170 1    
    97   48  171 1    
    98   48  172 1    
    99   48  173 1    
   100   49   50 am   BACKBONE|DICT|INTERRES
   101   49  174 1    
   102   50   51 2    
   103   50   52 1    
   104   52   53 1    
   105   52   54 1    
   106   52  175 1    
   107   53  176 1    
   108   53  177 1    
   109   53  178 1    
   110   54   55 am   BACKBONE|DICT|INTERRES
   111   54  179 1    
   112   55   56 2    
   113   55   57 1    
   114   57   58 1    
   115   57   59 1    
   116   57  180 1    
   117   58  181 1    
   118   58  182 1    
   119   58  183 1    
   120   59   60 am   BACKBONE|DICT|INTERRES
   121   59  184 1    
   122   60   61 2    
   123   60   62 1    
   124   62   63 1    
   125   62   64 1    
   126   62  185 1    
   127   63  186 1    
   128   63  187 1    
   129   63  188 1    
   130   64   65 am   BACKBONE|DICT|INTERRES
   131   64  189 1    
   132   65   66 2    
   133   67   68 2    
   134   67   69 am   BACKBONE|DICT|INTERRES
   135   69   70 1    
   136   69  190 1    
   137   70   71 1    
   138   70   72 1    
   139   70  191 1    
   140   71  192 1    
   141   71  193 1    
   142   71  194 1    
   143   72   73 2    
   144   72   74 am   BACKBONE|DICT|INTERRES
   145   74   75 1    
   146   74  195 1    
   147   75   76 1    
   148   75   77 1    
   149   75  196 1    
   150   76  197 1    
   151   76  198 1    
   152   76  199 1    
   153   77   78 2    
   154   77   79 am   BACKBONE|DICT|INTERRES
   155   79   80 1    
   156   79  200 1    
   157   80   81 1    
   158   80   82 1    
   159   80  201 1    
   160   81  202 1    
   161   81  203 1    
   162   81  204 1    
   163   82   83 2    
   164   82   84 am   BACKBONE|DICT|INTERRES
   165   84   85 1    
   166   84  205 1    
   167   85   86 1    
   168   85   87 1    
   169   85  206 1    
   170   86  207 1    
   171   86  208 1    
   172   86  209 1    
   173   87   88 2    
   174   87   89 am   BACKBONE|DICT|INTERRES
   175   89   90 1    
   176   89  210 1    
   177   90   91 1    
   178   90   92 1    
   179   90  211 1    
   180   91  212 1    
   181   91  213 1    
   182   91  214 1    
   183   92   93 2    
   184   92   94 am   BACKBONE|DICT|INTERRES
   185   94   95 1    
   186   94  215 1    
   187   95   96 1    
   188   95   97 1    
   189   95  216 1    
   190   96  217 1    
   191   96  218 1    
   192   96  219 1    
   193   97   98 2    
   194   97   99 am   BACKBONE|DICT|INTERRES
   195   99  100 1    
   196   99  220 1    
   197  100  101 1    
   198  100  102 1    
   199  100  221 1    
   200  101  222 1    
   201  101  223 1    
   202  101  224 1    
   203  102  103 2    
   204  102  104 am   BACKBONE|DICT|INTERRES
   205  104  105 1    
   206  104  225 1    
   207  105  106 1    
   208  105  107 1    
   209  105  226 1    
   210  106  227 1    
   211  106  228 1    
   212  106  229 1    
   213  107  108 2    
   214  107  109 am   BACKBONE|DICT|INTERRES
   215  109  110 1    
   216  109  230 1    
   217  110  111 1    
   218  110  112 1    
   219  110  231 1    
   220  111  232 1    
   221  111  233 1    
   222  111  234 1    
   223  112  113 2    
   224  112  114 am   BACKBONE|DICT|INTERRES
   225  114  115 1    
   226  114  235 1    
   227  115  116 1    
   228  115  117 1    
   229  115  236 1    
   230  116  237 1    
   231  116  238 1    
   232  116  239 1    
   233  117  118 2    
   234  117  119 am   BACKBONE|DICT|INTERRES
   235  119  120 1    
   236  119  240 1    
   237  120  121 1    
   238  120  124 1    
   239  120  241 1    
   240  121  122 am   BACKBONE|DICT|INTERRES
   241  121  123 2    
   242  122  242 1    
   243  122  243 1    
   244  124  125 1    
   245  124  244 1    
   246  124  245 1    
   247  125  126 1    
   248  126  246 1    
   249  126  247 1    
@<TRIPOS>SUBSTRUCTURE
     1 UNK         1 GROUP             0       ****    0 ROOT    
