@<TRIPOS>MOLECULE
3R540
247   249    1
SMALL
USER_CHARGES


@<TRIPOS>ATOM
      1 CA         -2.2329  -12.6178  -47.0036 C.3       0 UNK        -0.1800 
      2 C          -0.7929  -12.1308  -47.0801 C.2       0 UNK         0.5000 
      3 O          -0.5397  -10.9371  -46.9209 O.2       0 UNK        -0.5000 
      4 N           0.1449  -13.0497  -47.3348 N.am      1 UNK        -0.5000 
      5 CA          1.5850  -12.7904  -47.3844 C.3       1 UNK         0.1400 
      6 C6          2.3541  -13.9172  -48.1185 C.3       23 UNK        -0.0398 
      7 S7          1.9120  -13.9792  -49.8859 S.3       23 UNK        -0.2404 
      8 C8          2.8621  -15.4223  -50.4642 C.3       23 UNK        -0.0205 
      9 C9          2.1342  -16.7371  -50.2185 C.ar      23 UNK        -0.0193 
     10 C10         0.9192  -16.9925  -50.8618 C.ar      23 UNK        -0.1150 
     11 C11         0.2487  -18.1998  -50.6563 C.ar      23 UNK        -0.0193 
     12 C12         0.8092  -19.1605  -49.8131 C.ar      23 UNK        -0.1150 
     13 C13         2.0338  -18.9340  -49.1751 C.ar      23 UNK        -0.0193 
     14 C14         2.6843  -17.7106  -49.3776 C.ar      23 UNK        -0.1150 
     15 C15         2.6443  -19.9582  -48.2176 C.3       23 UNK        -0.0205 
     16 S16         2.4872  -21.6973  -48.7425 S.3       23 UNK        -0.2404 
     17 C17         0.8752  -22.1641  -48.0191 C.3       23 UNK        -0.0398 
     18 CA          1.0223  -22.9680  -46.7042 C.3       11 UNK         0.1400 
     19 N           1.5292  -22.1400  -45.6088 N.am      11 UNK        -0.5000 
     20 C           2.2841  -22.5821  -44.5940 C.2       10 UNK         0.5000 
     21 O           2.6684  -23.7485  -44.4961 O.2       10 UNK        -0.5000 
     22 CA          2.6586  -21.5701  -43.4920 C.3       10 UNK         0.1400 
     23 CB          4.0700  -21.0142  -43.7320 C.3       10 UNK        -0.1800 
     24 N           1.7139  -20.4568  -43.3860 N.am      10 UNK        -0.5000 
     25 C           0.4628  -20.5639  -42.9140 C.2       9 UNK         0.5000 
     26 O          -0.0009  -21.6082  -42.4547 O.2       9 UNK        -0.5000 
     27 CA         -0.4334  -19.3089  -42.9761 C.3       9 UNK         0.1400 
     28 CB         -0.5147  -18.6393  -41.5956 C.3       9 UNK        -0.1800 
     29 N          -0.0156  -18.3089  -43.9617 N.am      9 UNK        -0.5000 
     30 C           0.0741  -18.5031  -45.2842 C.2       8 UNK         0.5000 
     31 O          -0.1814  -19.5723  -45.8377 O.2       8 UNK        -0.5000 
     32 CA          0.6034  -17.3224  -46.1166 C.3       8 UNK         0.1400 
     33 CB         -0.5255  -16.3663  -46.5226 C.3       8 UNK        -0.1800 
     34 N           1.6775  -16.5915  -45.4385 N.am      8 UNK        -0.5000 
     35 C           2.8931  -17.1059  -45.1964 C.2       7 UNK         0.5000 
     36 O           3.2517  -18.2162  -45.5814 O.2       7 UNK        -0.5000 
     37 CA          3.8596  -16.2708  -44.3451 C.3       7 UNK         0.1400 
     38 CB          4.7307  -15.3606  -45.2221 C.3       7 UNK        -0.1800 
     39 N           3.1451  -15.4881  -43.3359 N.am      7 UNK        -0.5000 
     40 C           2.7657  -15.9970  -42.1551 C.2       6 UNK         0.5000 
     41 O           3.0221  -17.1477  -41.7983 O.2       6 UNK        -0.5000 
     42 CA          1.9613  -15.0889  -41.2064 C.3       6 UNK         0.1400 
     43 CB          2.9098  -14.3422  -40.2574 C.3       6 UNK        -0.1800 
     44 N           1.0731  -14.1264  -41.8626 N.am      6 UNK        -0.5000 
     45 C           0.0504  -14.4501  -42.6695 C.2       5 UNK         0.5000 
     46 O          -0.1714  -15.6023  -43.0435 O.2       5 UNK        -0.5000 
     47 CA         -0.8790  -13.3057  -43.1333 C.3       5 UNK         0.1400 
     48 CB         -2.2993  -13.7971  -43.4852 C.3       5 UNK        -0.1800 
     49 N          -0.9329  -12.1839  -42.1903 N.am      5 UNK        -0.5000 
     50 C          -1.3872  -12.1998  -40.9257 C.2       4 UNK         0.5000 
     51 O          -1.9060  -13.1852  -40.3988 O.2       4 UNK        -0.5000 
     52 CA         -1.2261  -10.8946  -40.1092 C.3       4 UNK         0.1400 
     53 CB         -1.0449  -11.1624  -38.6000 C.3       4 UNK        -0.1800 
     54 N          -0.1635  -10.0078  -40.6046 N.am      4 UNK        -0.5000 
     55 C           1.1380  -10.3053  -40.7215 C.2       3 UNK         0.5000 
     56 O           1.6354  -11.3828  -40.3897 O.2       3 UNK        -0.5000 
     57 CA          2.0265   -9.2341  -41.3770 C.3       3 UNK         0.1400 
     58 CB          2.9434   -8.5767  -40.3345 C.3       3 UNK        -0.1800 
     59 N           2.8443   -9.7979  -42.4527 N.am      3 UNK        -0.5000 
     60 C           2.3693  -10.4196  -43.5411 C.2       2 UNK         0.5000 
     61 O           1.1648  -10.5444  -43.7793 O.2       2 UNK        -0.5000 
     62 CA          3.4337  -10.9565  -44.5208 C.3       2 UNK         0.1400 
     63 CB          4.3638  -11.9883  -43.8498 C.3       2 UNK        -0.1800 
     64 N           2.8665  -11.4752  -45.7721 N.am      2 UNK        -0.5000 
     65 C           2.1305  -12.5802  -45.9587 C.2       1 UNK         0.5000 
     66 O           1.8958  -13.4263  -45.0910 O.2       1 UNK        -0.5000 
     67 C          -0.3086  -23.6083  -46.2646 C.2       11 UNK         0.5000 
     68 O          -1.3759  -23.2318  -46.7539 O.2       11 UNK        -0.5000 
     69 N          -0.2249  -24.5682  -45.3349 N.am      12 UNK        -0.5000 
     70 CA         -1.3462  -25.3406  -44.7942 C.3       12 UNK         0.1400 
     71 CB         -0.9264  -25.9249  -43.4335 C.3       12 UNK        -0.1800 
     72 C          -1.8362  -26.4202  -45.7860 C.2       12 UNK         0.5000 
     73 O          -1.8060  -27.6138  -45.4789 O.2       12 UNK        -0.5000 
     74 N          -2.2452  -25.9762  -46.9794 N.am      13 UNK        -0.5000 
     75 CA         -2.7676  -26.8000  -48.0662 C.3       13 UNK         0.1400 
     76 CB         -2.7439  -25.9693  -49.3593 C.3       13 UNK        -0.1800 
     77 C          -4.1889  -27.3195  -47.7763 C.2       13 UNK         0.5000 
     78 O          -4.9107  -26.7460  -46.9565 O.2       13 UNK        -0.5000 
     79 N          -4.5734  -28.3873  -48.4870 N.am      14 UNK        -0.5000 
     80 CA         -5.8815  -29.0424  -48.3805 C.3       14 UNK         0.1400 
     81 CB         -5.7842  -30.4374  -49.0187 C.3       14 UNK        -0.1800 
     82 C          -7.0412  -28.2423  -49.0114 C.2       14 UNK         0.5000 
     83 O          -8.2023  -28.5547  -48.7430 O.2       14 UNK        -0.5000 
     84 N          -6.7167  -27.2397  -49.8344 N.am      15 UNK        -0.5000 
     85 CA         -7.6507  -26.3192  -50.4713 C.3       15 UNK         0.1400 
     86 CB         -7.8329  -26.7241  -51.9423 C.3       15 UNK        -0.1800 
     87 C          -7.0835  -24.8985  -50.3603 C.2       15 UNK         0.5000 
     88 O          -5.8606  -24.7349  -50.3080 O.2       15 UNK        -0.5000 
     89 N          -7.9792  -23.9024  -50.3457 N.am      16 UNK        -0.5000 
     90 CA         -7.6743  -22.4760  -50.2065 C.3       16 UNK         0.1400 
     91 CB         -8.9833  -21.6732  -50.2535 C.3       16 UNK        -0.1800 
     92 C          -6.6934  -21.9773  -51.2815 C.2       16 UNK         0.5000 
     93 O          -6.9755  -22.1197  -52.4742 O.2       16 UNK        -0.5000 
     94 N          -5.5439  -21.4520  -50.8330 N.am      17 UNK        -0.5000 
     95 CA         -4.4136  -20.9876  -51.6475 C.3       17 UNK         0.1400 
     96 CB         -4.7743  -19.6650  -52.3542 C.3       17 UNK        -0.1800 
     97 C          -3.8754  -22.0701  -52.6110 C.2       17 UNK         0.5000 
     98 O          -3.5098  -21.7604  -53.7470 O.2       17 UNK        -0.5000 
     99 N          -3.8854  -23.3290  -52.1424 N.am      18 UNK        -0.5000 
    100 CA        -3.5364  -24.5490  -52.8765 C.3       18 UNK         0.1400 
    101 CB        -2.0221  -24.6017  -53.1619 C.3       18 UNK        -0.1800 
    102 C         -4.4194  -24.7506  -54.1259 C.2       18 UNK         0.5000 
    103 O         -3.9137  -25.0668  -55.2029 O.2       18 UNK        -0.5000 
    104 N         -5.7304  -24.5369  -53.9370 N.am      19 UNK        -0.5000 
    105 CA        -6.7929  -24.5246  -54.9472 C.3       19 UNK         0.1400 
    106 CB        -6.9298  -25.8918  -55.6514 C.3       19 UNK        -0.1800 
    107 C         -6.6321  -23.3400  -55.9202 C.2       19 UNK         0.5000 
    108 O         -6.6606  -23.5236  -57.1387 O.2       19 UNK        -0.5000 
    109 N         -6.4644  -22.1418  -55.3403 N.am      20 UNK        -0.5000 
    110 CA        -6.2981  -20.8449  -56.0061 C.3       20 UNK         0.1400 
    111 CB        -7.6052  -20.4298  -56.7132 C.3       20 UNK        -0.1800 
    112 C         -5.0620  -20.7687  -56.9296 C.2       20 UNK         0.5000 
    113 O         -5.1055  -20.0988  -57.9632 O.2       20 UNK        -0.5000 
    114 N         -3.9745  -21.4441  -56.5381 N.am      21 UNK        -0.5000 
    115 CA        -2.7042  -21.4566  -57.2604 C.3       21 UNK         0.1400 
    116 CB        -1.9392  -22.7461  -56.9311 C.3       21 UNK        -0.1800 
    117 C         -1.8540  -20.2195  -56.9291 C.2       21 UNK         0.5000 
    118 O         -1.2842  -19.6184  -57.8407 O.2       21 UNK        -0.5000 
    119 N         -1.7976  -19.8560  -55.6409 N.am      22 UNK        -0.5000 
    120 CA        -1.0779  -18.6746  -55.1285 C.3       22 UNK         0.1400 
    121 C         -1.9959  -17.4504  -54.8404 C.2       22 UNK         0.5000 
    122 N         -3.2884  -17.5050  -55.1383 N.am      22 UNK        -0.7600 
    123 O         -1.5254  -16.4215  -54.3632 O.2       22 UNK        -0.5000 
    124 C124       -0.1469  -19.0283  -53.9370 C.3       23 UNK        -0.0398 
    125 S125       -0.9898  -19.8287  -52.5301 S.3       23 UNK        -0.2404 
    126 C126       -1.0912  -18.4696  -51.3237 C.3       23 UNK        -0.0205 
    127 H127       -2.7896  -12.2789  -47.8772 H         1 UNK         0.0600 
    128 H128       -2.7184  -12.2170  -46.1142 H         1 UNK         0.0600 
    129 H129       -2.2914  -13.7057  -46.9607 H         1 UNK         0.0600 
    130 H130       -0.1270  -14.0115  -47.4651 H         1 UNK         0.3000 
    131 H131        1.7371  -11.8654  -47.9456 H         1 UNK         0.0600 
    132 H132        2.1595  -14.8896  -47.6642 H         1 UNK         0.0800 
    133 H133        3.4312  -13.7527  -48.0528 H         1 UNK         0.0800 
    134 H134        3.0328  -15.3176  -51.5365 H         1 UNK         0.0800 
    135 H135        3.8490  -15.4235  -49.9987 H         1 UNK         0.0800 
    136 H136        0.4931  -16.2447  -51.5164 H         1 UNK         0.1150 
    137 H137        0.2782  -20.0878  -49.6717 H         1 UNK         0.1150 
    138 H138        3.6218  -17.5151  -48.8759 H         1 UNK         0.1150 
    139 H139        3.7064  -19.7493  -48.0815 H         1 UNK         0.0800 
    140 H140        2.1873  -19.8447  -47.2367 H         1 UNK         0.0800 
    141 H141        0.2590  -21.2813  -47.8484 H         1 UNK         0.0800 
    142 H142        0.3538  -22.7565  -48.7733 H         1 UNK         0.0800 
    143 H143        1.7205  -23.7854  -46.8981 H         1 UNK         0.0600 
    144 H144        1.1832  -21.1878  -45.5823 H         1 UNK         0.3000 
    145 H145        2.6617  -22.1038  -42.5393 H         1 UNK         0.0600 
    146 H146        4.3458  -20.2853  -42.9695 H         1 UNK         0.0600 
    147 H147        4.1519  -20.5310  -44.7059 H         1 UNK         0.0600 
    148 H148        4.8117  -21.8133  -43.7029 H         1 UNK         0.0600 
    149 H149        2.0194  -19.5644  -43.7487 H         1 UNK         0.3000 
    150 H150       -1.4350  -19.6425  -43.2542 H         1 UNK         0.0600 
    151 H151        0.4553  -18.2534  -41.2807 H         1 UNK         0.0600 
    152 H152       -1.2199  -17.8078  -41.6009 H         1 UNK         0.0600 
    153 H153       -0.8513  -19.3452  -40.8353 H         1 UNK         0.0600 
    154 H154        0.1523  -17.3707  -43.6053 H         1 UNK         0.3000 
    155 H155        1.0101  -17.7404  -47.0343 H         1 UNK         0.0600 
    156 H156       -1.4084  -16.9156  -46.8528 H         1 UNK         0.0600 
    157 H157       -0.2139  -15.7432  -47.3583 H         1 UNK         0.0600 
    158 H158       -0.8265  -15.7197  -45.6997 H         1 UNK         0.0600 
    159 H159        1.4532  -15.6800  -45.0600 H         1 UNK         0.3000 
    160 H160        4.5346  -16.9678  -43.8432 H         1 UNK         0.0600 
    161 H161        4.1408  -14.6315  -45.7721 H         1 UNK         0.0600 
    162 H162        5.2862  -15.9466  -45.9554 H         1 UNK         0.0600 
    163 H163        5.4614  -14.8210  -44.6202 H         1 UNK         0.0600 
    164 H164        2.8294  -14.5635  -43.6076 H         1 UNK         0.3000 
    165 H165        1.3302  -15.7434  -40.6017 H         1 UNK         0.0600 
    166 H166        2.3551  -13.8293  -39.4716 H         1 UNK         0.0600 
    167 H167        3.6000  -15.0299  -39.7670 H         1 UNK         0.0600 
    168 H168        3.5058  -13.5990  -40.7886 H         1 UNK         0.0600 
    169 H169        1.1841  -13.1577  -41.5867 H         1 UNK         0.3000 
    170 H170       -0.4397  -12.9044  -44.0460 H         1 UNK         0.0600 
    171 H171       -2.2792  -14.4858  -44.3292 H         1 UNK         0.0600 
    172 H172       -2.7650  -14.3229  -42.6514 H         1 UNK         0.0600 
    173 H173       -2.9485  -12.9666  -43.7612 H         1 UNK         0.0600 
    174 H174       -0.4854  -11.3372  -42.5223 H         1 UNK         0.3000 
    175 H175       -2.1613  -10.3474  -40.2356 H         1 UNK         0.0600 
    176 H176       -0.1657  -11.7758  -38.4003 H         1 UNK         0.0600 
    177 H177       -0.9375  -10.2311  -38.0440 H         1 UNK         0.0600 
    178 H178       -1.9081  -11.6859  -38.1874 H         1 UNK         0.0600 
    179 H179       -0.4771   -9.1034  -40.9298 H         1 UNK         0.3000 
    180 H180        1.3911   -8.4611  -41.8141 H         1 UNK         0.0600 
    181 H181        3.6246   -9.3005  -39.8848 H         1 UNK         0.0600 
    182 H182        2.3600   -8.1307  -39.5280 H         1 UNK         0.0600 
    183 H183        3.5425   -7.7819  -40.7793 H         1 UNK         0.0600 
    184 H184        3.8433   -9.7487  -42.3191 H         1 UNK         0.3000 
    185 H185        4.0449  -10.1010  -44.8123 H         1 UNK         0.0600 
    186 H186        4.9591  -11.5290  -43.0604 H         1 UNK         0.0600 
    187 H187        3.8048  -12.8035  -43.3933 H         1 UNK         0.0600 
    188 H188        5.0634  -12.4131  -44.5689 H         1 UNK         0.0600 
    189 H189        2.9654  -10.8489  -46.5586 H         1 UNK         0.3000 
    190 H190        0.6932  -24.7999  -44.9769 H         1 UNK         0.3000 
    191 H191       -2.1839  -24.6627  -44.6174 H         1 UNK         0.0600 
    192 H192       -1.7465  -26.4789  -42.9750 H         1 UNK         0.0600 
    193 H193       -0.6415  -25.1349  -42.7380 H         1 UNK         0.0600 
    194 H194       -0.0806  -26.6067  -43.5309 H         1 UNK         0.0600 
    195 H195       -2.2302  -24.9731  -47.1327 H         1 UNK         0.3000 
    196 H196       -2.1064  -27.6601  -48.1919 H         1 UNK         0.0600 
    197 H197       -3.3711  -25.0809  -49.2769 H         1 UNK         0.0600 
    198 H198       -1.7324  -25.6413  -49.5998 H         1 UNK         0.0600 
    199 H199       -3.1045  -26.5513  -50.2077 H         1 UNK         0.0600 
    200 H200       -3.9256  -28.7952  -49.1459 H         1 UNK         0.3000 
    201 H201       -6.1153  -29.1690  -47.3212 H         1 UNK         0.0600 
    202 H202       -6.7275  -30.9775  -48.9266 H         1 UNK         0.0600 
    203 H203       -5.0183  -31.0420  -48.5324 H         1 UNK         0.0600 
    204 H204       -5.5430  -30.3778  -50.0808 H         1 UNK         0.0600 
    205 H205       -5.7425  -26.9922  -49.9403 H         1 UNK         0.3000 
    206 H206       -8.6176  -26.3436  -49.9642 H         1 UNK         0.0600 
    207 H207       -8.2807  -27.7146  -52.0231 H         1 UNK         0.0600 
    208 H208       -8.4876  -26.0272  -52.4670 H         1 UNK         0.0600 
    209 H209       -6.8794  -26.7469  -52.4706 H         1 UNK         0.0600 
    210 H210       -8.9583  -24.1336  -50.4293 H         1 UNK         0.3000 
    211 H211       -7.2235  -22.3335  -49.2222 H         1 UNK         0.0600 
    212 H212       -9.5063  -21.8116  -51.2008 H         1 UNK         0.0600 
    213 H213       -8.7910  -20.6057  -50.1382 H         1 UNK         0.0600 
    214 H214       -9.6584  -21.9692  -49.4503 H         1 UNK         0.0600 
    215 H215       -5.4010  -21.4063  -49.8336 H         1 UNK         0.3000 
    216 H216       -3.5968  -20.7774  -50.9559 H         1 UNK         0.0600 
    217 H217       -5.0266  -18.8922  -51.6286 H         1 UNK         0.0600 
    218 H218       -5.6263  -19.7820  -53.0212 H         1 UNK         0.0600 
    219 H219       -3.9403  -19.2877  -52.9456 H         1 UNK         0.0600 
    220 H220       -4.2777  -23.4861  -51.2215 H         1 UNK         0.3000 
    221 H221       -3.7717  -25.3830  -52.2150 H         1 UNK         0.0600 
    222 H222       -1.7478  -25.5304  -53.6634 H         1 UNK         0.0600 
    223 H223       -1.6977  -23.7771  -53.7946 H         1 UNK         0.0600 
    224 H224       -1.4495  -24.5528  -52.2358 H         1 UNK         0.0600 
    225 H225       -6.0116  -24.2087  -53.0230 H         1 UNK         0.3000 
    226 H226       -7.7225  -24.3463  -54.4045 H         1 UNK         0.0600 
    227 H227       -7.0428  -26.7009  -54.9306 H         1 UNK         0.0600 
    228 H228       -7.8096  -25.9074  -56.2955 H         1 UNK         0.0600 
    229 H229       -6.0673  -26.1192  -56.2780 H         1 UNK         0.0600 
    230 H230       -6.4856  -22.1091  -54.3237 H         1 UNK         0.3000 
    231 H231       -6.1176  -20.1188  -55.2147 H         1 UNK         0.0600 
    232 H232       -7.5415  -19.4074  -57.0876 H         1 UNK         0.0600 
    233 H233       -8.4527  -20.4696  -56.0288 H         1 UNK         0.0600 
    234 H234       -7.8289  -21.0757  -57.5627 H         1 UNK         0.0600 
    235 H235       -3.9849  -21.9006  -55.6307 H         1 UNK         0.3000 
    236 H236       -2.9045  -21.4532  -58.3340 H         1 UNK         0.0600 
    237 H237       -2.5213  -23.6283  -57.1981 H         1 UNK         0.0600 
    238 H238       -0.9995  -22.7951  -57.4824 H         1 UNK         0.0600 
    239 H239       -1.7017  -22.8105  -55.8699 H         1 UNK         0.0600 
    240 H240       -2.2926  -20.4093  -54.9494 H         1 UNK         0.3000 
    241 H241       -0.4125  -18.3122  -55.9137 H         1 UNK         0.0600 
    242 H242       -3.6756  -18.3274  -55.5688 H         1 UNK         0.3800 
    243 H243       -3.8719  -16.7028  -54.9610 H         1 UNK         0.3800 
    244 H244        0.3973  -18.1475  -53.5932 H         1 UNK         0.0800 
    245 H245        0.6215  -19.7199  -54.2840 H         1 UNK         0.0800 
    246 H246       -1.8185  -18.7371  -50.5562 H         1 UNK         0.0800 
    247 H247       -1.4781  -17.5727  -51.8090 H         1 UNK         0.0800 
@<TRIPOS>BOND
     1    1    2 1    
     2    1  127 1    
     3    1  128 1    
     4    1  129 1    
     5    2    3 2    
     6    2    4 am   BACKBONE|DICT|INTERRES
     7    4    5 1    
     8    4  130 1    
     9    5    6 1    
    10    5   65 1    
    11    5  131 1    
    12    6    7 1    
    13    6  132 1    
    14    6  133 1    
    15    7    8 1    
    16    8    9 1    
    17    8  134 1    
    18    8  135 1    
    19    9   10 ar   
    20    9   14 ar   
    21   10   11 ar   
    22   10  136 1    
    23   11   12 ar   
    24   11  126 1    
    25   12   13 ar   
    26   12  137 1    
    27   13   14 ar   
    28   13   15 1    
    29   14  138 1    
    30   15   16 1    
    31   15  139 1    
    32   15  140 1    
    33   16   17 1    
    34   17   18 1    
    35   17  141 1    
    36   17  142 1    
    37   18   19 1    
    38   18   67 1    
    39   18  143 1    
    40   19   20 am   BACKBONE|DICT|INTERRES
    41   19  144 1    
    42   20   21 2    
    43   20   22 1    
    44   22   23 1    
    45   22   24 1    
    46   22  145 1    
    47   23  146 1    
    48   23  147 1    
    49   23  148 1    
    50   24   25 am   BACKBONE|DICT|INTERRES
    51   24  149 1    
    52   25   26 2    
    53   25   27 1    
    54   27   28 1    
    55   27   29 1    
    56   27  150 1    
    57   28  151 1    
    58   28  152 1    
    59   28  153 1    
    60   29   30 am   BACKBONE|DICT|INTERRES
    61   29  154 1    
    62   30   31 2    
    63   30   32 1    
    64   32   33 1    
    65   32   34 1    
    66   32  155 1    
    67   33  156 1    
    68   33  157 1    
    69   33  158 1    
    70   34   35 am   BACKBONE|DICT|INTERRES
    71   34  159 1    
    72   35   36 2    
    73   35   37 1    
    74   37   38 1    
    75   37   39 1    
    76   37  160 1    
    77   38  161 1    
    78   38  162 1    
    79   38  163 1    
    80   39   40 am   BACKBONE|DICT|INTERRES
    81   39  164 1    
    82   40   41 2    
    83   40   42 1    
    84   42   43 1    
    85   42   44 1    
    86   42  165 1    
    87   43  166 1    
    88   43  167 1    
    89   43  168 1    
    90   44   45 am   BACKBONE|DICT|INTERRES
    91   44  169 1    
    92   45   46 2    
    93   45   47 1    
    94   47   48 1    
    95   47   49 1    
    96   47  170 1    
    97   48  171 1    
    98   48  172 1    
    99   48  173 1    
   100   49   50 am   BACKBONE|DICT|INTERRES
   101   49  174 1    
   102   50   51 2    
   103   50   52 1    
   104   52   53 1    
   105   52   54 1    
   106   52  175 1    
   107   53  176 1    
   108   53  177 1    
   109   53  178 1    
   110   54   55 am   BACKBONE|DICT|INTERRES
   111   54  179 1    
   112   55   56 2    
   113   55   57 1    
   114   57   58 1    
   115   57   59 1    
   116   57  180 1    
   117   58  181 1    
   118   58  182 1    
   119   58  183 1    
   120   59   60 am   BACKBONE|DICT|INTERRES
   121   59  184 1    
   122   60   61 2    
   123   60   62 1    
   124   62   63 1    
   125   62   64 1    
   126   62  185 1    
   127   63  186 1    
   128   63  187 1    
   129   63  188 1    
   130   64   65 am   BACKBONE|DICT|INTERRES
   131   64  189 1    
   132   65   66 2    
   133   67   68 2    
   134   67   69 am   BACKBONE|DICT|INTERRES
   135   69   70 1    
   136   69  190 1    
   137   70   71 1    
   138   70   72 1    
   139   70  191 1    
   140   71  192 1    
   141   71  193 1    
   142   71  194 1    
   143   72   73 2    
   144   72   74 am   BACKBONE|DICT|INTERRES
   145   74   75 1    
   146   74  195 1    
   147   75   76 1    
   148   75   77 1    
   149   75  196 1    
   150   76  197 1    
   151   76  198 1    
   152   76  199 1    
   153   77   78 2    
   154   77   79 am   BACKBONE|DICT|INTERRES
   155   79   80 1    
   156   79  200 1    
   157   80   81 1    
   158   80   82 1    
   159   80  201 1    
   160   81  202 1    
   161   81  203 1    
   162   81  204 1    
   163   82   83 2    
   164   82   84 am   BACKBONE|DICT|INTERRES
   165   84   85 1    
   166   84  205 1    
   167   85   86 1    
   168   85   87 1    
   169   85  206 1    
   170   86  207 1    
   171   86  208 1    
   172   86  209 1    
   173   87   88 2    
   174   87   89 am   BACKBONE|DICT|INTERRES
   175   89   90 1    
   176   89  210 1    
   177   90   91 1    
   178   90   92 1    
   179   90  211 1    
   180   91  212 1    
   181   91  213 1    
   182   91  214 1    
   183   92   93 2    
   184   92   94 am   BACKBONE|DICT|INTERRES
   185   94   95 1    
   186   94  215 1    
   187   95   96 1    
   188   95   97 1    
   189   95  216 1    
   190   96  217 1    
   191   96  218 1    
   192   96  219 1    
   193   97   98 2    
   194   97   99 am   BACKBONE|DICT|INTERRES
   195   99  100 1    
   196   99  220 1    
   197  100  101 1    
   198  100  102 1    
   199  100  221 1    
   200  101  222 1    
   201  101  223 1    
   202  101  224 1    
   203  102  103 2    
   204  102  104 am   BACKBONE|DICT|INTERRES
   205  104  105 1    
   206  104  225 1    
   207  105  106 1    
   208  105  107 1    
   209  105  226 1    
   210  106  227 1    
   211  106  228 1    
   212  106  229 1    
   213  107  108 2    
   214  107  109 am   BACKBONE|DICT|INTERRES
   215  109  110 1    
   216  109  230 1    
   217  110  111 1    
   218  110  112 1    
   219  110  231 1    
   220  111  232 1    
   221  111  233 1    
   222  111  234 1    
   223  112  113 2    
   224  112  114 am   BACKBONE|DICT|INTERRES
   225  114  115 1    
   226  114  235 1    
   227  115  116 1    
   228  115  117 1    
   229  115  236 1    
   230  116  237 1    
   231  116  238 1    
   232  116  239 1    
   233  117  118 2    
   234  117  119 am   BACKBONE|DICT|INTERRES
   235  119  120 1    
   236  119  240 1    
   237  120  121 1    
   238  120  124 1    
   239  120  241 1    
   240  121  122 am   BACKBONE|DICT|INTERRES
   241  121  123 2    
   242  122  242 1    
   243  122  243 1    
   244  124  125 1    
   245  124  244 1    
   246  124  245 1    
   247  125  126 1    
   248  126  246 1    
   249  126  247 1    
@<TRIPOS>SUBSTRUCTURE
     1 UNK         1 GROUP             0       ****    0 ROOT    
