@<TRIPOS>MOLECULE
3R540
247   249    1
SMALL
USER_CHARGES


@<TRIPOS>ATOM
      1 CA          5.5382   -8.8017  -53.1087 C.3       0 UNK        -0.1800 
      2 C           5.4742   -9.4983  -51.7567 C.2       0 UNK         0.5000 
      3 O           5.9015   -8.9284  -50.7521 O.2       0 UNK        -0.5000 
      4 N           4.9518  -10.7297  -51.7291 N.am      1 UNK        -0.5000 
      5 CA          4.7318  -11.5288  -50.5208 C.3       1 UNK         0.1400 
      6 C6          4.4701  -13.0253  -50.8445 C.3       23 UNK        -0.0398 
      7 S7          3.1967  -13.3079  -52.1266 S.3       23 UNK        -0.2404 
      8 C8          3.4802  -15.0546  -52.5448 C.3       23 UNK        -0.0205 
      9 C9          2.6415  -15.9885  -51.6858 C.ar      23 UNK        -0.0193 
     10 C10         1.3010  -16.2117  -52.0147 C.ar      23 UNK        -0.1150 
     11 C11         0.5286  -17.1090  -51.2744 C.ar      23 UNK        -0.0193 
     12 C12         1.1130  -17.7950  -50.2077 C.ar      23 UNK        -0.1150 
     13 C13         2.4448  -17.5691  -49.8509 C.ar      23 UNK        -0.0193 
     14 C14         3.2041  -16.6567  -50.5926 C.ar      23 UNK        -0.1150 
     15 C15         3.0764  -18.3536  -48.7069 C.3       23 UNK        -0.0205 
     16 S16         2.5854  -17.7561  -47.0515 S.3       23 UNK        -0.2404 
     17 C17         0.8305  -18.2448  -46.8816 C.3       23 UNK        -0.0398 
     18 CA          0.5767  -19.7668  -47.0152 C.3       11 UNK         0.1400 
     19 N           1.3216  -20.5413  -46.0208 N.am      11 UNK        -0.5000 
     20 C           1.4367  -21.8753  -46.0069 C.2       10 UNK         0.5000 
     21 O           0.9216  -22.6069  -46.8510 O.2       10 UNK        -0.5000 
     22 CA          2.2128  -22.5050  -44.8318 C.3       10 UNK         0.1400 
     23 CB          3.2338  -21.5403  -44.1925 C.3       10 UNK        -0.1800 
     24 N           1.3347  -23.0537  -43.7895 N.am      10 UNK        -0.5000 
     25 C           0.3196  -22.4302  -43.1715 C.2       9 UNK         0.5000 
     26 O          -0.1141  -21.3300  -43.5072 O.2       9 UNK        -0.5000 
     27 CA         -0.3447  -23.1314  -41.9718 C.3       9 UNK         0.1400 
     28 CB          0.0800  -24.6035  -41.7673 C.3       9 UNK        -0.1800 
     29 N          -0.1573  -22.3388  -40.7511 N.am      9 UNK        -0.5000 
     30 C           1.0049  -22.0507  -40.1446 C.2       8 UNK         0.5000 
     31 O           2.0983  -22.4921  -40.5034 O.2       8 UNK        -0.5000 
     32 CA          0.9140  -21.1001  -38.9382 C.3       8 UNK         0.1400 
     33 CB          2.2869  -20.7572  -38.3297 C.3       8 UNK        -0.1800 
     34 N           0.2485  -19.8623  -39.3357 N.am      8 UNK        -0.5000 
     35 C          -0.6955  -19.2253  -38.6297 C.2       7 UNK         0.5000 
     36 O          -1.1410  -19.6471  -37.5615 O.2       7 UNK        -0.5000 
     37 CA         -1.2348  -17.8869  -39.1838 C.3       7 UNK         0.1400 
     38 CB         -0.6835  -16.7083  -38.3661 C.3       7 UNK        -0.1800 
     39 N          -0.9241  -17.6543  -40.5942 N.am      7 UNK        -0.5000 
     40 C          -1.4401  -18.3423  -41.6215 C.2       6 UNK         0.5000 
     41 O          -2.3142  -19.1989  -41.4906 O.2       6 UNK        -0.5000 
     42 CA         -0.8663  -18.0431  -43.0236 C.3       6 UNK         0.1400 
     43 CB         -1.7994  -17.0909  -43.7867 C.3       6 UNK        -0.1800 
     44 N           0.4960  -17.4926  -43.0326 N.am      6 UNK        -0.5000 
     45 C           1.5763  -18.0258  -42.4343 C.2       5 UNK         0.5000 
     46 O           1.5561  -19.0952  -41.8276 O.2       5 UNK        -0.5000 
     47 CA          2.8930  -17.2207  -42.4631 C.3       5 UNK         0.1400 
     48 CB          3.9544  -17.9300  -43.3166 C.3       5 UNK        -0.1800 
     49 N           2.7377  -15.8443  -42.9357 N.am      5 UNK        -0.5000 
     50 C           2.0795  -14.8739  -42.2859 C.2       4 UNK         0.5000 
     51 O           1.5675  -15.0256  -41.1759 O.2       4 UNK        -0.5000 
     52 CA          1.9330  -13.5222  -43.0120 C.3       4 UNK         0.1400 
     53 CB          2.9261  -12.4957  -42.4462 C.3       4 UNK        -0.1800 
     54 N           2.1050  -13.5904  -44.4673 N.am      4 UNK        -0.5000 
     55 C           1.3164  -14.2561  -45.3251 C.2       3 UNK         0.5000 
     56 O           0.3976  -14.9921  -44.9635 O.2       3 UNK        -0.5000 
     57 CA          1.6339  -14.0870  -46.8289 C.3       3 UNK         0.1400 
     58 CB          0.4006  -14.2854  -47.7337 C.3       3 UNK        -0.1800 
     59 N           2.3263  -12.8312  -47.1480 N.am      3 UNK        -0.5000 
     60 C           1.8761  -11.5766  -46.9772 C.2       2 UNK         0.5000 
     61 O           0.7631  -11.2936  -46.5338 O.2       2 UNK        -0.5000 
     62 CA          2.8553  -10.4433  -47.3398 C.3       2 UNK         0.1400 
     63 CB          3.5854   -9.9496  -46.0804 C.3       2 UNK        -0.1800 
     64 N           3.8480  -10.8633  -48.3327 N.am      2 UNK        -0.5000 
     65 C           3.6083  -10.9279  -49.6488 C.2       1 UNK         0.5000 
     66 O           2.5537  -10.5562  -50.1700 O.2       1 UNK        -0.5000 
     67 C          -0.9358  -20.0787  -47.0257 C.2       11 UNK         0.5000 
     68 O          -1.5486  -20.0111  -48.0904 O.2       11 UNK        -0.5000 
     69 N          -1.5094  -20.4651  -45.8761 N.am      12 UNK        -0.5000 
     70 CA         -2.9021  -20.9105  -45.7855 C.3       12 UNK         0.1400 
     71 CB         -3.3782  -20.8663  -44.3276 C.3       12 UNK        -0.1800 
     72 C          -3.0977  -22.3172  -46.3764 C.2       12 UNK         0.5000 
     73 O          -4.1330  -22.5777  -46.9892 O.2       12 UNK        -0.5000 
     74 N          -2.0889  -23.1859  -46.2192 N.am      13 UNK        -0.5000 
     75 CA         -2.0608  -24.5272  -46.8040 C.3       13 UNK         0.1400 
     76 CB         -0.9968  -25.3791  -46.0948 C.3       13 UNK        -0.1800 
     77 C          -1.8265  -24.4860  -48.3255 C.2       13 UNK         0.5000 
     78 O          -2.4004  -25.3014  -49.0463 O.2       13 UNK        -0.5000 
     79 N          -1.0227  -23.5163  -48.7868 N.am      14 UNK        -0.5000 
     80 CA         -0.8103  -23.2088  -50.2019 C.3       14 UNK         0.1400 
     81 CB          0.3505  -22.2124  -50.3451 C.3       14 UNK        -0.1800 
     82 C          -2.0799  -22.6620  -50.8800 C.2       14 UNK         0.5000 
     83 O          -2.3435  -23.0005  -52.0339 O.2       14 UNK        -0.5000 
     84 N          -2.8490  -21.8367  -50.1559 N.am      15 UNK        -0.5000 
     85 CA         -4.1405  -21.3225  -50.6045 C.3       15 UNK         0.1400 
     86 CB         -4.5670  -20.1389  -49.7247 C.3       15 UNK        -0.1800 
     87 C          -5.2212  -22.4160  -50.6146 C.2       15 UNK         0.5000 
     88 O          -5.9668  -22.5204  -51.5912 O.2       15 UNK        -0.5000 
     89 N          -5.2837  -23.2014  -49.5290 N.am      16 UNK        -0.5000 
     90 CA         -6.2191  -24.3031  -49.2790 C.3       16 UNK         0.1400 
     91 CB         -5.9267  -25.4874  -50.2232 C.3       16 UNK        -0.1800 
     92 C          -7.6872  -23.8375  -49.3420 C.2       16 UNK         0.5000 
     93 O          -8.4958  -24.4326  -50.0535 O.2       16 UNK        -0.5000 
     94 N          -7.9848  -22.7243  -48.6535 N.am      17 UNK        -0.5000 
     95 CA         -9.2699  -22.0069  -48.6694 C.3       17 UNK         0.1400 
     96 CB        -10.3746  -22.8437  -47.9906 C.3       17 UNK        -0.1800 
     97 C          -9.6648  -21.5182  -50.0835 C.2       17 UNK         0.5000 
     98 O         -10.8456  -21.5069  -50.4337 O.2       17 UNK        -0.5000 
     99 N          -8.6429  -21.1438  -50.8672 N.am      18 UNK        -0.5000 
    100 CA        -8.6719  -20.7159  -52.2689 C.3       18 UNK         0.1400 
    101 CB        -9.5635  -19.4722  -52.4658 C.3       18 UNK        -0.1800 
    102 C         -8.9880  -21.8440  -53.2752 C.2       18 UNK         0.5000 
    103 O         -9.2424  -21.5447  -54.4427 O.2       18 UNK        -0.5000 
    104 N         -8.9365  -23.1145  -52.8443 N.am      19 UNK        -0.5000 
    105 CA        -9.0868  -24.2741  -53.7278 C.3       19 UNK         0.1400 
    106 CB        -9.4532  -25.5186  -52.9059 C.3       19 UNK        -0.1800 
    107 C         -7.8183  -24.5342  -54.5609 C.2       19 UNK         0.5000 
    108 O         -7.9294  -24.9279  -55.7227 O.2       19 UNK        -0.5000 
    109 N         -6.6444  -24.3009  -53.9585 N.am      20 UNK        -0.5000 
    110 CA        -5.3393  -24.3969  -54.6157 C.3       20 UNK         0.1400 
    111 CB        -4.3445  -25.0742  -53.6628 C.3       20 UNK        -0.1800 
    112 C         -4.8346  -23.0102  -55.0516 C.2       20 UNK         0.5000 
    113 O         -4.1526  -22.9052  -56.0727 O.2       20 UNK        -0.5000 
    114 N         -5.1974  -21.9730  -54.2802 N.am      21 UNK        -0.5000 
    115 CA        -4.9914  -20.5436  -54.5399 C.3       21 UNK         0.1400 
    116 CB        -5.8950  -20.0850  -55.7025 C.3       21 UNK        -0.1800 
    117 C         -3.5158  -20.1330  -54.7374 C.2       21 UNK         0.5000 
    118 O         -3.2433  -19.1507  -55.4296 O.2       21 UNK        -0.5000 
    119 N         -2.5940  -20.8867  -54.1229 N.am      22 UNK        -0.5000 
    120 CA        -1.1346  -20.6930  -54.1781 C.3       22 UNK         0.1400 
    121 C         -0.5017  -20.9882  -55.5722 C.2       22 UNK         0.5000 
    122 N         -1.1875  -21.6804  -56.4760 N.am      22 UNK        -0.7600 
    123 O          0.6392  -20.6157  -55.8325 O.2       22 UNK        -0.5000 
    124 C124       -0.6678  -19.3398  -53.5666 C.3       23 UNK        -0.0398 
    125 S125       -1.3457  -19.0712  -51.8932 S.3       23 UNK        -0.2404 
    126 C126       -0.9416  -17.3216  -51.6060 C.3       23 UNK        -0.0205 
    127 H127        4.9652   -7.8749  -53.0805 H         1 UNK         0.0600 
    128 H128        6.5711   -8.5582  -53.3573 H         1 UNK         0.0600 
    129 H129        5.1348   -9.4266  -53.9060 H         1 UNK         0.0600 
    130 H130        4.5822  -11.1341  -52.5782 H         1 UNK         0.3000 
    131 H131        5.6562  -11.4864  -49.9403 H         1 UNK         0.0600 
    132 H132        5.4025  -13.4711  -51.1934 H         1 UNK         0.0800 
    133 H133        4.1970  -13.5818  -49.9461 H         1 UNK         0.0800 
    134 H134        4.5402  -15.2995  -52.4640 H         1 UNK         0.0800 
    135 H135        3.2197  -15.2053  -53.5935 H         1 UNK         0.0800 
    136 H136        0.8621  -15.6851  -52.8506 H         1 UNK         0.1150 
    137 H137        0.5192  -18.5137  -49.6644 H         1 UNK         0.1150 
    138 H138        4.2408  -16.4871  -50.3378 H         1 UNK         0.1150 
    139 H139        2.8584  -19.4153  -48.8160 H         1 UNK         0.0800 
    140 H140        4.1629  -18.2799  -48.7728 H         1 UNK         0.0800 
    141 H141        0.4943  -17.8989  -45.9037 H         1 UNK         0.0800 
    142 H142        0.2407  -17.6786  -47.6021 H         1 UNK         0.0800 
    143 H143        0.9377  -20.0911  -47.9899 H         1 UNK         0.0600 
    144 H144        1.7469  -20.0178  -45.2704 H         1 UNK         0.3000 
    145 H145        2.7685  -23.3454  -45.2500 H         1 UNK         0.0600 
    146 H146        3.8672  -22.0651  -43.4772 H         1 UNK         0.0600 
    147 H147        3.8913  -21.0991  -44.9429 H         1 UNK         0.0600 
    148 H148        2.7438  -20.7292  -43.6549 H         1 UNK         0.0600 
    149 H149        1.5942  -23.9675  -43.4469 H         1 UNK         0.3000 
    150 H150       -1.4161  -23.1287  -42.1768 H         1 UNK         0.0600 
    151 H151       -0.1442  -25.2019  -42.6511 H         1 UNK         0.0600 
    152 H152       -0.4634  -25.0502  -40.9346 H         1 UNK         0.0600 
    153 H153        1.1445  -24.7091  -41.5572 H         1 UNK         0.0600 
    154 H154       -0.9865  -21.8729  -40.4096 H         1 UNK         0.3000 
    155 H155        0.3268  -21.6224  -38.1802 H         1 UNK         0.0600 
    156 H156        2.8106  -21.6584  -38.0086 H         1 UNK         0.0600 
    157 H157        2.1805  -20.1151  -37.4553 H         1 UNK         0.0600 
    158 H158        2.9246  -20.2410  -39.0487 H         1 UNK         0.0600 
    159 H159        0.5538  -19.4780  -40.2272 H         1 UNK         0.3000 
    160 H160       -2.3210  -17.9030  -39.0731 H         1 UNK         0.0600 
    161 H161        0.4009  -16.6305  -38.4560 H         1 UNK         0.0600 
    162 H162       -1.1155  -15.7629  -38.6953 H         1 UNK         0.0600 
    163 H163       -0.9189  -16.8202  -37.3069 H         1 UNK         0.0600 
    164 H164       -0.2113  -16.9653  -40.7916 H         1 UNK         0.3000 
    165 H165       -0.8399  -18.9825  -43.5688 H         1 UNK         0.0600 
    166 H166       -1.5032  -16.9978  -44.8312 H         1 UNK         0.0600 
    167 H167       -2.8283  -17.4521  -43.7773 H         1 UNK         0.0600 
    168 H168       -1.7981  -16.0925  -43.3476 H         1 UNK         0.0600 
    169 H169        0.6060  -16.6072  -43.5136 H         1 UNK         0.3000 
    170 H170        3.2621  -17.1785  -41.4363 H         1 UNK         0.0600 
    171 H171        4.1806  -18.9175  -42.9133 H         1 UNK         0.0600 
    172 H172        3.6231  -18.0628  -44.3454 H         1 UNK         0.0600 
    173 H173        4.8893  -17.3697  -43.3333 H         1 UNK         0.0600 
    174 H174        3.1181  -15.6321  -43.8460 H         1 UNK         0.3000 
    175 H175        0.9207  -13.1621  -42.8174 H         1 UNK         0.0600 
    176 H176        3.9594  -12.7896  -42.6350 H         1 UNK         0.0600 
    177 H177        2.7704  -11.5107  -42.8871 H         1 UNK         0.0600 
    178 H178        2.8069  -12.3889  -41.3671 H         1 UNK         0.0600 
    179 H179        2.8457  -13.0254  -44.8542 H         1 UNK         0.3000 
    180 H180        2.3419  -14.8785  -47.0715 H         1 UNK         0.0600 
    181 H181       -0.0432  -15.2695  -47.5834 H         1 UNK         0.0600 
    182 H182       -0.3739  -13.5452  -47.5325 H         1 UNK         0.0600 
    183 H183        0.6714  -14.2136  -48.7875 H         1 UNK         0.0600 
    184 H184        3.2606  -12.9370  -47.5142 H         1 UNK         0.3000 
    185 H185        2.2715   -9.6124  -47.7421 H         1 UNK         0.0600 
    186 H186        2.8753   -9.6123  -45.3240 H         1 UNK         0.0600 
    187 H187        4.1951  -10.7342  -45.6306 H         1 UNK         0.0600 
    188 H188        4.2381   -9.1069  -46.3091 H         1 UNK         0.0600 
    189 H189        4.7525  -11.1409  -47.9786 H         1 UNK         0.3000 
    190 H190       -0.9376  -20.5734  -45.0414 H         1 UNK         0.3000 
    191 H191       -3.5255  -20.2210  -46.3590 H         1 UNK         0.0600 
    192 H192       -4.4157  -21.1927  -44.2460 H         1 UNK         0.0600 
    193 H193       -3.3287  -19.8537  -43.9307 H         1 UNK         0.0600 
    194 H194       -2.7817  -21.5104  -43.6820 H         1 UNK         0.0600 
    195 H195       -1.2455  -22.8729  -45.7617 H         1 UNK         0.3000 
    196 H196       -3.0326  -24.9953  -46.6324 H         1 UNK         0.0600 
    197 H197       -0.9946  -26.3981  -46.4836 H         1 UNK         0.0600 
    198 H198       -1.1916  -25.4410  -45.0242 H         1 UNK         0.0600 
    199 H199        0.0071  -24.9775  -46.2302 H         1 UNK         0.0600 
    200 H200       -0.5078  -22.9584  -48.1128 H         1 UNK         0.3000 
    201 H201       -0.5313  -24.1346  -50.7090 H         1 UNK         0.0600 
    202 H202        1.2543  -22.5819  -49.8604 H         1 UNK         0.0600 
    203 H203        0.1060  -21.2443  -49.9088 H         1 UNK         0.0600 
    204 H204        0.5888  -22.0420  -51.3955 H         1 UNK         0.0600 
    205 H205       -2.5169  -21.5227  -49.2522 H         1 UNK         0.3000 
    206 H206       -4.0261  -20.9533  -51.6242 H         1 UNK         0.0600 
    207 H207       -3.8293  -19.3369  -49.7656 H         1 UNK         0.0600 
    208 H208       -5.5174  -19.7230  -50.0610 H         1 UNK         0.0600 
    209 H209       -4.6836  -20.4289  -48.6803 H         1 UNK         0.0600 
    210 H210       -4.6619  -22.9905  -48.7523 H         1 UNK         0.3000 
    211 H211       -6.0385  -24.6385  -48.2568 H         1 UNK         0.0600 
    212 H212       -6.1635  -25.2491  -51.2593 H         1 UNK         0.0600 
    213 H213       -6.5199  -26.3599  -49.9477 H         1 UNK         0.0600 
    214 H214       -4.8778  -25.7795  -50.1787 H         1 UNK         0.0600 
    215 H215       -7.2494  -22.2990  -48.1055 H         1 UNK         0.3000 
    216 H216       -9.1259  -21.1069  -48.0699 H         1 UNK         0.0600 
    217 H217      -10.0684  -23.1678  -46.9961 H         1 UNK         0.0600 
    218 H218      -10.6262  -23.7322  -48.5705 H         1 UNK         0.0600 
    219 H219      -11.2893  -22.2616  -47.8733 H         1 UNK         0.0600 
    220 H220       -7.7155  -21.2542  -50.4842 H         1 UNK         0.3000 
    221 H221       -7.6497  -20.4104  -52.4954 H         1 UNK         0.0600 
    222 H222      -10.6221  -19.7088  -52.3575 H         1 UNK         0.0600 
    223 H223       -9.3170  -18.6911  -51.7467 H         1 UNK         0.0600 
    224 H224       -9.4275  -19.0480  -53.4613 H         1 UNK         0.0600 
    225 H225       -8.7351  -23.3058  -51.8696 H         1 UNK         0.3000 
    226 H226       -9.9101  -24.0789  -54.4185 H         1 UNK         0.0600 
    227 H227      -10.3230  -25.3358  -52.2747 H         1 UNK         0.0600 
    228 H228       -9.6946  -26.3570  -53.5603 H         1 UNK         0.0600 
    229 H229       -8.6312  -25.8359  -52.2636 H         1 UNK         0.0600 
    230 H230       -6.6481  -23.9419  -53.0113 H         1 UNK         0.3000 
    231 H231       -5.4108  -25.0144  -55.5134 H         1 UNK         0.0600 
    232 H232       -4.2904  -24.5585  -52.7050 H         1 UNK         0.0600 
    233 H233       -4.6327  -26.1067  -53.4655 H         1 UNK         0.0600 
    234 H234       -3.3394  -25.0901  -54.0863 H         1 UNK         0.0600 
    235 H235       -5.6768  -22.1890  -53.4114 H         1 UNK         0.3000 
    236 H236       -5.3253  -20.0229  -53.6416 H         1 UNK         0.0600 
    237 H237       -6.9343  -20.3625  -55.5275 H         1 UNK         0.0600 
    238 H238       -5.8675  -19.0012  -55.8205 H         1 UNK         0.0600 
    239 H239       -5.5857  -20.5268  -56.6502 H         1 UNK         0.0600 
    240 H240       -2.8923  -21.6854  -53.5749 H         1 UNK         0.3000 
    241 H241       -0.7246  -21.4753  -53.5400 H         1 UNK         0.0600 
    242 H242       -0.7701  -21.8779  -57.3717 H         1 UNK         0.3800 
    243 H243       -2.1275  -22.0010  -56.2782 H         1 UNK         0.3800 
    244 H244       -0.9589  -18.5077  -54.2087 H         1 UNK         0.0800 
    245 H245        0.4205  -19.3068  -53.4953 H         1 UNK         0.0800 
    246 H246       -1.2429  -16.7316  -52.4728 H         1 UNK         0.0800 
    247 H247       -1.5388  -16.9624  -50.7669 H         1 UNK         0.0800 
@<TRIPOS>BOND
     1    1    2 1    
     2    1  127 1    
     3    1  128 1    
     4    1  129 1    
     5    2    3 2    
     6    2    4 am   BACKBONE|DICT|INTERRES
     7    4    5 1    
     8    4  130 1    
     9    5    6 1    
    10    5   65 1    
    11    5  131 1    
    12    6    7 1    
    13    6  132 1    
    14    6  133 1    
    15    7    8 1    
    16    8    9 1    
    17    8  134 1    
    18    8  135 1    
    19    9   10 ar   
    20    9   14 ar   
    21   10   11 ar   
    22   10  136 1    
    23   11   12 ar   
    24   11  126 1    
    25   12   13 ar   
    26   12  137 1    
    27   13   14 ar   
    28   13   15 1    
    29   14  138 1    
    30   15   16 1    
    31   15  139 1    
    32   15  140 1    
    33   16   17 1    
    34   17   18 1    
    35   17  141 1    
    36   17  142 1    
    37   18   19 1    
    38   18   67 1    
    39   18  143 1    
    40   19   20 am   BACKBONE|DICT|INTERRES
    41   19  144 1    
    42   20   21 2    
    43   20   22 1    
    44   22   23 1    
    45   22   24 1    
    46   22  145 1    
    47   23  146 1    
    48   23  147 1    
    49   23  148 1    
    50   24   25 am   BACKBONE|DICT|INTERRES
    51   24  149 1    
    52   25   26 2    
    53   25   27 1    
    54   27   28 1    
    55   27   29 1    
    56   27  150 1    
    57   28  151 1    
    58   28  152 1    
    59   28  153 1    
    60   29   30 am   BACKBONE|DICT|INTERRES
    61   29  154 1    
    62   30   31 2    
    63   30   32 1    
    64   32   33 1    
    65   32   34 1    
    66   32  155 1    
    67   33  156 1    
    68   33  157 1    
    69   33  158 1    
    70   34   35 am   BACKBONE|DICT|INTERRES
    71   34  159 1    
    72   35   36 2    
    73   35   37 1    
    74   37   38 1    
    75   37   39 1    
    76   37  160 1    
    77   38  161 1    
    78   38  162 1    
    79   38  163 1    
    80   39   40 am   BACKBONE|DICT|INTERRES
    81   39  164 1    
    82   40   41 2    
    83   40   42 1    
    84   42   43 1    
    85   42   44 1    
    86   42  165 1    
    87   43  166 1    
    88   43  167 1    
    89   43  168 1    
    90   44   45 am   BACKBONE|DICT|INTERRES
    91   44  169 1    
    92   45   46 2    
    93   45   47 1    
    94   47   48 1    
    95   47   49 1    
    96   47  170 1    
    97   48  171 1    
    98   48  172 1    
    99   48  173 1    
   100   49   50 am   BACKBONE|DICT|INTERRES
   101   49  174 1    
   102   50   51 2    
   103   50   52 1    
   104   52   53 1    
   105   52   54 1    
   106   52  175 1    
   107   53  176 1    
   108   53  177 1    
   109   53  178 1    
   110   54   55 am   BACKBONE|DICT|INTERRES
   111   54  179 1    
   112   55   56 2    
   113   55   57 1    
   114   57   58 1    
   115   57   59 1    
   116   57  180 1    
   117   58  181 1    
   118   58  182 1    
   119   58  183 1    
   120   59   60 am   BACKBONE|DICT|INTERRES
   121   59  184 1    
   122   60   61 2    
   123   60   62 1    
   124   62   63 1    
   125   62   64 1    
   126   62  185 1    
   127   63  186 1    
   128   63  187 1    
   129   63  188 1    
   130   64   65 am   BACKBONE|DICT|INTERRES
   131   64  189 1    
   132   65   66 2    
   133   67   68 2    
   134   67   69 am   BACKBONE|DICT|INTERRES
   135   69   70 1    
   136   69  190 1    
   137   70   71 1    
   138   70   72 1    
   139   70  191 1    
   140   71  192 1    
   141   71  193 1    
   142   71  194 1    
   143   72   73 2    
   144   72   74 am   BACKBONE|DICT|INTERRES
   145   74   75 1    
   146   74  195 1    
   147   75   76 1    
   148   75   77 1    
   149   75  196 1    
   150   76  197 1    
   151   76  198 1    
   152   76  199 1    
   153   77   78 2    
   154   77   79 am   BACKBONE|DICT|INTERRES
   155   79   80 1    
   156   79  200 1    
   157   80   81 1    
   158   80   82 1    
   159   80  201 1    
   160   81  202 1    
   161   81  203 1    
   162   81  204 1    
   163   82   83 2    
   164   82   84 am   BACKBONE|DICT|INTERRES
   165   84   85 1    
   166   84  205 1    
   167   85   86 1    
   168   85   87 1    
   169   85  206 1    
   170   86  207 1    
   171   86  208 1    
   172   86  209 1    
   173   87   88 2    
   174   87   89 am   BACKBONE|DICT|INTERRES
   175   89   90 1    
   176   89  210 1    
   177   90   91 1    
   178   90   92 1    
   179   90  211 1    
   180   91  212 1    
   181   91  213 1    
   182   91  214 1    
   183   92   93 2    
   184   92   94 am   BACKBONE|DICT|INTERRES
   185   94   95 1    
   186   94  215 1    
   187   95   96 1    
   188   95   97 1    
   189   95  216 1    
   190   96  217 1    
   191   96  218 1    
   192   96  219 1    
   193   97   98 2    
   194   97   99 am   BACKBONE|DICT|INTERRES
   195   99  100 1    
   196   99  220 1    
   197  100  101 1    
   198  100  102 1    
   199  100  221 1    
   200  101  222 1    
   201  101  223 1    
   202  101  224 1    
   203  102  103 2    
   204  102  104 am   BACKBONE|DICT|INTERRES
   205  104  105 1    
   206  104  225 1    
   207  105  106 1    
   208  105  107 1    
   209  105  226 1    
   210  106  227 1    
   211  106  228 1    
   212  106  229 1    
   213  107  108 2    
   214  107  109 am   BACKBONE|DICT|INTERRES
   215  109  110 1    
   216  109  230 1    
   217  110  111 1    
   218  110  112 1    
   219  110  231 1    
   220  111  232 1    
   221  111  233 1    
   222  111  234 1    
   223  112  113 2    
   224  112  114 am   BACKBONE|DICT|INTERRES
   225  114  115 1    
   226  114  235 1    
   227  115  116 1    
   228  115  117 1    
   229  115  236 1    
   230  116  237 1    
   231  116  238 1    
   232  116  239 1    
   233  117  118 2    
   234  117  119 am   BACKBONE|DICT|INTERRES
   235  119  120 1    
   236  119  240 1    
   237  120  121 1    
   238  120  124 1    
   239  120  241 1    
   240  121  122 am   BACKBONE|DICT|INTERRES
   241  121  123 2    
   242  122  242 1    
   243  122  243 1    
   244  124  125 1    
   245  124  244 1    
   246  124  245 1    
   247  125  126 1    
   248  126  246 1    
   249  126  247 1    
@<TRIPOS>SUBSTRUCTURE
     1 UNK         1 GROUP             0       ****    0 ROOT    
