@<TRIPOS>MOLECULE
3R540
247   249    1
SMALL
USER_CHARGES


@<TRIPOS>ATOM
      1 CA         -2.0855  -13.8754  -49.0164 C.3       0 UNK        -0.1800 
      2 C          -0.5846  -13.8143  -48.7745 C.2       0 UNK         0.5000 
      3 O          -0.0011  -12.7331  -48.8294 O.2       0 UNK        -0.5000 
      4 N           0.0325  -14.9701  -48.5000 N.am      1 UNK        -0.5000 
      5 CA          1.4716  -15.1383  -48.2736 C.3       1 UNK         0.1400 
      6 C6          1.8463  -16.6373  -48.1660 C.3       23 UNK        -0.0398 
      7 S7          3.4653  -17.0187  -48.9171 S.3       23 UNK        -0.2404 
      8 C8          3.0368  -17.2375  -50.6778 C.3       23 UNK        -0.0205 
      9 C9          2.0020  -18.3325  -50.8856 C.ar      23 UNK        -0.0193 
     10 C10         0.6648  -17.9971  -51.1102 C.ar      23 UNK        -0.1150 
     11 C11        -0.3071  -18.9933  -51.2181 C.ar      23 UNK        -0.0193 
     12 C12         0.0764  -20.3360  -51.1641 C.ar      23 UNK        -0.1150 
     13 C13         1.4161  -20.6891  -50.9562 C.ar      23 UNK        -0.0193 
     14 C14         2.3720  -19.6779  -50.8179 C.ar      23 UNK        -0.1150 
     15 C15         1.8629  -22.1484  -50.8899 C.3       23 UNK        -0.0205 
     16 S16         0.6666  -23.2720  -50.0934 S.3       23 UNK        -0.2404 
     17 C17         0.5061  -22.5430  -48.4258 C.3       23 UNK        -0.0398 
     18 CA          0.3712  -23.6305  -47.3345 C.3       11 UNK         0.1400 
     19 N           0.7837  -23.1446  -46.0157 N.am      11 UNK        -0.5000 
     20 C           1.0588  -23.9406  -44.9730 C.2       10 UNK         0.5000 
     21 O           1.0142  -25.1689  -45.0215 O.2       10 UNK        -0.5000 
     22 CA          1.3829  -23.2447  -43.6409 C.3       10 UNK         0.1400 
     23 CB          2.8361  -22.7484  -43.6192 C.3       10 UNK        -0.1800 
     24 N           0.4732  -22.1294  -43.3798 N.am      10 UNK        -0.5000 
     25 C          -0.8273  -22.2819  -43.0875 C.2       9 UNK         0.5000 
     26 O          -1.3722  -23.3793  -42.9650 O.2       9 UNK        -0.5000 
     27 CA         -1.6723  -20.9998  -42.9509 C.3       9 UNK         0.1400 
     28 CB         -1.6558  -20.4982  -41.4996 C.3       9 UNK        -0.1800 
     29 N          -1.2429  -19.9157  -43.8352 N.am      9 UNK        -0.5000 
     30 C          -1.1882  -19.9778  -45.1734 C.2       8 UNK         0.5000 
     31 O          -1.5237  -20.9629  -45.8281 O.2       8 UNK        -0.5000 
     32 CA         -0.6148  -18.7519  -45.9043 C.3       8 UNK         0.1400 
     33 CB         -1.7542  -17.8382  -46.3702 C.3       8 UNK        -0.1800 
     34 N           0.3365  -17.9769  -45.1010 N.am      8 UNK        -0.5000 
     35 C           1.5037  -18.4415  -44.6286 C.2       7 UNK         0.5000 
     36 O           1.8812  -19.6031  -44.7852 O.2       7 UNK        -0.5000 
     37 CA          2.3916  -17.4595  -43.8436 C.3       7 UNK         0.1400 
     38 CB          3.6754  -17.1376  -44.6235 C.3       7 UNK        -0.1800 
     39 N           1.6964  -16.2096  -43.5173 N.am      7 UNK        -0.5000 
     40 C           1.0885  -15.9771  -42.3448 C.2       6 UNK         0.5000 
     41 O           1.0513  -16.7885  -41.4194 O.2       6 UNK        -0.5000 
     42 CA          0.3888  -14.6155  -42.1818 C.3       6 UNK         0.1400 
     43 CB          1.3934  -13.5452  -41.7312 C.3       6 UNK        -0.1800 
     44 N          -0.2780  -14.1730  -43.4059 N.am      6 UNK        -0.5000 
     45 C          -1.3715  -14.7445  -43.9269 C.2       5 UNK         0.5000 
     46 O          -1.9523  -15.6957  -43.4033 O.2       5 UNK        -0.5000 
     47 CA         -1.8629  -14.1968  -45.2814 C.3       5 UNK         0.1400 
     48 CB         -3.3761  -14.4067  -45.5100 C.3       5 UNK        -0.1800 
     49 N          -1.4579  -12.8087  -45.5381 N.am      5 UNK        -0.5000 
     50 C          -1.9359  -11.7038  -44.9492 C.2       4 UNK         0.5000 
     51 O          -2.7941  -11.7034  -44.0650 O.2       4 UNK        -0.5000 
     52 CA         -1.3223  -10.3806  -45.4462 C.3       4 UNK         0.1400 
     53 CB         -2.0654   -9.1322  -44.9252 C.3       4 UNK        -0.1800 
     54 N           0.1117  -10.2934  -45.1544 N.am      4 UNK        -0.5000 
     55 C           0.7054  -10.2970  -43.9533 C.2       3 UNK         0.5000 
     56 O           0.1023  -10.4191  -42.8868 O.2       3 UNK        -0.5000 
     57 CA          2.2410  -10.1407  -43.9584 C.3       3 UNK         0.1400 
     58 CB          2.8154   -9.8861  -42.5527 C.3       3 UNK        -0.1800 
     59 N           2.9226  -11.3004  -44.5344 N.am      3 UNK        -0.5000 
     60 C           2.9779  -11.6173  -45.8340 C.2       2 UNK         0.5000 
     61 O           2.4197  -10.9600  -46.7153 O.2       2 UNK        -0.5000 
     62 CA          3.8231  -12.8463  -46.2309 C.3       2 UNK         0.1400 
     63 CB          4.3389  -13.6826  -45.0384 C.3       2 UNK        -0.1800 
     64 N           3.1362  -13.6913  -47.2111 N.am      2 UNK        -0.5000 
     65 C           1.9839  -14.3541  -47.0452 C.2       1 UNK         0.5000 
     66 O           1.3583  -14.4079  -45.9815 O.2       1 UNK        -0.5000 
     67 C          -1.0451  -24.2443  -47.2975 C.2       11 UNK         0.5000 
     68 O          -1.2885  -25.2478  -47.9685 O.2       11 UNK        -0.5000 
     69 N          -1.9457  -23.6654  -46.4902 N.am      12 UNK        -0.5000 
     70 CA         -3.2869  -24.1865  -46.2210 C.3       12 UNK         0.1400 
     71 CB         -4.0801  -23.1853  -45.3701 C.3       12 UNK        -0.1800 
     72 C          -3.2581  -25.5750  -45.5598 C.2       12 UNK         0.5000 
     73 O          -4.0223  -26.4516  -45.9619 O.2       12 UNK        -0.5000 
     74 N          -2.3506  -25.7647  -44.5937 N.am      13 UNK        -0.5000 
     75 CA         -2.1080  -27.0513  -43.9451 C.3       13 UNK         0.1400 
     76 CB         -1.2551  -26.8345  -42.6855 C.3       13 UNK        -0.1800 
     77 C          -1.4454  -28.0751  -44.8869 C.2       13 UNK         0.5000 
     78 O          -1.8493  -29.2386  -44.8964 O.2       13 UNK        -0.5000 
     79 N          -0.4345  -27.6313  -45.6461 N.am      14 UNK        -0.5000 
     80 CA          0.3899  -28.4893  -46.4953 C.3       14 UNK         0.1400 
     81 CB          1.7156  -27.7764  -46.8046 C.3       14 UNK        -0.1800 
     82 C          -0.2901  -28.9285  -47.8036 C.2       14 UNK         0.5000 
     83 O          -0.1591  -30.0945  -48.1796 O.2       14 UNK        -0.5000 
     84 N          -0.9504  -27.9931  -48.4991 N.am      15 UNK        -0.5000 
     85 CA         -1.3587  -28.1595  -49.8976 C.3       15 UNK         0.1400 
     86 CB         -0.2471  -27.5876  -50.7991 C.3       15 UNK        -0.1800 
     87 C          -2.7257  -27.5311  -50.2251 C.2       15 UNK         0.5000 
     88 O          -3.0708  -27.4468  -51.4043 O.2       15 UNK        -0.5000 
     89 N          -3.4803  -27.1014  -49.2021 N.am      16 UNK        -0.5000 
     90 CA         -4.7763  -26.4121  -49.3006 C.3       16 UNK         0.1400 
     91 CB         -5.8493  -27.3153  -49.9460 C.3       16 UNK        -0.1800 
     92 C          -4.6865  -25.0137  -49.9548 C.2       16 UNK         0.5000 
     93 O          -5.6742  -24.5334  -50.5138 O.2       16 UNK        -0.5000 
     94 N          -3.5139  -24.3741  -49.8309 N.am      17 UNK        -0.5000 
     95 CA         -3.1728  -23.0341  -50.3137 C.3       17 UNK         0.1400 
     96 CB         -3.9412  -21.9527  -49.5190 C.3       17 UNK        -0.1800 
     97 C          -3.2809  -22.8983  -51.8495 C.2       17 UNK         0.5000 
     98 O          -2.9837  -23.8517  -52.5719 O.2       17 UNK        -0.5000 
     99 N          -3.6646  -21.7083  -52.3216 N.am      18 UNK        -0.5000 
    100 CA        -3.8009  -21.3440  -53.7254 C.3       18 UNK         0.1400 
    101 CB        -2.4200  -21.0690  -54.3529 C.3       18 UNK        -0.1800 
    102 C         -4.7086  -20.1115  -53.7777 C.2       18 UNK         0.5000 
    103 O         -4.2417  -18.9976  -53.5277 O.2       18 UNK        -0.5000 
    104 N         -5.9990  -20.3285  -54.0604 N.am      19 UNK        -0.5000 
    105 CA        -7.0546  -19.3071  -54.0534 C.3       19 UNK         0.1400 
    106 CB        -8.4049  -19.9826  -54.3355 C.3       19 UNK        -0.1800 
    107 C         -6.8267  -18.1335  -55.0281 C.2       19 UNK         0.5000 
    108 O         -7.3480  -17.0435  -54.7938 O.2       19 UNK        -0.5000 
    109 N         -6.0243  -18.3591  -56.0767 N.am      20 UNK        -0.5000 
    110 CA        -5.5983  -17.3461  -57.0429 C.3       20 UNK         0.1400 
    111 CB        -4.8696  -18.0446  -58.2013 C.3       20 UNK        -0.1800 
    112 C         -4.7080  -16.2390  -56.4389 C.2       20 UNK         0.5000 
    113 O         -4.6680  -15.1411  -56.9964 O.2       20 UNK        -0.5000 
    114 N         -4.0159  -16.5382  -55.3300 N.am      21 UNK        -0.5000 
    115 CA        -3.1300  -15.6089  -54.6268 C.3       21 UNK         0.1400 
    116 CB        -1.6939  -16.1570  -54.6606 C.3       21 UNK        -0.1800 
    117 C         -3.5947  -15.3444  -53.1844 C.2       21 UNK         0.5000 
    118 O         -3.5047  -14.2039  -52.7285 O.2       21 UNK        -0.5000 
    119 N         -4.0880  -16.3810  -52.4954 N.am      22 UNK        -0.5000 
    120 CA        -4.5670  -16.3108  -51.1038 C.3       22 UNK         0.1400 
    121 C         -6.0878  -16.0070  -50.9697 C.2       22 UNK         0.5000 
    122 N         -6.8589  -15.9135  -52.0452 N.am      22 UNK        -0.7600 
    123 O         -6.5813  -15.8318  -49.8593 O.2       22 UNK        -0.5000 
    124 C124       -4.1719  -17.5817  -50.3064 C.3       23 UNK        -0.0398 
    125 S125       -2.3828  -17.6656  -49.9561 S.3       23 UNK        -0.2404 
    126 C126       -1.7697  -18.6159  -51.3796 C.3       23 UNK        -0.0205 
    127 H127       -2.5130  -14.8158  -48.6683 H         1 UNK         0.0600 
    128 H128       -2.5860  -13.0616  -48.4919 H         1 UNK         0.0600 
    129 H129       -2.2956  -13.7749  -50.0812 H         1 UNK         0.0600 
    130 H130       -0.5148  -15.8177  -48.4845 H         1 UNK         0.3000 
    131 H131        1.9499  -14.7213  -49.1625 H         1 UNK         0.0600 
    132 H132        1.8684  -16.9706  -47.1308 H         1 UNK         0.0800 
    133 H133        1.0853  -17.2676  -48.6207 H         1 UNK         0.0800 
    134 H134        2.6793  -16.2897  -51.0829 H         1 UNK         0.0800 
    135 H135        3.9421  -17.4836  -51.2345 H         1 UNK         0.0800 
    136 H136        0.3692  -16.9580  -51.1540 H         1 UNK         0.1150 
    137 H137       -0.6723  -21.1064  -51.2746 H         1 UNK         0.1150 
    138 H138        3.4079  -19.9345  -50.6449 H         1 UNK         0.1150 
    139 H139        2.0438  -22.4990  -51.9066 H         1 UNK         0.0800 
    140 H140        2.8139  -22.2313  -50.3614 H         1 UNK         0.0800 
    141 H141       -0.3335  -21.8451  -48.4072 H         1 UNK         0.0800 
    142 H142        1.3973  -21.9429  -48.2356 H         1 UNK         0.0800 
    143 H143        1.0591  -24.4396  -47.5897 H         1 UNK         0.0600 
    144 H144        0.7983  -22.1442  -45.8783 H         1 UNK         0.3000 
    145 H145        1.2639  -23.9790  -42.8411 H         1 UNK         0.0600 
    146 H146        3.0792  -22.2808  -42.6650 H         1 UNK         0.0600 
    147 H147        3.5311  -23.5767  -43.7621 H         1 UNK         0.0600 
    148 H148        3.0289  -22.0204  -44.4078 H         1 UNK         0.0600 
    149 H149        0.8433  -21.1972  -43.5143 H         1 UNK         0.3000 
    150 H150       -2.7014  -21.2501  -43.2131 H         1 UNK         0.0600 
    151 H151       -1.9906  -21.2770  -40.8130 H         1 UNK         0.0600 
    152 H152       -2.3209  -19.6442  -41.3695 H         1 UNK         0.0600 
    153 H153       -0.6549  -20.1945  -41.1899 H         1 UNK         0.0600 
    154 H154       -0.9459  -19.0603  -43.3890 H         1 UNK         0.3000 
    155 H155       -0.0858  -19.1167  -46.7875 H         1 UNK         0.0600 
    156 H156       -1.3798  -17.0080  -46.9662 H         1 UNK         0.0600 
    157 H157       -2.3091  -17.4325  -45.5248 H         1 UNK         0.0600 
    158 H158       -2.4643  -18.3873  -46.9900 H         1 UNK         0.0600 
    159 H159        0.0838  -17.0249  -44.8849 H         1 UNK         0.3000 
    160 H160        2.6900  -17.9731  -42.9273 H         1 UNK         0.0600 
    161 H161        3.4741  -16.5619  -45.5253 H         1 UNK         0.0600 
    162 H162        4.1939  -18.0487  -44.9249 H         1 UNK         0.0600 
    163 H163        4.3682  -16.5635  -44.0085 H         1 UNK         0.0600 
    164 H164        1.6581  -15.4996  -44.2418 H         1 UNK         0.3000 
    165 H165       -0.3672  -14.7217  -41.4009 H         1 UNK         0.0600 
    166 H166        2.1415  -13.3443  -42.4976 H         1 UNK         0.0600 
    167 H167        0.8882  -12.6082  -41.4982 H         1 UNK         0.0600 
    168 H168        1.9217  -13.8583  -40.8297 H         1 UNK         0.0600 
    169 H169        0.1555  -13.4215  -43.9220 H         1 UNK         0.3000 
    170 H170       -1.3457  -14.7930  -46.0308 H         1 UNK         0.0600 
    171 H171       -3.6290  -15.4666  -45.5262 H         1 UNK         0.0600 
    172 H172       -3.9739  -13.9488  -44.7219 H         1 UNK         0.0600 
    173 H173       -3.6989  -13.9857  -46.4614 H         1 UNK         0.0600 
    174 H174       -0.7129  -12.6969  -46.2131 H         1 UNK         0.3000 
    175 H175       -1.4165  -10.3830  -46.5334 H         1 UNK         0.0600 
    176 H176       -1.6354   -8.2186  -45.3354 H         1 UNK         0.0600 
    177 H177       -3.1159   -9.1561  -45.2174 H         1 UNK         0.0600 
    178 H178       -2.0321   -9.0588  -43.8378 H         1 UNK         0.0600 
    179 H179        0.7277  -10.2758  -45.9627 H         1 UNK         0.3000 
    180 H180        2.4729   -9.2653  -44.5690 H         1 UNK         0.0600 
    181 H181        2.6531  -10.7351  -41.8879 H         1 UNK         0.0600 
    182 H182        2.3494   -9.0142  -42.0920 H         1 UNK         0.0600 
    183 H183        3.8877   -9.6939  -42.5941 H         1 UNK         0.0600 
    184 H184        3.4070  -11.8969  -43.8805 H         1 UNK         0.3000 
    185 H185        4.6982  -12.4451  -46.7439 H         1 UNK         0.0600 
    186 H186        4.9464  -14.5168  -45.3888 H         1 UNK         0.0600 
    187 H187        4.9749  -13.0887  -44.3811 H         1 UNK         0.0600 
    188 H188        3.5270  -14.0909  -44.4376 H         1 UNK         0.0600 
    189 H189        3.5610  -13.7037  -48.1275 H         1 UNK         0.3000 
    190 H190       -1.7014  -22.7859  -46.0408 H         1 UNK         0.3000 
    191 H191       -3.8037  -24.2860  -47.1737 H         1 UNK         0.0600 
    192 H192       -4.1050  -22.1999  -45.8358 H         1 UNK         0.0600 
    193 H193       -5.1127  -23.5140  -45.2478 H         1 UNK         0.0600 
    194 H194       -3.6540  -23.0767  -44.3740 H         1 UNK         0.0600 
    195 H195       -1.7896  -24.9798  -44.2820 H         1 UNK         0.3000 
    196 H196       -3.0707  -27.4612  -43.6320 H         1 UNK         0.0600 
    197 H197       -1.0728  -27.7779  -42.1695 H         1 UNK         0.0600 
    198 H198       -1.7559  -26.1694  -41.9816 H         1 UNK         0.0600 
    199 H199       -0.2853  -26.3967  -42.9237 H         1 UNK         0.0600 
    200 H200       -0.1237  -26.6706  -45.5353 H         1 UNK         0.3000 
    201 H201        0.6285  -29.3936  -45.9311 H         1 UNK         0.0600 
    202 H202        2.2618  -27.5455  -45.8898 H         1 UNK         0.0600 
    203 H203        1.5538  -26.8421  -47.3430 H         1 UNK         0.0600 
    204 H204        2.3633  -28.4021  -47.4199 H         1 UNK         0.0600 
    205 H205       -1.0095  -27.0445  -48.1330 H         1 UNK         0.3000 
    206 H206       -1.4703  -29.2206  -50.1284 H         1 UNK         0.0600 
    207 H207        0.7073  -28.0794  -50.6112 H         1 UNK         0.0600 
    208 H208       -0.4776  -27.7288  -51.8556 H         1 UNK         0.0600 
    209 H209       -0.1113  -26.5182  -50.6310 H         1 UNK         0.0600 
    210 H210       -3.1197  -27.2182  -48.2646 H         1 UNK         0.3000 
    211 H211       -5.1007  -26.2300  -48.2772 H         1 UNK         0.0600 
    212 H212       -5.8829  -28.2931  -49.4656 H         1 UNK         0.0600 
    213 H213       -5.6693  -27.4683  -51.0101 H         1 UNK         0.0600 
    214 H214       -6.8413  -26.8732  -49.8467 H         1 UNK         0.0600 
    215 H215       -2.7578  -24.8733  -49.3754 H         1 UNK         0.3000 
    216 H216       -2.1189  -22.9014  -50.0825 H         1 UNK         0.0600 
    217 H217       -3.8338  -22.1076  -48.4457 H         1 UNK         0.0600 
    218 H218       -5.0072  -21.9574  -49.7492 H         1 UNK         0.0600 
    219 H219       -3.5563  -20.9536  -49.7255 H         1 UNK         0.0600 
    220 H220       -3.9357  -20.9896  -51.6660 H         1 UNK         0.3000 
    221 H221       -4.2796  -22.1611  -54.2692 H         1 UNK         0.0600 
    222 H222       -1.8760  -20.2889  -53.8203 H         1 UNK         0.0600 
    223 H223       -1.7988  -21.9646  -54.3521 H         1 UNK         0.0600 
    224 H224       -2.5218  -20.7468  -55.3898 H         1 UNK         0.0600 
    225 H225       -6.3022  -21.2749  -54.2410 H         1 UNK         0.3000 
    226 H226       -7.0900  -18.8828  -53.0478 H         1 UNK         0.0600 
    227 H227       -8.6287  -20.7454  -53.5895 H         1 UNK         0.0600 
    228 H228       -9.2191  -19.2570  -54.3090 H         1 UNK         0.0600 
    229 H229       -8.4195  -20.4569  -55.3176 H         1 UNK         0.0600 
    230 H230       -5.6441  -19.2863  -56.1945 H         1 UNK         0.3000 
    231 H231       -6.4938  -16.8647  -57.4414 H         1 UNK         0.0600 
    232 H232       -5.5144  -18.7742  -58.6914 H         1 UNK         0.0600 
    233 H233       -3.9735  -18.5633  -57.8579 H         1 UNK         0.0600 
    234 H234       -4.5612  -17.3244  -58.9604 H         1 UNK         0.0600 
    235 H235       -4.1218  -17.4604  -54.9241 H         1 UNK         0.3000 
    236 H236       -3.1188  -14.6374  -55.1252 H         1 UNK         0.0600 
    237 H237       -1.2836  -16.1003  -55.6688 H         1 UNK         0.0600 
    238 H238       -1.0327  -15.5848  -54.0083 H         1 UNK         0.0600 
    239 H239       -1.6493  -17.2001  -54.3505 H         1 UNK         0.0600 
    240 H240       -4.1290  -17.3009  -52.9264 H         1 UNK         0.3000 
    241 H241       -4.0800  -15.4670  -50.6129 H         1 UNK         0.0600 
    242 H242       -7.8374  -15.7046  -51.9275 H         1 UNK         0.3800 
    243 H243       -6.4972  -16.0619  -52.9759 H         1 UNK         0.3800 
    244 H244       -4.6684  -17.5984  -49.3346 H         1 UNK         0.0800 
    245 H245       -4.5005  -18.4843  -50.8226 H         1 UNK         0.0800 
    246 H246       -1.8894  -18.0307  -52.2877 H         1 UNK         0.0800 
    247 H247       -2.3799  -19.5076  -51.4966 H         1 UNK         0.0800 
@<TRIPOS>BOND
     1    1    2 1    
     2    1  127 1    
     3    1  128 1    
     4    1  129 1    
     5    2    3 2    
     6    2    4 am   BACKBONE|DICT|INTERRES
     7    4    5 1    
     8    4  130 1    
     9    5    6 1    
    10    5   65 1    
    11    5  131 1    
    12    6    7 1    
    13    6  132 1    
    14    6  133 1    
    15    7    8 1    
    16    8    9 1    
    17    8  134 1    
    18    8  135 1    
    19    9   10 ar   
    20    9   14 ar   
    21   10   11 ar   
    22   10  136 1    
    23   11   12 ar   
    24   11  126 1    
    25   12   13 ar   
    26   12  137 1    
    27   13   14 ar   
    28   13   15 1    
    29   14  138 1    
    30   15   16 1    
    31   15  139 1    
    32   15  140 1    
    33   16   17 1    
    34   17   18 1    
    35   17  141 1    
    36   17  142 1    
    37   18   19 1    
    38   18   67 1    
    39   18  143 1    
    40   19   20 am   BACKBONE|DICT|INTERRES
    41   19  144 1    
    42   20   21 2    
    43   20   22 1    
    44   22   23 1    
    45   22   24 1    
    46   22  145 1    
    47   23  146 1    
    48   23  147 1    
    49   23  148 1    
    50   24   25 am   BACKBONE|DICT|INTERRES
    51   24  149 1    
    52   25   26 2    
    53   25   27 1    
    54   27   28 1    
    55   27   29 1    
    56   27  150 1    
    57   28  151 1    
    58   28  152 1    
    59   28  153 1    
    60   29   30 am   BACKBONE|DICT|INTERRES
    61   29  154 1    
    62   30   31 2    
    63   30   32 1    
    64   32   33 1    
    65   32   34 1    
    66   32  155 1    
    67   33  156 1    
    68   33  157 1    
    69   33  158 1    
    70   34   35 am   BACKBONE|DICT|INTERRES
    71   34  159 1    
    72   35   36 2    
    73   35   37 1    
    74   37   38 1    
    75   37   39 1    
    76   37  160 1    
    77   38  161 1    
    78   38  162 1    
    79   38  163 1    
    80   39   40 am   BACKBONE|DICT|INTERRES
    81   39  164 1    
    82   40   41 2    
    83   40   42 1    
    84   42   43 1    
    85   42   44 1    
    86   42  165 1    
    87   43  166 1    
    88   43  167 1    
    89   43  168 1    
    90   44   45 am   BACKBONE|DICT|INTERRES
    91   44  169 1    
    92   45   46 2    
    93   45   47 1    
    94   47   48 1    
    95   47   49 1    
    96   47  170 1    
    97   48  171 1    
    98   48  172 1    
    99   48  173 1    
   100   49   50 am   BACKBONE|DICT|INTERRES
   101   49  174 1    
   102   50   51 2    
   103   50   52 1    
   104   52   53 1    
   105   52   54 1    
   106   52  175 1    
   107   53  176 1    
   108   53  177 1    
   109   53  178 1    
   110   54   55 am   BACKBONE|DICT|INTERRES
   111   54  179 1    
   112   55   56 2    
   113   55   57 1    
   114   57   58 1    
   115   57   59 1    
   116   57  180 1    
   117   58  181 1    
   118   58  182 1    
   119   58  183 1    
   120   59   60 am   BACKBONE|DICT|INTERRES
   121   59  184 1    
   122   60   61 2    
   123   60   62 1    
   124   62   63 1    
   125   62   64 1    
   126   62  185 1    
   127   63  186 1    
   128   63  187 1    
   129   63  188 1    
   130   64   65 am   BACKBONE|DICT|INTERRES
   131   64  189 1    
   132   65   66 2    
   133   67   68 2    
   134   67   69 am   BACKBONE|DICT|INTERRES
   135   69   70 1    
   136   69  190 1    
   137   70   71 1    
   138   70   72 1    
   139   70  191 1    
   140   71  192 1    
   141   71  193 1    
   142   71  194 1    
   143   72   73 2    
   144   72   74 am   BACKBONE|DICT|INTERRES
   145   74   75 1    
   146   74  195 1    
   147   75   76 1    
   148   75   77 1    
   149   75  196 1    
   150   76  197 1    
   151   76  198 1    
   152   76  199 1    
   153   77   78 2    
   154   77   79 am   BACKBONE|DICT|INTERRES
   155   79   80 1    
   156   79  200 1    
   157   80   81 1    
   158   80   82 1    
   159   80  201 1    
   160   81  202 1    
   161   81  203 1    
   162   81  204 1    
   163   82   83 2    
   164   82   84 am   BACKBONE|DICT|INTERRES
   165   84   85 1    
   166   84  205 1    
   167   85   86 1    
   168   85   87 1    
   169   85  206 1    
   170   86  207 1    
   171   86  208 1    
   172   86  209 1    
   173   87   88 2    
   174   87   89 am   BACKBONE|DICT|INTERRES
   175   89   90 1    
   176   89  210 1    
   177   90   91 1    
   178   90   92 1    
   179   90  211 1    
   180   91  212 1    
   181   91  213 1    
   182   91  214 1    
   183   92   93 2    
   184   92   94 am   BACKBONE|DICT|INTERRES
   185   94   95 1    
   186   94  215 1    
   187   95   96 1    
   188   95   97 1    
   189   95  216 1    
   190   96  217 1    
   191   96  218 1    
   192   96  219 1    
   193   97   98 2    
   194   97   99 am   BACKBONE|DICT|INTERRES
   195   99  100 1    
   196   99  220 1    
   197  100  101 1    
   198  100  102 1    
   199  100  221 1    
   200  101  222 1    
   201  101  223 1    
   202  101  224 1    
   203  102  103 2    
   204  102  104 am   BACKBONE|DICT|INTERRES
   205  104  105 1    
   206  104  225 1    
   207  105  106 1    
   208  105  107 1    
   209  105  226 1    
   210  106  227 1    
   211  106  228 1    
   212  106  229 1    
   213  107  108 2    
   214  107  109 am   BACKBONE|DICT|INTERRES
   215  109  110 1    
   216  109  230 1    
   217  110  111 1    
   218  110  112 1    
   219  110  231 1    
   220  111  232 1    
   221  111  233 1    
   222  111  234 1    
   223  112  113 2    
   224  112  114 am   BACKBONE|DICT|INTERRES
   225  114  115 1    
   226  114  235 1    
   227  115  116 1    
   228  115  117 1    
   229  115  236 1    
   230  116  237 1    
   231  116  238 1    
   232  116  239 1    
   233  117  118 2    
   234  117  119 am   BACKBONE|DICT|INTERRES
   235  119  120 1    
   236  119  240 1    
   237  120  121 1    
   238  120  124 1    
   239  120  241 1    
   240  121  122 am   BACKBONE|DICT|INTERRES
   241  121  123 2    
   242  122  242 1    
   243  122  243 1    
   244  124  125 1    
   245  124  244 1    
   246  124  245 1    
   247  125  126 1    
   248  126  246 1    
   249  126  247 1    
@<TRIPOS>SUBSTRUCTURE
     1 UNK         1 GROUP             0       ****    0 ROOT    
