@<TRIPOS>MOLECULE
3R540
247   249    1
SMALL
USER_CHARGES


@<TRIPOS>ATOM
      1 CA         -3.0914  -11.9021  -49.2991 C.3       0 UNK        -0.1800 
      2 C          -1.8483  -12.1217  -48.4495 C.2       0 UNK         0.5000 
      3 O          -1.7486  -11.5706  -47.3528 O.2       0 UNK        -0.5000 
      4 N          -0.9064  -12.9400  -48.9394 N.am      1 UNK        -0.5000 
      5 CA          0.3675  -13.2601  -48.2789 C.3       1 UNK         0.1400 
      6 C6          1.3571  -13.9972  -49.2156 C.3       23 UNK        -0.0398 
      7 S7          0.6936  -15.4964  -50.0269 S.3       23 UNK        -0.2404 
      8 C8          1.0739  -16.7885  -48.7976 C.3       23 UNK        -0.0205 
      9 C9          1.3174  -18.1504  -49.4336 C.ar      23 UNK        -0.0193 
     10 C10         0.3731  -18.7249  -50.2916 C.ar      23 UNK        -0.1150 
     11 C11         0.5982  -19.9847  -50.8550 C.ar      23 UNK        -0.0193 
     12 C12         1.7713  -20.6767  -50.5438 C.ar      23 UNK        -0.1150 
     13 C13         2.7178  -20.1185  -49.6825 C.ar      23 UNK        -0.0193 
     14 C14         2.4877  -18.8536  -49.1354 C.ar      23 UNK        -0.1150 
     15 C15         3.9864  -20.8839  -49.3372 C.3       23 UNK        -0.0205 
     16 S16         3.6508  -22.3905  -48.3696 S.3       23 UNK        -0.2404 
     17 C17         2.8281  -21.7185  -46.8851 C.3       23 UNK        -0.0398 
     18 CA          1.5302  -22.4773  -46.5221 C.3       11 UNK         0.1400 
     19 N           1.1534  -22.2429  -45.1271 N.am      11 UNK        -0.5000 
     20 C           0.2413  -22.9548  -44.4524 C.2       10 UNK         0.5000 
     21 O          -0.3497  -23.9271  -44.9214 O.2       10 UNK        -0.5000 
     22 CA         -0.0948  -22.4733  -43.0288 C.3       10 UNK         0.1400 
     23 CB          0.9397  -22.9900  -42.0181 C.3       10 UNK        -0.1800 
     24 N          -0.1882  -21.0151  -42.9354 N.am      10 UNK        -0.5000 
     25 C          -1.1048  -20.2728  -43.5724 C.2       9 UNK         0.5000 
     26 O          -2.0011  -20.7471  -44.2675 O.2       9 UNK        -0.5000 
     27 CA         -0.9731  -18.7446  -43.4549 C.3       9 UNK         0.1400 
     28 CB         -1.5424  -18.2528  -42.1162 C.3       9 UNK        -0.1800 
     29 N           0.4074  -18.2856  -43.6154 N.am      9 UNK        -0.5000 
     30 C           1.1347  -18.4415  -44.7318 C.2       8 UNK         0.5000 
     31 O           0.6954  -18.9284  -45.7715 O.2       8 UNK        -0.5000 
     32 CA          2.6175  -18.0419  -44.6588 C.3       8 UNK         0.1400 
     33 CB          2.8032  -16.5377  -44.9055 C.3       8 UNK        -0.1800 
     34 N           3.2144  -18.4165  -43.3773 N.am      8 UNK        -0.5000 
     35 C           3.4466  -19.6816  -42.9981 C.2       7 UNK         0.5000 
     36 O           3.2232  -20.6591  -43.7117 O.2       7 UNK        -0.5000 
     37 CA          3.9706  -19.8893  -41.5653 C.3       7 UNK         0.1400 
     38 CB          5.4928  -19.6931  -41.5111 C.3       7 UNK        -0.1800 
     39 N           3.3305  -18.9907  -40.6037 N.am      7 UNK        -0.5000 
     40 C           2.0330  -19.0397  -40.2683 C.2       6 UNK         0.5000 
     41 O           1.2555  -19.8975  -40.6838 O.2       6 UNK        -0.5000 
     42 CA          1.5062  -17.9108  -39.3603 C.3       6 UNK         0.1400 
     43 CB          1.6350  -18.3039  -37.8815 C.3       6 UNK        -0.1800 
     44 N           2.1845  -16.6301  -39.5849 N.am      6 UNK        -0.5000 
     45 C           2.1490  -15.9458  -40.7357 C.2       5 UNK         0.5000 
     46 O           1.5125  -16.3077  -41.7277 O.2       5 UNK        -0.5000 
     47 CA          3.0421  -14.7030  -40.8145 C.3       5 UNK         0.1400 
     48 CB          4.5036  -15.1308  -41.0661 C.3       5 UNK        -0.1800 
     49 N           2.5762  -13.8350  -41.8930 N.am      5 UNK        -0.5000 
     50 C           2.9900  -12.5797  -42.1043 C.2       4 UNK         0.5000 
     51 O           3.7822  -11.9884  -41.3689 O.2       4 UNK        -0.5000 
     52 CA          2.4422  -11.8566  -43.3474 C.3       4 UNK         0.1400 
     53 CB          3.3102  -12.1784  -44.5737 C.3       4 UNK        -0.1800 
     54 N           1.0406  -12.1638  -43.6415 N.am      4 UNK        -0.5000 
     55 C           0.0062  -11.7221  -42.9078 C.2       3 UNK         0.5000 
     56 O           0.1444  -11.0712  -41.8711 O.2       3 UNK        -0.5000 
     57 CA         -1.4237  -12.0110  -43.4138 C.3       3 UNK         0.1400 
     58 CB         -2.0681  -10.7272  -43.9598 C.3       3 UNK        -0.1800 
     59 N          -1.4847  -13.0398  -44.4507 N.am      3 UNK        -0.5000 
     60 C          -1.3446  -14.3526  -44.2216 C.2       2 UNK         0.5000 
     61 O          -1.2137  -14.8288  -43.0962 O.2       2 UNK        -0.5000 
     62 CA         -1.3239  -15.2894  -45.4480 C.3       2 UNK         0.1400 
     63 CB         -2.6934  -15.9592  -45.6346 C.3       2 UNK        -0.1800 
     64 N          -0.9493  -14.6290  -46.7010 N.am      2 UNK        -0.5000 
     65 C           0.2092  -13.9938  -46.9298 C.2       1 UNK         0.5000 
     66 O           1.1183  -13.9338  -46.1041 O.2       1 UNK        -0.5000 
     67 C           0.3595  -22.1900  -47.4922 C.2       11 UNK         0.5000 
     68 O           0.1343  -22.9733  -48.4146 O.2       11 UNK        -0.5000 
     69 N          -0.4118  -21.1236  -47.2327 N.am      12 UNK        -0.5000 
     70 CA         -1.6453  -20.8069  -47.9543 C.3       12 UNK         0.1400 
     71 CB         -2.1357  -19.4035  -47.5696 C.3       12 UNK        -0.1800 
     72 C          -2.7438  -21.8621  -47.7326 C.2       12 UNK         0.5000 
     73 O          -3.3643  -22.2998  -48.6999 O.2       12 UNK        -0.5000 
     74 N          -2.9288  -22.2950  -46.4771 N.am      13 UNK        -0.5000 
     75 CA         -3.8827  -23.3347  -46.0798 C.3       13 UNK         0.1400 
     76 CB         -3.9340  -23.4280  -44.5480 C.3       13 UNK        -0.1800 
     77 C          -3.5917  -24.7163  -46.6977 C.2       13 UNK         0.5000 
     78 O          -4.5253  -25.4902  -46.9109 O.2       13 UNK        -0.5000 
     79 N          -2.3213  -24.9940  -47.0245 N.am      14 UNK        -0.5000 
     80 CA         -1.8960  -26.1873  -47.7617 C.3       14 UNK         0.1400 
     81 CB         -0.3681  -26.3249  -47.6836 C.3       14 UNK        -0.1800 
     82 C          -2.3816  -26.2053  -49.2283 C.2       14 UNK         0.5000 
     83 O          -2.4550  -27.2821  -49.8206 O.2       14 UNK        -0.5000 
     84 N          -2.7469  -25.0350  -49.7722 N.am      15 UNK        -0.5000 
     85 CA         -3.4096  -24.8659  -51.0672 C.3       15 UNK         0.1400 
     86 CB         -2.7774  -23.6706  -51.8022 C.3       15 UNK        -0.1800 
     87 C          -4.9365  -24.6956  -50.9030 C.2       15 UNK         0.5000 
     88 O          -5.5918  -24.1838  -51.8138 O.2       15 UNK        -0.5000 
     89 N          -5.4803  -25.1173  -49.7496 N.am      16 UNK        -0.5000 
     90 CA         -6.8804  -25.0326  -49.3321 C.3       16 UNK         0.1400 
     91 CB         -7.7709  -25.9484  -50.2026 C.3       16 UNK        -0.1800 
     92 C          -7.3479  -23.5668  -49.2650 C.2       16 UNK         0.5000 
     93 O          -6.9404  -22.8451  -48.3542 O.2       16 UNK        -0.5000 
     94 N          -8.1778  -23.1501  -50.2286 N.am      17 UNK        -0.5000 
     95 CA         -8.6506  -21.7751  -50.3819 C.3       17 UNK         0.1400 
     96 CB         -9.9058  -21.7848  -51.2696 C.3       17 UNK        -0.1800 
     97 C          -7.5882  -20.8261  -50.9724 C.2       17 UNK         0.5000 
     98 O          -7.7577  -19.6111  -50.8645 O.2       17 UNK        -0.5000 
     99 N          -6.5434  -21.3853  -51.6086 N.am      18 UNK        -0.5000 
    100 CA        -5.4824  -20.6883  -52.3476 C.3       18 UNK         0.1400 
    101 CB        -4.5833  -19.8761  -51.3917 C.3       18 UNK        -0.1800 
    102 C         -6.0387  -19.8537  -53.5233 C.2       18 UNK         0.5000 
    103 O         -5.5637  -18.7477  -53.7873 O.2       18 UNK        -0.5000 
    104 N         -7.0565  -20.4040  -54.1996 N.am      19 UNK        -0.5000 
    105 CA        -7.7859  -19.7624  -55.2956 C.3       19 UNK         0.1400 
    106 CB        -9.1931  -20.3772  -55.3649 C.3       19 UNK        -0.1800 
    107 C         -7.0778  -19.8769  -56.6607 C.2       19 UNK         0.5000 
    108 O         -7.4593  -19.1716  -57.5959 O.2       19 UNK        -0.5000 
    109 N         -6.0783  -20.7597  -56.7590 N.am      20 UNK        -0.5000 
    110 CA        -5.2490  -20.9879  -57.9386 C.3       20 UNK         0.1400 
    111 CB        -5.6215  -22.3461  -58.5552 C.3       20 UNK        -0.1800 
    112 C         -3.7721  -20.9634  -57.5213 C.2       20 UNK         0.5000 
    113 O         -3.4686  -21.1503  -56.3386 O.2       20 UNK        -0.5000 
    114 N         -2.8841  -20.7368  -58.5000 N.am      21 UNK        -0.5000 
    115 CA        -1.4314  -20.5901  -58.3529 C.3       21 UNK         0.1400 
    116 CB        -0.7815  -21.9372  -57.9604 C.3       21 UNK        -0.1800 
    117 C         -1.0903  -19.4196  -57.4068 C.2       21 UNK         0.5000 
    118 O         -1.3223  -18.2666  -57.7744 O.2       21 UNK        -0.5000 
    119 N         -0.5841  -19.7302  -56.2088 N.am      22 UNK        -0.5000 
    120 CA        -0.3853  -18.7831  -55.1009 C.3       22 UNK         0.1400 
    121 C         -1.6961  -18.2960  -54.4127 C.2       22 UNK         0.5000 
    122 N         -2.8439  -18.9122  -54.6626 N.am      22 UNK        -0.7600 
    123 O         -1.6689  -17.3340  -53.6508 O.2       22 UNK        -0.5000 
    124 C124        0.6362  -19.3265  -54.0699 C.3       23 UNK        -0.0398 
    125 S125        0.2294  -20.9924  -53.4289 S.3       23 UNK        -0.2404 
    126 C126       -0.4374  -20.6119  -51.7766 C.3       23 UNK        -0.0205 
    127 H127       -3.1982  -10.8445  -49.5399 H         1 UNK         0.0600 
    128 H128       -3.9795  -12.2201  -48.7530 H         1 UNK         0.0600 
    129 H129       -3.0476  -12.4616  -50.2338 H         1 UNK         0.0600 
    130 H130       -1.0485  -13.3819  -49.8373 H         1 UNK         0.3000 
    131 H131        0.8297  -12.3022  -48.0302 H         1 UNK         0.0600 
    132 H132        2.2869  -14.2353  -48.6955 H         1 UNK         0.0800 
    133 H133        1.6517  -13.3143  -50.0135 H         1 UNK         0.0800 
    134 H134        0.2497  -16.8710  -48.0887 H         1 UNK         0.0800 
    135 H135        1.9478  -16.4892  -48.2191 H         1 UNK         0.0800 
    136 H136       -0.5374  -18.1883  -50.5190 H         1 UNK         0.1150 
    137 H137        1.9418  -21.6582  -50.9635 H         1 UNK         0.1150 
    138 H138        3.2168  -18.4214  -48.4647 H         1 UNK         0.1150 
    139 H139        4.4955  -21.1632  -50.2606 H         1 UNK         0.0800 
    140 H140        4.6831  -20.2536  -48.7823 H         1 UNK         0.0800 
    141 H141        2.6365  -20.6500  -46.9829 H         1 UNK         0.0800 
    142 H142        3.5489  -21.8141  -46.0725 H         1 UNK         0.0800 
    143 H143        1.7457  -23.5455  -46.6006 H         1 UNK         0.0600 
    144 H144        1.6351  -21.4898  -44.6472 H         1 UNK         0.3000 
    145 H145       -1.0680  -22.8875  -42.7584 H         1 UNK         0.0600 
    146 H146        0.6662  -22.7143  -40.9995 H         1 UNK         0.0600 
    147 H147        1.9337  -22.5889  -42.2167 H         1 UNK         0.0600 
    148 H148        1.0105  -24.0778  -42.0534 H         1 UNK         0.0600 
    149 H149        0.4781  -20.5527  -42.3233 H         1 UNK         0.3000 
    150 H150       -1.5606  -18.3005  -44.2593 H         1 UNK         0.0600 
    151 H151       -2.6082  -18.4723  -42.0460 H         1 UNK         0.0600 
    152 H152       -1.4234  -17.1765  -42.0020 H         1 UNK         0.0600 
    153 H153       -1.0560  -18.7314  -41.2674 H         1 UNK         0.0600 
    154 H154        0.8286  -17.8085  -42.8243 H         1 UNK         0.3000 
    155 H155        3.1474  -18.5787  -45.4486 H         1 UNK         0.0600 
    156 H156        2.4647  -16.2697  -45.9055 H         1 UNK         0.0600 
    157 H157        3.8512  -16.2478  -44.8308 H         1 UNK         0.0600 
    158 H158        2.2355  -15.9305  -44.2011 H         1 UNK         0.0600 
    159 H159        3.3666  -17.6728  -42.7134 H         1 UNK         0.3000 
    160 H160        3.7466  -20.9175  -41.2733 H         1 UNK         0.0600 
    161 H161        5.7790  -18.6725  -41.7686 H         1 UNK         0.0600 
    162 H162        5.9970  -20.3620  -42.2100 H         1 UNK         0.0600 
    163 H163        5.8828  -19.9105  -40.5166 H         1 UNK         0.0600 
    164 H164        3.9036  -18.2621  -40.2056 H         1 UNK         0.3000 
    165 H165        0.4471  -17.7720  -39.5857 H         1 UNK         0.0600 
    166 H166        1.1923  -17.5481  -37.2324 H         1 UNK         0.0600 
    167 H167        1.1192  -19.2442  -37.6817 H         1 UNK         0.0600 
    168 H168        2.6773  -18.4321  -37.5870 H         1 UNK         0.0600 
    169 H169        2.7367  -16.2738  -38.8179 H         1 UNK         0.3000 
    170 H170        2.9694  -14.1634  -39.8682 H         1 UNK         0.0600 
    171 H171        4.6144  -15.6304  -42.0293 H         1 UNK         0.0600 
    172 H172        5.1804  -14.2767  -41.0565 H         1 UNK         0.0600 
    173 H173        4.8550  -15.8184  -40.2960 H         1 UNK         0.0600 
    174 H174        1.8851  -14.2529  -42.5041 H         1 UNK         0.3000 
    175 H175        2.5156  -10.7826  -43.1626 H         1 UNK         0.0600 
    176 H176        3.3245  -13.2478  -44.7877 H         1 UNK         0.0600 
    177 H177        2.9486  -11.6620  -45.4631 H         1 UNK         0.0600 
    178 H178        4.3425  -11.8655  -44.4123 H         1 UNK         0.0600 
    179 H179        0.8642  -12.7172  -44.4731 H         1 UNK         0.3000 
    180 H180       -2.0115  -12.3465  -42.5567 H         1 UNK         0.0600 
    181 H181       -3.0960  -10.9046  -44.2768 H         1 UNK         0.0600 
    182 H182       -1.5168  -10.3344  -44.8152 H         1 UNK         0.0600 
    183 H183       -2.0936   -9.9462  -43.1988 H         1 UNK         0.0600 
    184 H184       -1.5827  -12.7147  -45.4052 H         1 UNK         0.3000 
    185 H185       -0.5821  -16.0641  -45.2499 H         1 UNK         0.0600 
    186 H186       -3.4616  -15.2323  -45.9011 H         1 UNK         0.0600 
    187 H187       -2.6591  -16.7148  -46.4190 H         1 UNK         0.0600 
    188 H188       -3.0187  -16.4547  -44.7190 H         1 UNK         0.0600 
    189 H189       -1.6460  -14.6150  -47.4311 H         1 UNK         0.3000 
    190 H190       -0.1308  -20.4747  -46.5027 H         1 UNK         0.3000 
    191 H191       -1.4146  -20.7983  -49.0197 H         1 UNK         0.0600 
    192 H192       -1.3773  -18.6509  -47.7819 H         1 UNK         0.0600 
    193 H193       -2.3836  -19.3363  -46.5107 H         1 UNK         0.0600 
    194 H194       -3.0288  -19.1349  -48.1349 H         1 UNK         0.0600 
    195 H195       -2.4118  -21.8447  -45.7253 H         1 UNK         0.3000 
    196 H196       -4.8680  -23.0244  -46.4333 H         1 UNK         0.0600 
    197 H197       -4.2185  -22.4742  -44.1034 H         1 UNK         0.0600 
    198 H198       -2.9700  -23.7188  -44.1311 H         1 UNK         0.0600 
    199 H199       -4.6676  -24.1681  -44.2260 H         1 UNK         0.0600 
    200 H200       -1.5999  -24.3305  -46.7697 H         1 UNK         0.3000 
    201 H201       -2.3340  -27.0552  -47.2645 H         1 UNK         0.0600 
    202 H202       -0.0190  -26.2990  -46.6511 H         1 UNK         0.0600 
    203 H203        0.1391  -25.5313  -48.2304 H         1 UNK         0.0600 
    204 H204       -0.0426  -27.2727  -48.1138 H         1 UNK         0.0600 
    205 H205       -2.6862  -24.1936  -49.2079 H         1 UNK         0.3000 
    206 H206       -3.2550  -25.7531  -51.6839 H         1 UNK         0.0600 
    207 H207       -2.9713  -22.7308  -51.2855 H         1 UNK         0.0600 
    208 H208       -1.6975  -23.7896  -51.8911 H         1 UNK         0.0600 
    209 H209       -3.1746  -23.5748  -52.8134 H         1 UNK         0.0600 
    210 H210       -4.8532  -25.4567  -49.0309 H         1 UNK         0.3000 
    211 H211       -6.9233  -25.4128  -48.3106 H         1 UNK         0.0600 
    212 H212       -7.7481  -25.6778  -51.2585 H         1 UNK         0.0600 
    213 H213       -8.8098  -25.9127  -49.8723 H         1 UNK         0.0600 
    214 H214       -7.4473  -26.9865  -50.1256 H         1 UNK         0.0600 
    215 H215       -8.4483  -23.8072  -50.9460 H         1 UNK         0.3000 
    216 H216       -8.9290  -21.3881  -49.3993 H         1 UNK         0.0600 
    217 H217      -10.3114  -20.7788  -51.3854 H         1 UNK         0.0600 
    218 H218      -10.6922  -22.4018  -50.8346 H         1 UNK         0.0600 
    219 H219       -9.6907  -22.1677  -52.2680 H         1 UNK         0.0600 
    220 H220       -6.4769  -22.3989  -51.6222 H         1 UNK         0.3000 
    221 H221       -4.8619  -21.4650  -52.7967 H         1 UNK         0.0600 
    222 H222       -5.1194  -19.0420  -50.9389 H         1 UNK         0.0600 
    223 H223       -4.1979  -20.5024  -50.5877 H         1 UNK         0.0600 
    224 H224       -3.7238  -19.4623  -51.9191 H         1 UNK         0.0600 
    225 H225       -7.3832  -21.3153  -53.9137 H         1 UNK         0.3000 
    226 H226       -7.8916  -18.6986  -55.0719 H         1 UNK         0.0600 
    227 H227       -9.7269  -20.2474  -54.4231 H         1 UNK         0.0600 
    228 H228       -9.7910  -19.9012  -56.1433 H         1 UNK         0.0600 
    229 H229       -9.1558  -21.4446  -55.5863 H         1 UNK         0.0600 
    230 H230       -5.7713  -21.2387  -55.9239 H         1 UNK         0.3000 
    231 H231       -5.4061  -20.1995  -58.6777 H         1 UNK         0.0600 
    232 H232       -5.0278  -22.5501  -59.4470 H         1 UNK         0.0600 
    233 H233       -6.6704  -22.3680  -58.8517 H         1 UNK         0.0600 
    234 H234       -5.4549  -23.1650  -57.8541 H         1 UNK         0.0600 
    235 H235       -3.2363  -20.5752  -59.4332 H         1 UNK         0.3000 
    236 H236       -1.0431  -20.3129  -59.3341 H         1 UNK         0.0600 
    237 H237       -1.1447  -22.3158  -57.0045 H         1 UNK         0.0600 
    238 H238       -0.9877  -22.6990  -58.7122 H         1 UNK         0.0600 
    239 H239        0.3029  -21.8432  -57.8899 H         1 UNK         0.0600 
    240 H240       -0.4604  -20.7042  -55.9723 H         1 UNK         0.3000 
    241 H241        0.0579  -17.8832  -55.5317 H         1 UNK         0.0600 
    242 H242       -3.7043  -18.5857  -54.2360 H         1 UNK         0.3800 
    243 H243       -2.8797  -19.7196  -55.2780 H         1 UNK         0.3800 
    244 H244        0.7699  -18.6222  -53.2475 H         1 UNK         0.0800 
    245 H245        1.6153  -19.3968  -54.5452 H         1 UNK         0.0800 
    246 H246       -0.7884  -21.5370  -51.3193 H         1 UNK         0.0800 
    247 H247       -1.3111  -19.9677  -51.8813 H         1 UNK         0.0800 
@<TRIPOS>BOND
     1    1    2 1    
     2    1  127 1    
     3    1  128 1    
     4    1  129 1    
     5    2    3 2    
     6    2    4 am   BACKBONE|DICT|INTERRES
     7    4    5 1    
     8    4  130 1    
     9    5    6 1    
    10    5   65 1    
    11    5  131 1    
    12    6    7 1    
    13    6  132 1    
    14    6  133 1    
    15    7    8 1    
    16    8    9 1    
    17    8  134 1    
    18    8  135 1    
    19    9   10 ar   
    20    9   14 ar   
    21   10   11 ar   
    22   10  136 1    
    23   11   12 ar   
    24   11  126 1    
    25   12   13 ar   
    26   12  137 1    
    27   13   14 ar   
    28   13   15 1    
    29   14  138 1    
    30   15   16 1    
    31   15  139 1    
    32   15  140 1    
    33   16   17 1    
    34   17   18 1    
    35   17  141 1    
    36   17  142 1    
    37   18   19 1    
    38   18   67 1    
    39   18  143 1    
    40   19   20 am   BACKBONE|DICT|INTERRES
    41   19  144 1    
    42   20   21 2    
    43   20   22 1    
    44   22   23 1    
    45   22   24 1    
    46   22  145 1    
    47   23  146 1    
    48   23  147 1    
    49   23  148 1    
    50   24   25 am   BACKBONE|DICT|INTERRES
    51   24  149 1    
    52   25   26 2    
    53   25   27 1    
    54   27   28 1    
    55   27   29 1    
    56   27  150 1    
    57   28  151 1    
    58   28  152 1    
    59   28  153 1    
    60   29   30 am   BACKBONE|DICT|INTERRES
    61   29  154 1    
    62   30   31 2    
    63   30   32 1    
    64   32   33 1    
    65   32   34 1    
    66   32  155 1    
    67   33  156 1    
    68   33  157 1    
    69   33  158 1    
    70   34   35 am   BACKBONE|DICT|INTERRES
    71   34  159 1    
    72   35   36 2    
    73   35   37 1    
    74   37   38 1    
    75   37   39 1    
    76   37  160 1    
    77   38  161 1    
    78   38  162 1    
    79   38  163 1    
    80   39   40 am   BACKBONE|DICT|INTERRES
    81   39  164 1    
    82   40   41 2    
    83   40   42 1    
    84   42   43 1    
    85   42   44 1    
    86   42  165 1    
    87   43  166 1    
    88   43  167 1    
    89   43  168 1    
    90   44   45 am   BACKBONE|DICT|INTERRES
    91   44  169 1    
    92   45   46 2    
    93   45   47 1    
    94   47   48 1    
    95   47   49 1    
    96   47  170 1    
    97   48  171 1    
    98   48  172 1    
    99   48  173 1    
   100   49   50 am   BACKBONE|DICT|INTERRES
   101   49  174 1    
   102   50   51 2    
   103   50   52 1    
   104   52   53 1    
   105   52   54 1    
   106   52  175 1    
   107   53  176 1    
   108   53  177 1    
   109   53  178 1    
   110   54   55 am   BACKBONE|DICT|INTERRES
   111   54  179 1    
   112   55   56 2    
   113   55   57 1    
   114   57   58 1    
   115   57   59 1    
   116   57  180 1    
   117   58  181 1    
   118   58  182 1    
   119   58  183 1    
   120   59   60 am   BACKBONE|DICT|INTERRES
   121   59  184 1    
   122   60   61 2    
   123   60   62 1    
   124   62   63 1    
   125   62   64 1    
   126   62  185 1    
   127   63  186 1    
   128   63  187 1    
   129   63  188 1    
   130   64   65 am   BACKBONE|DICT|INTERRES
   131   64  189 1    
   132   65   66 2    
   133   67   68 2    
   134   67   69 am   BACKBONE|DICT|INTERRES
   135   69   70 1    
   136   69  190 1    
   137   70   71 1    
   138   70   72 1    
   139   70  191 1    
   140   71  192 1    
   141   71  193 1    
   142   71  194 1    
   143   72   73 2    
   144   72   74 am   BACKBONE|DICT|INTERRES
   145   74   75 1    
   146   74  195 1    
   147   75   76 1    
   148   75   77 1    
   149   75  196 1    
   150   76  197 1    
   151   76  198 1    
   152   76  199 1    
   153   77   78 2    
   154   77   79 am   BACKBONE|DICT|INTERRES
   155   79   80 1    
   156   79  200 1    
   157   80   81 1    
   158   80   82 1    
   159   80  201 1    
   160   81  202 1    
   161   81  203 1    
   162   81  204 1    
   163   82   83 2    
   164   82   84 am   BACKBONE|DICT|INTERRES
   165   84   85 1    
   166   84  205 1    
   167   85   86 1    
   168   85   87 1    
   169   85  206 1    
   170   86  207 1    
   171   86  208 1    
   172   86  209 1    
   173   87   88 2    
   174   87   89 am   BACKBONE|DICT|INTERRES
   175   89   90 1    
   176   89  210 1    
   177   90   91 1    
   178   90   92 1    
   179   90  211 1    
   180   91  212 1    
   181   91  213 1    
   182   91  214 1    
   183   92   93 2    
   184   92   94 am   BACKBONE|DICT|INTERRES
   185   94   95 1    
   186   94  215 1    
   187   95   96 1    
   188   95   97 1    
   189   95  216 1    
   190   96  217 1    
   191   96  218 1    
   192   96  219 1    
   193   97   98 2    
   194   97   99 am   BACKBONE|DICT|INTERRES
   195   99  100 1    
   196   99  220 1    
   197  100  101 1    
   198  100  102 1    
   199  100  221 1    
   200  101  222 1    
   201  101  223 1    
   202  101  224 1    
   203  102  103 2    
   204  102  104 am   BACKBONE|DICT|INTERRES
   205  104  105 1    
   206  104  225 1    
   207  105  106 1    
   208  105  107 1    
   209  105  226 1    
   210  106  227 1    
   211  106  228 1    
   212  106  229 1    
   213  107  108 2    
   214  107  109 am   BACKBONE|DICT|INTERRES
   215  109  110 1    
   216  109  230 1    
   217  110  111 1    
   218  110  112 1    
   219  110  231 1    
   220  111  232 1    
   221  111  233 1    
   222  111  234 1    
   223  112  113 2    
   224  112  114 am   BACKBONE|DICT|INTERRES
   225  114  115 1    
   226  114  235 1    
   227  115  116 1    
   228  115  117 1    
   229  115  236 1    
   230  116  237 1    
   231  116  238 1    
   232  116  239 1    
   233  117  118 2    
   234  117  119 am   BACKBONE|DICT|INTERRES
   235  119  120 1    
   236  119  240 1    
   237  120  121 1    
   238  120  124 1    
   239  120  241 1    
   240  121  122 am   BACKBONE|DICT|INTERRES
   241  121  123 2    
   242  122  242 1    
   243  122  243 1    
   244  124  125 1    
   245  124  244 1    
   246  124  245 1    
   247  125  126 1    
   248  126  246 1    
   249  126  247 1    
@<TRIPOS>SUBSTRUCTURE
     1 UNK         1 GROUP             0       ****    0 ROOT    
