@<TRIPOS>MOLECULE
3R540
247   249    1
SMALL
USER_CHARGES


@<TRIPOS>ATOM
      1 CA          5.1370  -10.3066  -46.7349 C.3       0 UNK        -0.1800 
      2 C           4.1355  -11.4511  -46.7605 C.2       0 UNK         0.5000 
      3 O           3.8913  -12.0749  -45.7270 O.2       0 UNK        -0.5000 
      4 N           3.5368  -11.7217  -47.9294 N.am      1 UNK        -0.5000 
      5 CA          2.5661  -12.8042  -48.1455 C.3       1 UNK         0.1400 
      6 C6          2.2211  -12.9793  -49.6442 C.3       23 UNK        -0.0398 
      7 S7          1.6019  -14.6536  -50.0271 S.3       23 UNK        -0.2404 
      8 C8         -0.1414  -14.2928  -50.4058 C.3       23 UNK        -0.0205 
      9 C9         -0.9428  -15.5627  -50.6514 C.ar      23 UNK        -0.0193 
     10 C10        -0.6700  -16.3630  -51.7638 C.ar      23 UNK        -0.1150 
     11 C11        -1.4149  -17.5194  -52.0091 C.ar      23 UNK        -0.0193 
     12 C12        -2.4415  -17.8767  -51.1271 C.ar      23 UNK        -0.1150 
     13 C13        -2.7374  -17.0771  -50.0168 C.ar      23 UNK        -0.0193 
     14 C14        -1.9808  -15.9218  -49.7870 C.ar      23 UNK        -0.1150 
     15 C15        -3.9087  -17.4304  -49.1041 C.3       23 UNK        -0.0205 
     16 S16        -3.4553  -17.4028  -47.3370 S.3       23 UNK        -0.2404 
     17 C17        -3.9631  -19.0571  -46.7728 C.3       23 UNK        -0.0398 
     18 CA         -2.9488  -20.1401  -47.1944 C.3       11 UNK         0.1400 
     19 N          -1.6103  -19.9246  -46.6359 N.am      11 UNK        -0.5000 
     20 C          -0.4957  -20.4199  -47.1911 C.2       10 UNK         0.5000 
     21 O          -0.4949  -21.0943  -48.2190 O.2       10 UNK        -0.5000 
     22 CA          0.8360  -20.1718  -46.4600 C.3       10 UNK         0.1400 
     23 CB          1.5257  -18.9087  -46.9970 C.3       10 UNK        -0.1800 
     24 N           0.7148  -20.0963  -45.0017 N.am      10 UNK        -0.5000 
     25 C           0.2626  -21.0940  -44.2250 C.2       9 UNK         0.5000 
     26 O          -0.2026  -22.1427  -44.6764 O.2       9 UNK        -0.5000 
     27 CA          0.3519  -20.8814  -42.6989 C.3       9 UNK         0.1400 
     28 CB          0.2145  -22.1893  -41.8940 C.3       9 UNK        -0.1800 
     29 N           1.5624  -20.1583  -42.3044 N.am      9 UNK        -0.5000 
     30 C           2.8416  -20.5085  -42.5156 C.2       8 UNK         0.5000 
     31 O           3.1897  -21.5775  -43.0183 O.2       8 UNK        -0.5000 
     32 CA          3.9168  -19.4785  -42.1174 C.3       8 UNK         0.1400 
     33 CB          4.7538  -19.0628  -43.3396 C.3       8 UNK        -0.1800 
     34 N           3.3128  -18.2790  -41.5316 N.am      8 UNK        -0.5000 
     35 C           3.3657  -17.9511  -40.2352 C.2       7 UNK         0.5000 
     36 O           4.0025  -18.5824  -39.3912 O.2       7 UNK        -0.5000 
     37 CA          2.5562  -16.7172  -39.8000 C.3       7 UNK         0.1400 
     38 CB          3.4005  -15.4419  -39.9481 C.3       7 UNK        -0.1800 
     39 N           1.2877  -16.5511  -40.5178 N.am      7 UNK        -0.5000 
     40 C           0.2238  -17.3572  -40.3775 C.2       6 UNK         0.5000 
     41 O           0.2484  -18.4068  -39.7359 O.2       6 UNK        -0.5000 
     42 CA         -1.0866  -16.9312  -41.0598 C.3       6 UNK         0.1400 
     43 CB         -1.7904  -15.8447  -40.2321 C.3       6 UNK        -0.1800 
     44 N          -0.8495  -16.4220  -42.4065 N.am      6 UNK        -0.5000 
     45 C          -1.1989  -17.0472  -43.5391 C.2       5 UNK         0.5000 
     46 O          -1.7836  -18.1304  -43.5901 O.2       5 UNK        -0.5000 
     47 CA         -0.7783  -16.3593  -44.8512 C.3       5 UNK         0.1400 
     48 CB         -1.7701  -15.2351  -45.1895 C.3       5 UNK        -0.1800 
     49 N           0.5701  -15.7905  -44.8263 N.am      5 UNK        -0.5000 
     50 C           1.6855  -16.3549  -44.3427 C.2       4 UNK         0.5000 
     51 O           1.7544  -17.5155  -43.9360 O.2       4 UNK        -0.5000 
     52 CA          2.9195  -15.4438  -44.2183 C.3       4 UNK         0.1400 
     53 CB          3.8031  -15.5824  -45.4644 C.3       4 UNK        -0.1800 
     54 N           2.5999  -14.0287  -43.9860 N.am      4 UNK        -0.5000 
     55 C           1.8594  -13.5466  -42.9728 C.2       3 UNK         0.5000 
     56 O           1.2994  -14.2531  -42.1326 O.2       3 UNK        -0.5000 
     57 CA          1.6769  -12.0231  -42.9154 C.3       3 UNK         0.1400 
     58 CB          2.9652  -11.3273  -42.4494 C.3       3 UNK        -0.1800 
     59 N           1.2760  -11.5110  -44.2233 N.am      3 UNK        -0.5000 
     60 C           0.0063  -11.4604  -44.6515 C.2       2 UNK         0.5000 
     61 O          -0.9646  -11.7241  -43.9418 O.2       2 UNK        -0.5000 
     62 CA         -0.2267  -11.0650  -46.1241 C.3       2 UNK         0.1400 
     63 CB         -0.5102   -9.5597  -46.2389 C.3       2 UNK        -0.1800 
     64 N           0.8890  -11.4087  -47.0082 N.am      2 UNK        -0.5000 
     65 C           1.2985  -12.6579  -47.2732 C.2       1 UNK         0.5000 
     66 O           0.7553  -13.6613  -46.8134 O.2       1 UNK        -0.5000 
     67 C          -3.4873  -21.5483  -46.8796 C.2       11 UNK         0.5000 
     68 O          -4.2392  -22.0924  -47.6888 O.2       11 UNK        -0.5000 
     69 N          -3.0735  -22.1392  -45.7487 N.am      12 UNK        -0.5000 
     70 CA         -3.3784  -23.5292  -45.4023 C.3       12 UNK         0.1400 
     71 CB         -3.1009  -23.7823  -43.9138 C.3       12 UNK        -0.1800 
     72 C          -2.5829  -24.4994  -46.2910 C.2       12 UNK         0.5000 
     73 O          -3.1533  -25.4682  -46.7930 O.2       12 UNK        -0.5000 
     74 N          -1.3059  -24.1688  -46.5401 N.am      13 UNK        -0.5000 
     75 CA         -0.4318  -24.8478  -47.5019 C.3       13 UNK         0.1400 
     76 CB          0.9908  -24.2815  -47.3857 C.3       13 UNK        -0.1800 
     77 C          -0.9435  -24.7529  -48.9550 C.2       13 UNK         0.5000 
     78 O          -0.7156  -25.6721  -49.7407 O.2       13 UNK        -0.5000 
     79 N          -1.6823  -23.6781  -49.2658 N.am      14 UNK        -0.5000 
     80 CA         -2.4113  -23.4665  -50.5165 C.3       14 UNK         0.1400 
     81 CB         -2.6060  -21.9558  -50.7454 C.3       14 UNK        -0.1800 
     82 C          -3.7636  -24.2097  -50.5801 C.2       14 UNK         0.5000 
     83 O          -4.5808  -23.8690  -51.4367 O.2       14 UNK        -0.5000 
     84 N          -3.9835  -25.1933  -49.6964 N.am      15 UNK        -0.5000 
     85 CA         -5.1751  -26.0383  -49.5820 C.3       15 UNK         0.1400 
     86 CB         -5.3849  -26.8821  -50.8578 C.3       15 UNK        -0.1800 
     87 C          -6.4190  -25.2349  -49.1567 C.2       15 UNK         0.5000 
     88 O          -7.4874  -25.3787  -49.7519 O.2       15 UNK        -0.5000 
     89 N          -6.2358  -24.3968  -48.1255 N.am      16 UNK        -0.5000 
     90 CA         -7.2210  -23.4847  -47.5333 C.3       16 UNK         0.1400 
     91 CB         -8.3861  -24.2637  -46.8873 C.3       16 UNK        -0.1800 
     92 C          -7.6800  -22.4069  -48.5356 C.2       16 UNK         0.5000 
     93 O          -8.8795  -22.1940  -48.7216 O.2       16 UNK        -0.5000 
     94 N          -6.6890  -21.7569  -49.1634 N.am      17 UNK        -0.5000 
     95 CA         -6.8149  -20.7003  -50.1721 C.3       17 UNK         0.1400 
     96 CB         -7.3702  -19.4069  -49.5404 C.3       17 UNK        -0.1800 
     97 C          -7.5979  -21.1453  -51.4269 C.2       17 UNK         0.5000 
     98 O          -8.4263  -20.3928  -51.9425 O.2       17 UNK        -0.5000 
     99 N          -7.3015  -22.3619  -51.9037 N.am      18 UNK        -0.5000 
    100 CA        -7.8106  -22.9301  -53.1526 C.3       18 UNK         0.1400 
    101 CB        -7.3179  -24.3762  -53.3124 C.3       18 UNK        -0.1800 
    102 C         -7.5369  -22.1139  -54.4428 C.2       18 UNK         0.5000 
    103 O         -8.4441  -22.0444  -55.2705 O.2       18 UNK        -0.5000 
    104 N         -6.3701  -21.4884  -54.6768 N.am      19 UNK        -0.5000 
    105 CA        -5.1102  -21.5050  -53.9380 C.3       19 UNK         0.1400 
    106 CB        -4.6511  -20.0573  -53.7206 C.3       19 UNK        -0.1800 
    107 C         -4.0756  -22.3104  -54.7311 C.2       19 UNK         0.5000 
    108 O         -3.6685  -21.8882  -55.8138 O.2       19 UNK        -0.5000 
    109 N         -3.6770  -23.4602  -54.1751 N.am      20 UNK        -0.5000 
    110 CA        -2.7668  -24.4202  -54.8035 C.3       20 UNK         0.1400 
    111 CB        -2.8810  -25.7620  -54.0625 C.3       20 UNK        -0.1800 
    112 C         -1.2984  -23.9528  -54.8466 C.2       20 UNK         0.5000 
    113 O         -0.5466  -24.4080  -55.7086 O.2       20 UNK        -0.5000 
    114 N         -0.9123  -23.0692  -53.9156 N.am      21 UNK        -0.5000 
    115 CA         0.4505  -22.5446  -53.7877 C.3       21 UNK         0.1400 
    116 CB         0.7116  -22.1790  -52.3173 C.3       21 UNK        -0.1800 
    117 C          0.7142  -21.3243  -54.6898 C.2       21 UNK         0.5000 
    118 O          1.8758  -20.9652  -54.8865 O.2       21 UNK        -0.5000 
    119 N         -0.3520  -20.6900  -55.1940 N.am      22 UNK        -0.5000 
    120 CA        -0.2786  -19.5234  -56.0824 C.3       22 UNK         0.1400 
    121 C          0.1653  -19.9285  -57.5169 C.2       22 UNK         0.5000 
    122 N          0.9541  -19.0983  -58.1858 N.am      22 UNK        -0.7600 
    123 O         -0.2308  -20.9648  -58.0458 O.2       22 UNK        -0.5000 
    124 C124       -1.6230  -18.7502  -56.1293 C.3       23 UNK        -0.0398 
    125 S125       -2.1001  -17.7576  -54.6616 S.3       23 UNK        -0.2404 
    126 C126       -1.1230  -18.3580  -53.2445 C.3       23 UNK        -0.0205 
    127 H127        4.8166   -9.5451  -46.0238 H         1 UNK         0.0600 
    128 H128        6.1154  -10.6735  -46.4251 H         1 UNK         0.0600 
    129 H129        5.2425   -9.8375  -47.7133 H         1 UNK         0.0600 
    130 H130        3.7733  -11.1694  -48.7417 H         1 UNK         0.3000 
    131 H131        3.0718  -13.7133  -47.8210 H         1 UNK         0.0600 
    132 H132        3.1194  -12.8413  -50.2476 H         1 UNK         0.0800 
    133 H133        1.5176  -12.2169  -49.9841 H         1 UNK         0.0800 
    134 H134       -0.1967  -13.6572  -51.2908 H         1 UNK         0.0800 
    135 H135       -0.5751  -13.7219  -49.5831 H         1 UNK         0.0800 
    136 H136        0.1199  -16.0784  -52.4448 H         1 UNK         0.1150 
    137 H137       -3.0270  -18.7635  -51.3207 H         1 UNK         0.1150 
    138 H138       -2.2091  -15.2952  -48.9362 H         1 UNK         0.1150 
    139 H139       -4.3176  -18.4055  -49.3710 H         1 UNK         0.0800 
    140 H140       -4.7103  -16.7096  -49.2698 H         1 UNK         0.0800 
    141 H141       -4.0647  -19.0304  -45.6863 H         1 UNK         0.0800 
    142 H142       -4.9575  -19.2707  -47.1674 H         1 UNK         0.0800 
    143 H143       -2.8640  -20.0862  -48.2814 H         1 UNK         0.0600 
    144 H144       -1.5454  -19.3897  -45.7810 H         1 UNK         0.3000 
    145 H145        1.4859  -21.0211  -46.6790 H         1 UNK         0.0600 
    146 H146        2.4897  -18.7476  -46.5140 H         1 UNK         0.0600 
    147 H147        1.7098  -18.9936  -48.0687 H         1 UNK         0.0600 
    148 H148        0.9197  -18.0169  -46.8445 H         1 UNK         0.0600 
    149 H149        1.0835  -19.2609  -44.5567 H         1 UNK         0.3000 
    150 H150       -0.4877  -20.2401  -42.4288 H         1 UNK         0.0600 
    151 H151       -0.7669  -22.6381  -42.0437 H         1 UNK         0.0600 
    152 H152        0.3240  -22.0069  -40.8250 H         1 UNK         0.0600 
    153 H153        0.9617  -22.9272  -42.1876 H         1 UNK         0.0600 
    154 H154        1.4046  -19.2628  -41.8668 H         1 UNK         0.3000 
    155 H155        4.5812  -19.9662  -41.4015 H         1 UNK         0.0600 
    156 H156        5.2986  -19.9153  -43.7467 H         1 UNK         0.0600 
    157 H157        5.4903  -18.3039  -43.0752 H         1 UNK         0.0600 
    158 H158        4.1320  -18.6634  -44.1404 H         1 UNK         0.0600 
    159 H159        2.7459  -17.7238  -42.1621 H         1 UNK         0.3000 
    160 H160        2.3207  -16.8394  -38.7405 H         1 UNK         0.0600 
    161 H161        3.6838  -15.2623  -40.9851 H         1 UNK         0.0600 
    162 H162        2.8583  -14.5655  -39.5927 H         1 UNK         0.0600 
    163 H163        4.3201  -15.5131  -39.3659 H         1 UNK         0.0600 
    164 H164        1.2016  -15.7021  -41.0728 H         1 UNK         0.3000 
    165 H165       -1.7409  -17.8050  -41.0922 H         1 UNK         0.0600 
    166 H166       -2.7536  -15.5816  -40.6695 H         1 UNK         0.0600 
    167 H167       -1.9784  -16.1881  -39.2140 H         1 UNK         0.0600 
    168 H168       -1.1929  -14.9341  -40.1684 H         1 UNK         0.0600 
    169 H169       -0.3209  -15.5600  -42.4773 H         1 UNK         0.3000 
    170 H170       -0.8167  -17.1054  -45.6448 H         1 UNK         0.0600 
    171 H171       -2.8024  -15.5782  -45.1142 H         1 UNK         0.0600 
    172 H172       -1.6616  -14.3868  -44.5130 H         1 UNK         0.0600 
    173 H173       -1.6222  -14.8735  -46.2072 H         1 UNK         0.0600 
    174 H174        0.6552  -14.8603  -45.2243 H         1 UNK         0.3000 
    175 H175        3.4955  -15.7862  -43.3574 H         1 UNK         0.0600 
    176 H176        3.2395  -15.3824  -46.3742 H         1 UNK         0.0600 
    177 H177        4.6540  -14.9018  -45.4320 H         1 UNK         0.0600 
    178 H178        4.1983  -16.5952  -45.5486 H         1 UNK         0.0600 
    179 H179        3.0242  -13.3639  -44.6277 H         1 UNK         0.3000 
    180 H180        0.8989  -11.8041  -42.1808 H         1 UNK         0.0600 
    181 H181        3.2645  -11.6862  -41.4638 H         1 UNK         0.0600 
    182 H182        3.7988  -11.5063  -43.1286 H         1 UNK         0.0600 
    183 H183        2.8229  -10.2493  -42.3731 H         1 UNK         0.0600 
    184 H184        2.0216  -11.3286  -44.8826 H         1 UNK         0.3000 
    185 H185       -1.1082  -11.6078  -46.4723 H         1 UNK         0.0600 
    186 H186       -1.3554   -9.2725  -45.6119 H         1 UNK         0.0600 
    187 H187        0.3481   -8.9636  -45.9260 H         1 UNK         0.0600 
    188 H188       -0.7584   -9.2813  -47.2633 H         1 UNK         0.0600 
    189 H189        1.4048  -10.6386  -47.4084 H         1 UNK         0.3000 
    190 H190       -2.3962  -21.6667  -45.1662 H         1 UNK         0.3000 
    191 H191       -4.4425  -23.7020  -45.5768 H         1 UNK         0.0600 
    192 H192       -3.4439  -24.7755  -43.6220 H         1 UNK         0.0600 
    193 H193       -3.6203  -23.0601  -43.2839 H         1 UNK         0.0600 
    194 H194       -2.0377  -23.7288  -43.6841 H         1 UNK         0.0600 
    195 H195       -0.9088  -23.3770  -46.0421 H         1 UNK         0.3000 
    196 H196       -0.4017  -25.9051  -47.2313 H         1 UNK         0.0600 
    197 H197        1.6801  -24.8257  -48.0324 H         1 UNK         0.0600 
    198 H198        1.3672  -24.3622  -46.3657 H         1 UNK         0.0600 
    199 H199        1.0317  -23.2321  -47.6755 H         1 UNK         0.0600 
    200 H200       -1.7565  -22.9418  -48.5766 H         1 UNK         0.3000 
    201 H201       -1.7996  -23.8571  -51.3304 H         1 UNK         0.0600 
    202 H202       -1.6914  -21.3955  -50.5592 H         1 UNK         0.0600 
    203 H203       -3.3809  -21.5454  -50.1001 H         1 UNK         0.0600 
    204 H204       -2.9045  -21.7519  -51.7718 H         1 UNK         0.0600 
    205 H205       -3.2742  -25.3636  -48.9948 H         1 UNK         0.3000 
    206 H206       -4.9746  -26.7335  -48.7655 H         1 UNK         0.0600 
    207 H207       -4.4924  -27.4598  -51.0974 H         1 UNK         0.0600 
    208 H208       -6.2039  -27.5899  -50.7262 H         1 UNK         0.0600 
    209 H209       -5.6244  -26.2662  -51.7237 H         1 UNK         0.0600 
    210 H210       -5.2976  -24.3164  -47.7576 H         1 UNK         0.3000 
    211 H211       -6.7054  -22.9537  -46.7319 H         1 UNK         0.0600 
    212 H212       -8.9909  -24.7856  -47.6293 H         1 UNK         0.0600 
    213 H213       -9.0492  -23.5898  -46.3438 H         1 UNK         0.0600 
    214 H214       -8.0187  -25.0018  -46.1745 H         1 UNK         0.0600 
    215 H215       -5.7410  -21.9987  -48.8881 H         1 UNK         0.3000 
    216 H216       -5.8006  -20.4865  -50.5121 H         1 UNK         0.0600 
    217 H217       -8.4077  -19.5237  -49.2260 H         1 UNK         0.0600 
    218 H218       -6.7896  -19.1089  -48.6686 H         1 UNK         0.0600 
    219 H219       -7.3344  -18.5792  -50.2497 H         1 UNK         0.0600 
    220 H220       -6.6134  -22.9199  -51.4129 H         1 UNK         0.3000 
    221 H221       -8.8957  -22.9747  -53.0392 H         1 UNK         0.0600 
    222 H222       -6.2350  -24.4306  -53.4082 H         1 UNK         0.0600 
    223 H223       -7.6128  -24.9884  -52.4607 H         1 UNK         0.0600 
    224 H224       -7.7454  -24.8375  -54.2034 H         1 UNK         0.0600 
    225 H225       -6.2957  -21.0085  -55.5618 H         1 UNK         0.3000 
    226 H226       -5.1892  -21.9620  -52.9614 H         1 UNK         0.0600 
    227 H227       -5.3463  -19.5146  -53.0801 H         1 UNK         0.0600 
    228 H228       -3.6743  -20.0251  -53.2417 H         1 UNK         0.0600 
    229 H229       -4.5745  -19.5128  -54.6623 H         1 UNK         0.0600 
    230 H230       -4.0698  -23.7307  -53.2774 H         1 UNK         0.3000 
    231 H231       -3.0927  -24.5727  -55.8348 H         1 UNK         0.0600 
    232 H232       -2.5530  -25.6820  -53.0257 H         1 UNK         0.0600 
    233 H233       -3.9084  -26.1270  -54.0608 H         1 UNK         0.0600 
    234 H234       -2.2666  -26.5256  -54.5413 H         1 UNK         0.0600 
    235 H235       -1.5961  -22.7347  -53.2570 H         1 UNK         0.3000 
    236 H236        1.1618  -23.3237  -54.0703 H         1 UNK         0.0600 
    237 H237        0.0962  -21.3393  -51.9956 H         1 UNK         0.0600 
    238 H238        0.5166  -23.0210  -51.6530 H         1 UNK         0.0600 
    239 H239        1.7525  -21.8887  -52.1697 H         1 UNK         0.0600 
    240 H240       -1.2667  -21.0947  -55.0632 H         1 UNK         0.3000 
    241 H241        0.4823  -18.8460  -55.6904 H         1 UNK         0.0600 
    242 H242        1.2375  -19.3413  -59.1227 H         1 UNK         0.3800 
    243 H243        1.2871  -18.2378  -57.7783 H         1 UNK         0.3800 
    244 H244       -2.4399  -19.4394  -56.3497 H         1 UNK         0.0800 
    245 H245       -1.6145  -18.0433  -56.9612 H         1 UNK         0.0800 
    246 H246       -1.3604  -19.4023  -53.0427 H         1 UNK         0.0800 
    247 H247       -0.0578  -18.3127  -53.4733 H         1 UNK         0.0800 
@<TRIPOS>BOND
     1    1    2 1    
     2    1  127 1    
     3    1  128 1    
     4    1  129 1    
     5    2    3 2    
     6    2    4 am   BACKBONE|DICT|INTERRES
     7    4    5 1    
     8    4  130 1    
     9    5    6 1    
    10    5   65 1    
    11    5  131 1    
    12    6    7 1    
    13    6  132 1    
    14    6  133 1    
    15    7    8 1    
    16    8    9 1    
    17    8  134 1    
    18    8  135 1    
    19    9   10 ar   
    20    9   14 ar   
    21   10   11 ar   
    22   10  136 1    
    23   11   12 ar   
    24   11  126 1    
    25   12   13 ar   
    26   12  137 1    
    27   13   14 ar   
    28   13   15 1    
    29   14  138 1    
    30   15   16 1    
    31   15  139 1    
    32   15  140 1    
    33   16   17 1    
    34   17   18 1    
    35   17  141 1    
    36   17  142 1    
    37   18   19 1    
    38   18   67 1    
    39   18  143 1    
    40   19   20 am   BACKBONE|DICT|INTERRES
    41   19  144 1    
    42   20   21 2    
    43   20   22 1    
    44   22   23 1    
    45   22   24 1    
    46   22  145 1    
    47   23  146 1    
    48   23  147 1    
    49   23  148 1    
    50   24   25 am   BACKBONE|DICT|INTERRES
    51   24  149 1    
    52   25   26 2    
    53   25   27 1    
    54   27   28 1    
    55   27   29 1    
    56   27  150 1    
    57   28  151 1    
    58   28  152 1    
    59   28  153 1    
    60   29   30 am   BACKBONE|DICT|INTERRES
    61   29  154 1    
    62   30   31 2    
    63   30   32 1    
    64   32   33 1    
    65   32   34 1    
    66   32  155 1    
    67   33  156 1    
    68   33  157 1    
    69   33  158 1    
    70   34   35 am   BACKBONE|DICT|INTERRES
    71   34  159 1    
    72   35   36 2    
    73   35   37 1    
    74   37   38 1    
    75   37   39 1    
    76   37  160 1    
    77   38  161 1    
    78   38  162 1    
    79   38  163 1    
    80   39   40 am   BACKBONE|DICT|INTERRES
    81   39  164 1    
    82   40   41 2    
    83   40   42 1    
    84   42   43 1    
    85   42   44 1    
    86   42  165 1    
    87   43  166 1    
    88   43  167 1    
    89   43  168 1    
    90   44   45 am   BACKBONE|DICT|INTERRES
    91   44  169 1    
    92   45   46 2    
    93   45   47 1    
    94   47   48 1    
    95   47   49 1    
    96   47  170 1    
    97   48  171 1    
    98   48  172 1    
    99   48  173 1    
   100   49   50 am   BACKBONE|DICT|INTERRES
   101   49  174 1    
   102   50   51 2    
   103   50   52 1    
   104   52   53 1    
   105   52   54 1    
   106   52  175 1    
   107   53  176 1    
   108   53  177 1    
   109   53  178 1    
   110   54   55 am   BACKBONE|DICT|INTERRES
   111   54  179 1    
   112   55   56 2    
   113   55   57 1    
   114   57   58 1    
   115   57   59 1    
   116   57  180 1    
   117   58  181 1    
   118   58  182 1    
   119   58  183 1    
   120   59   60 am   BACKBONE|DICT|INTERRES
   121   59  184 1    
   122   60   61 2    
   123   60   62 1    
   124   62   63 1    
   125   62   64 1    
   126   62  185 1    
   127   63  186 1    
   128   63  187 1    
   129   63  188 1    
   130   64   65 am   BACKBONE|DICT|INTERRES
   131   64  189 1    
   132   65   66 2    
   133   67   68 2    
   134   67   69 am   BACKBONE|DICT|INTERRES
   135   69   70 1    
   136   69  190 1    
   137   70   71 1    
   138   70   72 1    
   139   70  191 1    
   140   71  192 1    
   141   71  193 1    
   142   71  194 1    
   143   72   73 2    
   144   72   74 am   BACKBONE|DICT|INTERRES
   145   74   75 1    
   146   74  195 1    
   147   75   76 1    
   148   75   77 1    
   149   75  196 1    
   150   76  197 1    
   151   76  198 1    
   152   76  199 1    
   153   77   78 2    
   154   77   79 am   BACKBONE|DICT|INTERRES
   155   79   80 1    
   156   79  200 1    
   157   80   81 1    
   158   80   82 1    
   159   80  201 1    
   160   81  202 1    
   161   81  203 1    
   162   81  204 1    
   163   82   83 2    
   164   82   84 am   BACKBONE|DICT|INTERRES
   165   84   85 1    
   166   84  205 1    
   167   85   86 1    
   168   85   87 1    
   169   85  206 1    
   170   86  207 1    
   171   86  208 1    
   172   86  209 1    
   173   87   88 2    
   174   87   89 am   BACKBONE|DICT|INTERRES
   175   89   90 1    
   176   89  210 1    
   177   90   91 1    
   178   90   92 1    
   179   90  211 1    
   180   91  212 1    
   181   91  213 1    
   182   91  214 1    
   183   92   93 2    
   184   92   94 am   BACKBONE|DICT|INTERRES
   185   94   95 1    
   186   94  215 1    
   187   95   96 1    
   188   95   97 1    
   189   95  216 1    
   190   96  217 1    
   191   96  218 1    
   192   96  219 1    
   193   97   98 2    
   194   97   99 am   BACKBONE|DICT|INTERRES
   195   99  100 1    
   196   99  220 1    
   197  100  101 1    
   198  100  102 1    
   199  100  221 1    
   200  101  222 1    
   201  101  223 1    
   202  101  224 1    
   203  102  103 2    
   204  102  104 am   BACKBONE|DICT|INTERRES
   205  104  105 1    
   206  104  225 1    
   207  105  106 1    
   208  105  107 1    
   209  105  226 1    
   210  106  227 1    
   211  106  228 1    
   212  106  229 1    
   213  107  108 2    
   214  107  109 am   BACKBONE|DICT|INTERRES
   215  109  110 1    
   216  109  230 1    
   217  110  111 1    
   218  110  112 1    
   219  110  231 1    
   220  111  232 1    
   221  111  233 1    
   222  111  234 1    
   223  112  113 2    
   224  112  114 am   BACKBONE|DICT|INTERRES
   225  114  115 1    
   226  114  235 1    
   227  115  116 1    
   228  115  117 1    
   229  115  236 1    
   230  116  237 1    
   231  116  238 1    
   232  116  239 1    
   233  117  118 2    
   234  117  119 am   BACKBONE|DICT|INTERRES
   235  119  120 1    
   236  119  240 1    
   237  120  121 1    
   238  120  124 1    
   239  120  241 1    
   240  121  122 am   BACKBONE|DICT|INTERRES
   241  121  123 2    
   242  122  242 1    
   243  122  243 1    
   244  124  125 1    
   245  124  244 1    
   246  124  245 1    
   247  125  126 1    
   248  126  246 1    
   249  126  247 1    
@<TRIPOS>SUBSTRUCTURE
     1 UNK         1 GROUP             0       ****    0 ROOT    
