@<TRIPOS>MOLECULE
3R540
247   249    1
SMALL
USER_CHARGES


@<TRIPOS>ATOM
      1 CA          6.6370  -16.6088  -47.5819 C.3       0 UNK        -0.1800 
      2 C           5.9041  -16.0891  -46.3473 C.2       0 UNK         0.5000 
      3 O           6.4936  -16.0528  -45.2693 O.2       0 UNK        -0.5000 
      4 N           4.6353  -15.6770  -46.4411 N.am      1 UNK        -0.5000 
      5 CA          3.7643  -15.6615  -47.6136 C.3       1 UNK         0.1400 
      6 C6          4.0906  -14.4657  -48.5562 C.3       23 UNK        -0.0398 
      7 S7          2.9225  -14.1287  -49.9256 S.3       23 UNK        -0.2404 
      8 C8          3.5613  -15.1823  -51.2701 C.3       23 UNK        -0.0205 
      9 C9          3.0499  -16.6078  -51.1373 C.ar      23 UNK        -0.0193 
     10 C10         1.7681  -16.9367  -51.5888 C.ar      23 UNK        -0.1150 
     11 C11         1.2636  -18.2270  -51.4074 C.ar      23 UNK        -0.0193 
     12 C12         2.0455  -19.1882  -50.7630 C.ar      23 UNK        -0.1150 
     13 C13         3.3237  -18.8671  -50.2985 C.ar      23 UNK        -0.0193 
     14 C14         3.8361  -17.5875  -50.5257 C.ar      23 UNK        -0.1150 
     15 C15         4.1243  -19.8862  -49.5019 C.3       23 UNK        -0.0205 
     16 S16         4.0675  -19.5599  -47.7035 S.3       23 UNK        -0.2404 
     17 C17         2.2769  -19.5629  -47.3440 C.3       23 UNK        -0.0398 
     18 CA          1.7001  -20.9893  -47.2281 C.3       11 UNK         0.1400 
     19 N           2.2505  -21.7279  -46.0900 N.am      11 UNK        -0.5000 
     20 C           2.1799  -23.0574  -45.9452 C.2       10 UNK         0.5000 
     21 O           1.6703  -23.8078  -46.7766 O.2       10 UNK        -0.5000 
     22 CA          2.7294  -23.6358  -44.6280 C.3       10 UNK         0.1400 
     23 CB          4.2550  -23.7967  -44.7015 C.3       10 UNK        -0.1800 
     24 N           2.3816  -22.8113  -43.4686 N.am      10 UNK        -0.5000 
     25 C           1.1317  -22.6338  -43.0172 C.2       9 UNK         0.5000 
     26 O           0.1503  -23.1971  -43.4999 O.2       9 UNK        -0.5000 
     27 CA          0.9369  -21.6258  -41.8676 C.3       9 UNK         0.1400 
     28 CB          1.0332  -22.3312  -40.5074 C.3       9 UNK        -0.1800 
     29 N           1.8767  -20.5022  -41.8943 N.am      9 UNK        -0.5000 
     30 C           1.9965  -19.6164  -42.8908 C.2       8 UNK         0.5000 
     31 O           1.3541  -19.6833  -43.9413 O.2       8 UNK        -0.5000 
     32 CA          3.0039  -18.4737  -42.6627 C.3       8 UNK         0.1400 
     33 CB          3.1736  -17.5842  -43.9033 C.3       8 UNK        -0.1800 
     34 N           2.6021  -17.6291  -41.5406 N.am      8 UNK        -0.5000 
     35 C           2.8240  -17.8907  -40.2460 C.2       7 UNK         0.5000 
     36 O           3.3766  -18.9159  -39.8442 O.2       7 UNK        -0.5000 
     37 CA          2.3235  -16.8451  -39.2375 C.3       7 UNK         0.1400 
     38 CB          3.2223  -15.5980  -39.2553 C.3       7 UNK        -0.1800 
     39 N           0.9519  -16.4542  -39.5533 N.am      7 UNK        -0.5000 
     40 C          -0.1390  -16.9047  -38.9195 C.2       6 UNK         0.5000 
     41 O          -0.1051  -17.6330  -37.9268 O.2       6 UNK        -0.5000 
     42 CA         -1.5061  -16.4804  -39.4961 C.3       6 UNK         0.1400 
     43 CB         -2.0129  -15.2093  -38.7980 C.3       6 UNK        -0.1800 
     44 N          -1.4800  -16.2513  -40.9424 N.am      6 UNK        -0.5000 
     45 C          -1.2410  -17.1980  -41.8605 C.2       5 UNK         0.5000 
     46 O          -1.1055  -18.3900  -41.5862 O.2       5 UNK        -0.5000 
     47 CA         -1.1139  -16.7425  -43.3292 C.3       5 UNK         0.1400 
     48 CB         -2.4444  -16.9763  -44.0655 C.3       5 UNK        -0.1800 
     49 N          -0.6973  -15.3469  -43.5362 N.am      5 UNK        -0.5000 
     50 C           0.3844  -14.7416  -43.0202 C.2       4 UNK         0.5000 
     51 O           1.1583  -15.2914  -42.2341 O.2       4 UNK        -0.5000 
     52 CA          0.6301  -13.2841  -43.4566 C.3       4 UNK         0.1400 
     53 CB          2.0449  -12.7926  -43.1009 C.3       4 UNK        -0.1800 
     54 N           0.4384  -13.1716  -44.8987 N.am      4 UNK        -0.5000 
     55 C          -0.3910  -12.3327  -45.5336 C.2       3 UNK         0.5000 
     56 O          -1.0703  -11.4804  -44.9607 O.2       3 UNK        -0.5000 
     57 CA         -0.5012  -12.4828  -47.0695 C.3       3 UNK         0.1400 
     58 CB          0.3843  -11.4441  -47.7746 C.3       3 UNK        -0.1800 
     59 N          -0.1315  -13.8164  -47.5514 N.am      3 UNK        -0.5000 
     60 C          -0.7690  -14.9516  -47.2330 C.2       2 UNK         0.5000 
     61 O          -1.8519  -14.9716  -46.6496 O.2       2 UNK        -0.5000 
     62 CA         -0.0578  -16.2855  -47.5540 C.3       2 UNK         0.1400 
     63 CB         -0.7809  -17.0289  -48.6859 C.3       2 UNK        -0.1800 
     64 N           1.3692  -16.1668  -47.8867 N.am      2 UNK        -0.5000 
     65 C           2.3204  -15.6731  -47.0800 C.2       1 UNK         0.5000 
     66 O           2.0873  -15.2207  -45.9569 O.2       1 UNK        -0.5000 
     67 C           0.1615  -20.9571  -47.1833 C.2       11 UNK         0.5000 
     68 O          -0.4725  -21.0601  -48.2328 O.2       11 UNK        -0.5000 
     69 N          -0.4121  -20.8633  -45.9751 N.am      12 UNK        -0.5000 
     70 CA         -1.8512  -20.9682  -45.7316 C.3       12 UNK         0.1400 
     71 CB         -2.1456  -20.6698  -44.2547 C.3       12 UNK        -0.1800 
     72 C          -2.4048  -22.3488  -46.1304 C.2       12 UNK         0.5000 
     73 O          -3.4326  -22.4202  -46.8040 O.2       12 UNK        -0.5000 
     74 N          -1.6864  -23.4149  -45.7500 N.am      13 UNK        -0.5000 
     75 CA         -1.9879  -24.7987  -46.1172 C.3       13 UNK         0.1400 
     76 CB         -1.0888  -25.7500  -45.3136 C.3       13 UNK        -0.1800 
     77 C          -1.8517  -25.0630  -47.6283 C.2       13 UNK         0.5000 
     78 O          -2.6658  -25.8003  -48.1843 O.2       13 UNK        -0.5000 
     79 N          -0.8475  -24.4443  -48.2674 N.am      14 UNK        -0.5000 
     80 CA         -0.6342  -24.4923  -49.7153 C.3       14 UNK         0.1400 
     81 CB          0.7435  -23.9050  -50.0594 C.3       14 UNK        -0.1800 
     82 C          -1.7453  -23.7718  -50.5016 C.2       14 UNK         0.5000 
     83 O          -2.1745  -24.2761  -51.5399 O.2       14 UNK        -0.5000 
     84 N          -2.1979  -22.6185  -49.9888 N.am      15 UNK        -0.5000 
     85 CA         -3.3129  -21.8514  -50.5403 C.3       15 UNK         0.1400 
     86 CB         -3.3574  -20.4594  -49.8884 C.3       15 UNK        -0.1800 
     87 C          -4.6627  -22.5612  -50.3590 C.2       15 UNK         0.5000 
     88 O          -5.4689  -22.5744  -51.2878 O.2       15 UNK        -0.5000 
     89 N          -4.8997  -23.0969  -49.1513 N.am      16 UNK        -0.5000 
     90 CA         -6.1172  -23.7924  -48.7105 C.3       16 UNK         0.1400 
     91 CB         -6.2479  -25.1479  -49.4347 C.3       16 UNK        -0.1800 
     92 C          -7.3986  -22.9333  -48.8283 C.2       16 UNK         0.5000 
     93 O          -8.4959  -23.4780  -48.9577 O.2       16 UNK        -0.5000 
     94 N          -7.2209  -21.6023  -48.8109 N.am      17 UNK        -0.5000 
     95 CA         -8.2119  -20.5510  -49.0681 C.3       17 UNK         0.1400 
     96 CB         -9.3051  -20.5481  -47.9791 C.3       17 UNK        -0.1800 
     97 C          -8.8014  -20.5667  -50.4994 C.2       17 UNK         0.5000 
     98 O          -9.8317  -19.9313  -50.7311 O.2       17 UNK        -0.5000 
     99 N          -8.1506  -21.2662  -51.4402 N.am      18 UNK        -0.5000 
    100 CA        -8.5715  -21.3713  -52.8324 C.3       18 UNK         0.1400 
    101 CB        -8.3012  -22.7968  -53.3400 C.3       18 UNK        -0.1800 
    102 C         -7.8269  -20.3277  -53.6766 C.2       18 UNK         0.5000 
    103 O         -6.6098  -20.4294  -53.8542 O.2       18 UNK        -0.5000 
    104 N         -8.5753  -19.3561  -54.2147 N.am      19 UNK        -0.5000 
    105 CA        -8.0629  -18.2956  -55.0883 C.3       19 UNK         0.1400 
    106 CB        -9.1869  -17.2907  -55.3806 C.3       19 UNK        -0.1800 
    107 C         -7.4580  -18.8289  -56.4018 C.2       19 UNK         0.5000 
    108 O         -6.4931  -18.2546  -56.9062 O.2       19 UNK        -0.5000 
    109 N         -8.0004  -19.9465  -56.9025 N.am      20 UNK        -0.5000 
    110 CA        -7.4965  -20.6607  -58.0753 C.3       20 UNK         0.1400 
    111 CB        -8.5503  -21.6860  -58.5216 C.3       20 UNK        -0.1800 
    112 C         -6.1395  -21.3543  -57.8371 C.2       20 UNK         0.5000 
    113 O         -5.4099  -21.5842  -58.8026 O.2       20 UNK        -0.5000 
    114 N         -5.8274  -21.6861  -56.5756 N.am      21 UNK        -0.5000 
    115 CA        -4.5856  -22.3536  -56.1917 C.3       21 UNK         0.1400 
    116 CB        -4.8244  -23.2201  -54.9449 C.3       21 UNK        -0.1800 
    117 C         -3.4510  -21.3501  -55.9373 C.2       21 UNK         0.5000 
    118 O         -2.3285  -21.5896  -56.3841 O.2       21 UNK        -0.5000 
    119 N         -3.7467  -20.2632  -55.2115 N.am      22 UNK        -0.5000 
    120 CA        -2.7372  -19.3060  -54.7281 C.3       22 UNK         0.1400 
    121 C         -3.3013  -17.8778  -54.4698 C.2       22 UNK         0.5000 
    122 N         -4.4028  -17.4731  -55.0867 N.am      22 UNK        -0.7600 
    123 O         -2.7343  -17.1045  -53.7039 O.2       22 UNK        -0.5000 
    124 C124       -1.9397  -19.8895  -53.5254 C.3       23 UNK        -0.0398 
    125 S125       -0.1912  -19.3670  -53.4721 S.3       23 UNK        -0.2404 
    126 C126       -0.1499  -18.5723  -51.8399 C.3       23 UNK        -0.0205 
    127 H127        7.5537  -17.1201  -47.2872 H         1 UNK         0.0600 
    128 H128        6.9153  -15.7874  -48.2407 H         1 UNK         0.0600 
    129 H129        6.0365  -17.3244  -48.1394 H         1 UNK         0.0600 
    130 H130        4.1502  -15.3742  -45.6047 H         1 UNK         0.3000 
    131 H131        3.8976  -16.5993  -48.1426 H         1 UNK         0.0600 
    132 H132        5.0853  -14.5860  -48.9831 H         1 UNK         0.0800 
    133 H133        4.1427  -13.5501  -47.9644 H         1 UNK         0.0800 
    134 H134        3.2332  -14.7693  -52.2251 H         1 UNK         0.0800 
    135 H135        4.6519  -15.1569  -51.2880 H         1 UNK         0.0800 
    136 H136        1.1542  -16.1813  -52.0596 H         1 UNK         0.1150 
    137 H137        1.6416  -20.1765  -50.5916 H         1 UNK         0.1150 
    138 H138        4.8276  -17.3389  -50.1757 H         1 UNK         0.1150 
    139 H139        3.7635  -20.8969  -49.6983 H         1 UNK         0.0800 
    140 H140        5.1643  -19.8674  -49.8305 H         1 UNK         0.0800 
    141 H141        1.7562  -18.9913  -48.1097 H         1 UNK         0.0800 
    142 H142        2.1130  -19.0112  -46.4182 H         1 UNK         0.0800 
    143 H143        1.9716  -21.5307  -48.1361 H         1 UNK         0.0600 
    144 H144        2.6382  -21.1735  -45.3409 H         1 UNK         0.3000 
    145 H145        2.2871  -24.6245  -44.4880 H         1 UNK         0.0600 
    146 H146        4.6449  -24.2727  -43.8017 H         1 UNK         0.0600 
    147 H147        4.5401  -24.4221  -45.5486 H         1 UNK         0.0600 
    148 H148        4.7581  -22.8360  -44.8190 H         1 UNK         0.0600 
    149 H149        3.1335  -22.3164  -43.0122 H         1 UNK         0.3000 
    150 H150       -0.0676  -21.2093  -41.9637 H         1 UNK         0.0600 
    151 H151        0.3253  -23.1589  -40.4454 H         1 UNK         0.0600 
    152 H152        0.8023  -21.6456  -39.6916 H         1 UNK         0.0600 
    153 H153        2.0307  -22.7367  -40.3339 H         1 UNK         0.0600 
    154 H154        2.4227  -20.3399  -41.0556 H         1 UNK         0.3000 
    155 H155        3.9737  -18.9242  -42.4419 H         1 UNK         0.0600 
    156 H156        3.8613  -16.7613  -43.7086 H         1 UNK         0.0600 
    157 H157        3.5779  -18.1520  -44.7414 H         1 UNK         0.0600 
    158 H158        2.2215  -17.1564  -44.2171 H         1 UNK         0.0600 
    159 H159        2.1136  -16.7713  -41.7875 H         1 UNK         0.3000 
    160 H160        2.3779  -17.2852  -38.2397 H         1 UNK         0.0600 
    161 H161        3.2079  -15.0995  -40.2256 H         1 UNK         0.0600 
    162 H162        4.2578  -15.8600  -39.0349 H         1 UNK         0.0600 
    163 H163        2.9028  -14.8747  -38.5050 H         1 UNK         0.0600 
    164 H164        0.8302  -15.8964  -40.3921 H         1 UNK         0.3000 
    165 H165       -2.2137  -17.2877  -39.2956 H         1 UNK         0.0600 
    166 H166       -3.0124  -14.9417  -39.1414 H         1 UNK         0.0600 
    167 H167       -2.0694  -15.3532  -37.7181 H         1 UNK         0.0600 
    168 H168       -1.3544  -14.3594  -38.9818 H         1 UNK         0.0600 
    169 H169       -1.5909  -15.2985  -41.2551 H         1 UNK         0.3000 
    170 H170       -0.3539  -17.3798  -43.7858 H         1 UNK         0.0600 
    171 H171       -2.9263  -17.9030  -43.7541 H         1 UNK         0.0600 
    172 H172       -3.1554  -16.1712  -43.8776 H         1 UNK         0.0600 
    173 H173       -2.2909  -17.0479  -45.1412 H         1 UNK         0.0600 
    174 H174       -1.2604  -14.8180  -44.1882 H         1 UNK         0.3000 
    175 H175       -0.0950  -12.6675  -42.9224 H         1 UNK         0.0600 
    176 H176        2.2153  -12.8287  -42.0242 H         1 UNK         0.0600 
    177 H177        2.8117  -13.4047  -43.5780 H         1 UNK         0.0600 
    178 H178        2.1941  -11.7608  -43.4188 H         1 UNK         0.0600 
    179 H179        0.9548  -13.8599  -45.4430 H         1 UNK         0.3000 
    180 H180       -1.5410  -12.2983  -47.3467 H         1 UNK         0.0600 
    181 H181        1.4403  -11.5958  -47.5469 H         1 UNK         0.0600 
    182 H182        0.1228  -10.4316  -47.4641 H         1 UNK         0.0600 
    183 H183        0.2644  -11.4925  -48.8571 H         1 UNK         0.0600 
    184 H184        0.7445  -13.8890  -48.0476 H         1 UNK         0.3000 
    185 H185       -0.1265  -16.8984  -46.6526 H         1 UNK         0.0600 
    186 H186       -1.8407  -17.1547  -48.4602 H         1 UNK         0.0600 
    187 H187       -0.7082  -16.4863  -49.6287 H         1 UNK         0.0600 
    188 H188       -0.3671  -18.0261  -48.8333 H         1 UNK         0.0600 
    189 H189        1.6329  -16.4702  -48.8142 H         1 UNK         0.3000 
    190 H190        0.1828  -20.7159  -45.1656 H         1 UNK         0.3000 
    191 H191       -2.3447  -20.2091  -46.3421 H         1 UNK         0.0600 
    192 H192       -1.8713  -21.5003  -43.6053 H         1 UNK         0.0600 
    193 H193       -3.2082  -20.4786  -44.1029 H         1 UNK         0.0600 
    194 H194       -1.5969  -19.7942  -43.9116 H         1 UNK         0.0600 
    195 H195       -0.8858  -23.2722  -45.1409 H         1 UNK         0.3000 
    196 H196       -3.0252  -24.9975  -45.8398 H         1 UNK         0.0600 
    197 H197       -1.3086  -26.7912  -45.5527 H         1 UNK         0.0600 
    198 H198       -1.2404  -25.6231  -44.2415 H         1 UNK         0.0600 
    199 H199       -0.0325  -25.5800  -45.5234 H         1 UNK         0.0600 
    200 H200       -0.1736  -23.9179  -47.7229 H         1 UNK         0.3000 
    201 H201       -0.6382  -25.5414  -50.0184 H         1 UNK         0.0600 
    202 H202        1.5407  -24.4310  -49.5340 H         1 UNK         0.0600 
    203 H203        0.8095  -22.8489  -49.8000 H         1 UNK         0.0600 
    204 H204        0.9461  -23.9906  -51.1276 H         1 UNK         0.0600 
    205 H205       -1.7373  -22.2325  -49.1700 H         1 UNK         0.3000 
    206 H206       -3.1454  -21.7307  -51.6111 H         1 UNK         0.0600 
    207 H207       -2.4158  -19.9295  -50.0138 H         1 UNK         0.0600 
    208 H208       -4.1399  -19.8442  -50.3347 H         1 UNK         0.0600 
    209 H209       -3.5547  -20.5189  -48.8177 H         1 UNK         0.0600 
    210 H210       -4.1978  -22.9658  -48.4258 H         1 UNK         0.3000 
    211 H211       -5.9823  -23.9945  -47.6471 H         1 UNK         0.0600 
    212 H212       -5.3344  -25.7349  -49.3370 H         1 UNK         0.0600 
    213 H213       -7.0602  -25.7419  -49.0148 H         1 UNK         0.0600 
    214 H214       -6.4513  -25.0193  -50.4984 H         1 UNK         0.0600 
    215 H215       -6.2722  -21.2779  -48.6906 H         1 UNK         0.3000 
    216 H216       -7.6696  -19.6081  -48.9857 H         1 UNK         0.0600 
    217 H217       -9.9497  -21.4247  -48.0485 H         1 UNK         0.0600 
    218 H218       -9.9434  -19.6681  -48.0664 H         1 UNK         0.0600 
    219 H219       -8.8679  -20.5306  -46.9808 H         1 UNK         0.0600 
    220 H220       -7.2717  -21.7218  -51.2125 H         1 UNK         0.3000 
    221 H221       -9.6464  -21.1971  -52.9165 H         1 UNK         0.0600 
    222 H222       -8.8931  -23.5262  -52.7870 H         1 UNK         0.0600 
    223 H223       -7.2536  -23.0750  -53.2323 H         1 UNK         0.0600 
    224 H224       -8.5623  -22.8957  -54.3943 H         1 UNK         0.0600 
    225 H225       -9.5640  -19.3305  -54.0092 H         1 UNK         0.3000 
    226 H226       -7.2708  -17.7741  -54.5474 H         1 UNK         0.0600 
    227 H227       -9.5666  -16.8448  -54.4611 H         1 UNK         0.0600 
    228 H228       -8.8277  -16.4759  -56.0108 H         1 UNK         0.0600 
    229 H229      -10.0243  -17.7611  -55.8976 H         1 UNK         0.0600 
    230 H230       -8.7930  -20.3520  -56.4272 H         1 UNK         0.3000 
    231 H231       -7.3593  -19.9379  -58.8825 H         1 UNK         0.0600 
    232 H232       -8.7427  -22.4290  -57.7465 H         1 UNK         0.0600 
    233 H233       -8.2222  -22.2204  -59.4143 H         1 UNK         0.0600 
    234 H234       -9.4956  -21.2005  -58.7650 H         1 UNK         0.0600 
    235 H235       -6.4461  -21.4139  -55.8237 H         1 UNK         0.3000 
    236 H236       -4.2716  -23.0207  -56.9976 H         1 UNK         0.0600 
    237 H237       -5.6317  -23.9344  -55.1065 H         1 UNK         0.0600 
    238 H238       -3.9302  -23.7910  -54.6918 H         1 UNK         0.0600 
    239 H239       -5.0768  -22.6165  -54.0731 H         1 UNK         0.0600 
    240 H240       -4.6875  -20.1425  -54.8521 H         1 UNK         0.3000 
    241 H241       -2.0359  -19.1557  -55.5510 H         1 UNK         0.0600 
    242 H242       -4.7312  -16.5384  -54.9058 H         1 UNK         0.3800 
    243 H243       -4.8825  -18.0337  -55.7815 H         1 UNK         0.3800 
    244 H244       -1.9157  -20.9788  -53.5708 H         1 UNK         0.0800 
    245 H245       -2.4424  -19.6517  -52.5876 H         1 UNK         0.0800 
    246 H246       -0.7761  -17.6791  -51.8542 H         1 UNK         0.0800 
    247 H247       -0.5841  -19.2467  -51.1028 H         1 UNK         0.0800 
@<TRIPOS>BOND
     1    1    2 1    
     2    1  127 1    
     3    1  128 1    
     4    1  129 1    
     5    2    3 2    
     6    2    4 am   BACKBONE|DICT|INTERRES
     7    4    5 1    
     8    4  130 1    
     9    5    6 1    
    10    5   65 1    
    11    5  131 1    
    12    6    7 1    
    13    6  132 1    
    14    6  133 1    
    15    7    8 1    
    16    8    9 1    
    17    8  134 1    
    18    8  135 1    
    19    9   10 ar   
    20    9   14 ar   
    21   10   11 ar   
    22   10  136 1    
    23   11   12 ar   
    24   11  126 1    
    25   12   13 ar   
    26   12  137 1    
    27   13   14 ar   
    28   13   15 1    
    29   14  138 1    
    30   15   16 1    
    31   15  139 1    
    32   15  140 1    
    33   16   17 1    
    34   17   18 1    
    35   17  141 1    
    36   17  142 1    
    37   18   19 1    
    38   18   67 1    
    39   18  143 1    
    40   19   20 am   BACKBONE|DICT|INTERRES
    41   19  144 1    
    42   20   21 2    
    43   20   22 1    
    44   22   23 1    
    45   22   24 1    
    46   22  145 1    
    47   23  146 1    
    48   23  147 1    
    49   23  148 1    
    50   24   25 am   BACKBONE|DICT|INTERRES
    51   24  149 1    
    52   25   26 2    
    53   25   27 1    
    54   27   28 1    
    55   27   29 1    
    56   27  150 1    
    57   28  151 1    
    58   28  152 1    
    59   28  153 1    
    60   29   30 am   BACKBONE|DICT|INTERRES
    61   29  154 1    
    62   30   31 2    
    63   30   32 1    
    64   32   33 1    
    65   32   34 1    
    66   32  155 1    
    67   33  156 1    
    68   33  157 1    
    69   33  158 1    
    70   34   35 am   BACKBONE|DICT|INTERRES
    71   34  159 1    
    72   35   36 2    
    73   35   37 1    
    74   37   38 1    
    75   37   39 1    
    76   37  160 1    
    77   38  161 1    
    78   38  162 1    
    79   38  163 1    
    80   39   40 am   BACKBONE|DICT|INTERRES
    81   39  164 1    
    82   40   41 2    
    83   40   42 1    
    84   42   43 1    
    85   42   44 1    
    86   42  165 1    
    87   43  166 1    
    88   43  167 1    
    89   43  168 1    
    90   44   45 am   BACKBONE|DICT|INTERRES
    91   44  169 1    
    92   45   46 2    
    93   45   47 1    
    94   47   48 1    
    95   47   49 1    
    96   47  170 1    
    97   48  171 1    
    98   48  172 1    
    99   48  173 1    
   100   49   50 am   BACKBONE|DICT|INTERRES
   101   49  174 1    
   102   50   51 2    
   103   50   52 1    
   104   52   53 1    
   105   52   54 1    
   106   52  175 1    
   107   53  176 1    
   108   53  177 1    
   109   53  178 1    
   110   54   55 am   BACKBONE|DICT|INTERRES
   111   54  179 1    
   112   55   56 2    
   113   55   57 1    
   114   57   58 1    
   115   57   59 1    
   116   57  180 1    
   117   58  181 1    
   118   58  182 1    
   119   58  183 1    
   120   59   60 am   BACKBONE|DICT|INTERRES
   121   59  184 1    
   122   60   61 2    
   123   60   62 1    
   124   62   63 1    
   125   62   64 1    
   126   62  185 1    
   127   63  186 1    
   128   63  187 1    
   129   63  188 1    
   130   64   65 am   BACKBONE|DICT|INTERRES
   131   64  189 1    
   132   65   66 2    
   133   67   68 2    
   134   67   69 am   BACKBONE|DICT|INTERRES
   135   69   70 1    
   136   69  190 1    
   137   70   71 1    
   138   70   72 1    
   139   70  191 1    
   140   71  192 1    
   141   71  193 1    
   142   71  194 1    
   143   72   73 2    
   144   72   74 am   BACKBONE|DICT|INTERRES
   145   74   75 1    
   146   74  195 1    
   147   75   76 1    
   148   75   77 1    
   149   75  196 1    
   150   76  197 1    
   151   76  198 1    
   152   76  199 1    
   153   77   78 2    
   154   77   79 am   BACKBONE|DICT|INTERRES
   155   79   80 1    
   156   79  200 1    
   157   80   81 1    
   158   80   82 1    
   159   80  201 1    
   160   81  202 1    
   161   81  203 1    
   162   81  204 1    
   163   82   83 2    
   164   82   84 am   BACKBONE|DICT|INTERRES
   165   84   85 1    
   166   84  205 1    
   167   85   86 1    
   168   85   87 1    
   169   85  206 1    
   170   86  207 1    
   171   86  208 1    
   172   86  209 1    
   173   87   88 2    
   174   87   89 am   BACKBONE|DICT|INTERRES
   175   89   90 1    
   176   89  210 1    
   177   90   91 1    
   178   90   92 1    
   179   90  211 1    
   180   91  212 1    
   181   91  213 1    
   182   91  214 1    
   183   92   93 2    
   184   92   94 am   BACKBONE|DICT|INTERRES
   185   94   95 1    
   186   94  215 1    
   187   95   96 1    
   188   95   97 1    
   189   95  216 1    
   190   96  217 1    
   191   96  218 1    
   192   96  219 1    
   193   97   98 2    
   194   97   99 am   BACKBONE|DICT|INTERRES
   195   99  100 1    
   196   99  220 1    
   197  100  101 1    
   198  100  102 1    
   199  100  221 1    
   200  101  222 1    
   201  101  223 1    
   202  101  224 1    
   203  102  103 2    
   204  102  104 am   BACKBONE|DICT|INTERRES
   205  104  105 1    
   206  104  225 1    
   207  105  106 1    
   208  105  107 1    
   209  105  226 1    
   210  106  227 1    
   211  106  228 1    
   212  106  229 1    
   213  107  108 2    
   214  107  109 am   BACKBONE|DICT|INTERRES
   215  109  110 1    
   216  109  230 1    
   217  110  111 1    
   218  110  112 1    
   219  110  231 1    
   220  111  232 1    
   221  111  233 1    
   222  111  234 1    
   223  112  113 2    
   224  112  114 am   BACKBONE|DICT|INTERRES
   225  114  115 1    
   226  114  235 1    
   227  115  116 1    
   228  115  117 1    
   229  115  236 1    
   230  116  237 1    
   231  116  238 1    
   232  116  239 1    
   233  117  118 2    
   234  117  119 am   BACKBONE|DICT|INTERRES
   235  119  120 1    
   236  119  240 1    
   237  120  121 1    
   238  120  124 1    
   239  120  241 1    
   240  121  122 am   BACKBONE|DICT|INTERRES
   241  121  123 2    
   242  122  242 1    
   243  122  243 1    
   244  124  125 1    
   245  124  244 1    
   246  124  245 1    
   247  125  126 1    
   248  126  246 1    
   249  126  247 1    
@<TRIPOS>SUBSTRUCTURE
     1 UNK         1 GROUP             0       ****    0 ROOT    
