@<TRIPOS>MOLECULE
3R540
247   249    1
SMALL
USER_CHARGES


@<TRIPOS>ATOM
      1 CA         -4.9995  -11.0674  -44.9781 C.3       0 UNK        -0.1800 
      2 C          -3.8083  -11.9827  -45.2188 C.2       0 UNK         0.5000 
      3 O          -2.7024  -11.6816  -44.7714 O.2       0 UNK        -0.5000 
      4 N          -4.0279  -13.1091  -45.9098 N.am      1 UNK        -0.5000 
      5 CA         -3.0005  -14.0939  -46.2811 C.3       1 UNK         0.1400 
      6 C6         -3.5574  -15.1868  -47.2217 C.3       23 UNK        -0.0398 
      7 S7         -4.3323  -14.5392  -48.7447 S.3       23 UNK        -0.2404 
      8 C8         -2.9000  -14.2398  -49.8349 C.3       23 UNK        -0.0205 
      9 C9         -2.0170  -15.4682  -49.9999 C.ar      23 UNK        -0.0193 
     10 C10        -2.4685  -16.5755  -50.7234 C.ar      23 UNK        -0.1150 
     11 C11        -1.6745  -17.7209  -50.8319 C.ar      23 UNK        -0.0193 
     12 C12        -0.4129  -17.7454  -50.2320 C.ar      23 UNK        -0.1150 
     13 C13         0.0492  -16.6433  -49.5078 C.ar      23 UNK        -0.0193 
     14 C14        -0.7551  -15.5058  -49.4006 C.ar      23 UNK        -0.1150 
     15 C15         1.4054  -16.6821  -48.8175 C.3       23 UNK        -0.0205 
     16 S16         1.5430  -18.0215  -47.5882 S.3       23 UNK        -0.2404 
     17 C17         0.0807  -17.7622  -46.5235 C.3       23 UNK        -0.0398 
     18 CA         -0.8066  -19.0242  -46.4588 C.3       11 UNK         0.1400 
     19 N          -0.1029  -20.1501  -45.8365 N.am      11 UNK        -0.5000 
     20 C          -0.5170  -21.4239  -45.8511 C.2       10 UNK         0.5000 
     21 O          -1.6121  -21.7810  -46.2831 O.2       10 UNK        -0.5000 
     22 CA          0.4510  -22.4683  -45.2756 C.3       10 UNK         0.1400 
     23 CB          1.6045  -22.7340  -46.2561 C.3       10 UNK        -0.1800 
     24 N           0.9956  -22.0121  -43.9993 N.am      10 UNK        -0.5000 
     25 C           0.5224  -22.3742  -42.7995 C.2       9 UNK         0.5000 
     26 O          -0.3603  -23.2175  -42.6366 O.2       9 UNK        -0.5000 
     27 CA          1.1205  -21.6657  -41.5659 C.3       9 UNK         0.1400 
     28 CB          2.2851  -22.4841  -40.9882 C.3       9 UNK        -0.1800 
     29 N           1.5837  -20.3007  -41.8269 N.am      9 UNK        -0.5000 
     30 C           0.8087  -19.2937  -42.2533 C.2       8 UNK         0.5000 
     31 O          -0.3967  -19.4013  -42.4650 O.2       8 UNK        -0.5000 
     32 CA          1.5014  -17.9514  -42.5453 C.3       8 UNK         0.1400 
     33 CB          1.5303  -17.0984  -41.2723 C.3       8 UNK        -0.1800 
     34 N           2.8608  -18.0600  -43.0844 N.am      8 UNK        -0.5000 
     35 C           3.2558  -18.8123  -44.1246 C.2       7 UNK         0.5000 
     36 O           2.5061  -19.5761  -44.7350 O.2       7 UNK        -0.5000 
     37 CA          4.7348  -18.7231  -44.5459 C.3       7 UNK         0.1400 
     38 CB          4.8679  -18.0949  -45.9414 C.3       7 UNK        -0.1800 
     39 N           5.5514  -17.9634  -43.5960 N.am      7 UNK        -0.5000 
     40 C           6.1062  -18.4836  -42.4917 C.2       6 UNK         0.5000 
     41 O           5.9857  -19.6652  -42.1659 O.2       6 UNK        -0.5000 
     42 CA          6.9297  -17.5387  -41.5930 C.3       6 UNK         0.1400 
     43 CB          8.4313  -17.7128  -41.8678 C.3       6 UNK        -0.1800 
     44 N           6.5831  -16.1244  -41.7456 N.am      6 UNK        -0.5000 
     45 C           5.4403  -15.5661  -41.3258 C.2       5 UNK         0.5000 
     46 O           4.5536  -16.1968  -40.7512 O.2       5 UNK        -0.5000 
     47 CA          5.2359  -14.0601  -41.6033 C.3       5 UNK         0.1400 
     48 CB          6.4742  -13.3580  -42.2046 C.3       5 UNK        -0.1800 
     49 N           4.0632  -13.7927  -42.4428 N.am      5 UNK        -0.5000 
     50 C           3.7679  -14.3322  -43.6324 C.2       4 UNK         0.5000 
     51 O           4.4496  -15.2172  -44.1529 O.2       4 UNK        -0.5000 
     52 CA          2.5313  -13.7751  -44.3833 C.3       4 UNK         0.1400 
     53 CB          2.1093  -14.6886  -45.5472 C.3       4 UNK        -0.1800 
     54 N           1.3458  -13.4950  -43.5594 N.am      4 UNK        -0.5000 
     55 C           1.2060  -12.5077  -42.6606 C.2       3 UNK         0.5000 
     56 O           2.1304  -11.7618  -42.3347 O.2       3 UNK        -0.5000 
     57 CA         -0.1834  -12.2857  -42.0242 C.3       3 UNK         0.1400 
     58 CB         -0.6694  -10.8480  -42.2718 C.3       3 UNK        -0.1800 
     59 N          -1.2038  -13.2177  -42.5103 N.am      3 UNK        -0.5000 
     60 C          -1.4337  -14.4310  -41.9881 C.2       2 UNK         0.5000 
     61 O          -0.8265  -14.8623  -41.0099 O.2       2 UNK        -0.5000 
     62 CA         -2.5121  -15.3205  -42.6471 C.3       2 UNK         0.1400 
     63 CB         -3.7035  -15.5219  -41.6976 C.3       2 UNK        -0.1800 
     64 N          -3.0163  -14.8148  -43.9250 N.am      2 UNK        -0.5000 
     65 C          -2.3095  -14.7458  -45.0611 C.2       1 UNK         0.5000 
     66 O          -1.1450  -15.1316  -45.1507 O.2       1 UNK        -0.5000 
     67 C          -2.1788  -18.7198  -45.8213 C.2       11 UNK         0.5000 
     68 O          -3.0629  -18.2383  -46.5257 O.2       11 UNK        -0.5000 
     69 N          -2.3799  -19.0481  -44.5356 N.am      12 UNK        -0.5000 
     70 CA         -3.6856  -18.9671  -43.8691 C.3       12 UNK         0.1400 
     71 CB         -3.5115  -19.1969  -42.3604 C.3       12 UNK        -0.1800 
     72 C          -4.7332  -19.9492  -44.4370 C.2       12 UNK         0.5000 
     73 O          -5.9299  -19.7128  -44.2710 O.2       12 UNK        -0.5000 
     74 N          -4.2749  -21.0136  -45.1087 N.am      13 UNK        -0.5000 
     75 CA         -5.0907  -22.0168  -45.7865 C.3       13 UNK         0.1400 
     76 CB         -4.6636  -23.4105  -45.2931 C.3       13 UNK        -0.1800 
     77 C          -4.9479  -21.8541  -47.3123 C.2       13 UNK         0.5000 
     78 O          -4.7578  -22.8399  -48.0259 O.2       13 UNK        -0.5000 
     79 N          -5.0436  -20.6024  -47.7857 N.am      14 UNK        -0.5000 
     80 CA         -4.8246  -20.1597  -49.1675 C.3       14 UNK         0.1400 
     81 CB         -5.1713  -18.6644  -49.2702 C.3       14 UNK        -0.1800 
     82 C          -5.5861  -20.9453  -50.2530 C.2       14 UNK         0.5000 
     83 O          -5.0553  -21.1288  -51.3487 O.2       14 UNK        -0.5000 
     84 N          -6.8067  -21.3951  -49.9354 N.am      15 UNK        -0.5000 
     85 CA         -7.6483  -22.1914  -50.8295 C.3       15 UNK         0.1400 
     86 CB         -9.1089  -22.0843  -50.3655 C.3       15 UNK        -0.1800 
     87 C          -7.2188  -23.6694  -50.9097 C.2       15 UNK         0.5000 
     88 O          -7.4245  -24.2998  -51.9473 O.2       15 UNK        -0.5000 
     89 N          -6.6438  -24.1987  -49.8212 N.am      16 UNK        -0.5000 
     90 CA         -6.1928  -25.5874  -49.7141 C.3       16 UNK         0.1400 
     91 CB         -6.2729  -26.0335  -48.2469 C.3       16 UNK        -0.1800 
     92 C          -4.7653  -25.7758  -50.2531 C.2       16 UNK         0.5000 
     93 O          -4.4372  -26.8629  -50.7311 O.2       16 UNK        -0.5000 
     94 N          -3.9464  -24.7176  -50.1862 N.am      17 UNK        -0.5000 
     95 CA         -2.5672  -24.6434  -50.6737 C.3       17 UNK         0.1400 
     96 CB         -1.8872  -23.4375  -49.9961 C.3       17 UNK        -0.1800 
     97 C          -2.4835  -24.5819  -52.2174 C.2       17 UNK         0.5000 
     98 O          -1.8966  -23.6481  -52.7622 O.2       17 UNK        -0.5000 
     99 N          -3.0996  -25.5651  -52.8875 N.am      18 UNK        -0.5000 
    100 CA        -3.2848  -25.6766  -54.3348 C.3       18 UNK         0.1400 
    101 CB        -3.9802  -27.0114  -54.6449 C.3       18 UNK        -0.1800 
    102 C         -1.9807  -25.5340  -55.1431 C.2       18 UNK         0.5000 
    103 O         -1.0745  -26.3563  -54.9887 O.2       18 UNK        -0.5000 
    104 N         -1.9207  -24.4988  -55.9882 N.am      19 UNK        -0.5000 
    105 CA        -0.7629  -24.1582  -56.8177 C.3       19 UNK         0.1400 
    106 CB         0.2045  -23.2687  -56.0131 C.3       19 UNK        -0.1800 
    107 C         -1.1802  -23.5066  -58.1511 C.2       19 UNK         0.5000 
    108 O         -0.3649  -22.8195  -58.7676 O.2       19 UNK        -0.5000 
    109 N         -2.4394  -23.7183  -58.5692 N.am      20 UNK        -0.5000 
    110 CA        -3.0742  -23.1786  -59.7828 C.3       20 UNK         0.1400 
    111 CB        -2.4127  -23.7527  -61.0537 C.3       20 UNK        -0.1800 
    112 C         -3.1712  -21.6349  -59.7987 C.2       20 UNK         0.5000 
    113 O         -3.1539  -21.0187  -60.8659 O.2       20 UNK        -0.5000 
    114 N         -3.2919  -21.0457  -58.6060 N.am      21 UNK        -0.5000 
    115 CA        -3.4555  -19.6191  -58.3412 C.3       21 UNK         0.1400 
    116 CB        -2.1448  -18.8446  -58.5835 C.3       21 UNK        -0.1800 
    117 C         -3.9413  -19.5127  -56.8937 C.2       21 UNK         0.5000 
    118 O         -5.0792  -19.1100  -56.6499 O.2       21 UNK        -0.5000 
    119 N         -3.1009  -20.0049  -55.9762 N.am      22 UNK        -0.5000 
    120 CA        -3.5267  -20.5351  -54.6751 C.3       22 UNK         0.1400 
    121 C         -4.2529  -21.9007  -54.8512 C.2       22 UNK         0.5000 
    122 N         -5.0438  -22.3193  -53.8750 N.am      22 UNK        -0.7600 
    123 O         -4.0777  -22.5977  -55.8533 O.2       22 UNK        -0.5000 
    124 C124       -2.3304  -20.6774  -53.7061 C.3       23 UNK        -0.0398 
    125 S125       -1.5845  -19.0773  -53.2509 S.3       23 UNK        -0.2404 
    126 C126       -2.1962  -18.9539  -51.5466 C.3       23 UNK        -0.0205 
    127 H127       -5.9125  -11.4648  -45.4222 H         1 UNK         0.0600 
    128 H128       -4.8099  -10.0851  -45.4105 H         1 UNK         0.0600 
    129 H129       -5.1666  -10.9437  -43.9081 H         1 UNK         0.0600 
    130 H130       -4.9546  -13.2966  -46.2662 H         1 UNK         0.3000 
    131 H131       -2.2220  -13.5531  -46.8233 H         1 UNK         0.0600 
    132 H132       -4.3110  -15.7810  -46.7016 H         1 UNK         0.0800 
    133 H133       -2.7715  -15.8889  -47.4962 H         1 UNK         0.0800 
    134 H134       -3.2624  -13.9253  -50.8145 H         1 UNK         0.0800 
    135 H135       -2.3248  -13.4006  -49.4407 H         1 UNK         0.0800 
    136 H136       -3.4499  -16.5535  -51.1761 H         1 UNK         0.1150 
    137 H137        0.2011  -18.6321  -50.3074 H         1 UNK         0.1150 
    138 H138       -0.4071  -14.6553  -48.8312 H         1 UNK         0.1150 
    139 H139        2.1832  -16.8139  -49.5705 H         1 UNK         0.0800 
    140 H140        1.6157  -15.7330  -48.3231 H         1 UNK         0.0800 
    141 H141       -0.4879  -16.9118  -46.8977 H         1 UNK         0.0800 
    142 H142        0.4170  -17.4848  -45.5262 H         1 UNK         0.0800 
    143 H143       -1.0230  -19.3217  -47.4876 H         1 UNK         0.0600 
    144 H144        0.8253  -19.9431  -45.4763 H         1 UNK         0.3000 
    145 H145       -0.0993  -23.4024  -45.1445 H         1 UNK         0.0600 
    146 H146        2.2694  -23.5106  -45.8780 H         1 UNK         0.0600 
    147 H147        1.2251  -23.0714  -47.2215 H         1 UNK         0.0600 
    148 H148        2.2030  -21.8391  -46.4327 H         1 UNK         0.0600 
    149 H149        1.6889  -21.2730  -44.0463 H         1 UNK         0.3000 
    150 H150        0.3340  -21.6076  -40.8107 H         1 UNK         0.0600 
    151 H151        1.9711  -23.5033  -40.7588 H         1 UNK         0.0600 
    152 H152        2.6565  -22.0440  -40.0625 H         1 UNK         0.0600 
    153 H153        3.1185  -22.5467  -41.6892 H         1 UNK         0.0600 
    154 H154        2.5693  -20.1233  -41.6993 H         1 UNK         0.3000 
    155 H155        0.8956  -17.4273  -43.2851 H         1 UNK         0.0600 
    156 H156        2.2146  -17.5094  -40.5295 H         1 UNK         0.0600 
    157 H157        0.5447  -17.0534  -40.8087 H         1 UNK         0.0600 
    158 H158        1.8374  -16.0746  -41.4875 H         1 UNK         0.0600 
    159 H159        3.5582  -17.4765  -42.6424 H         1 UNK         0.3000 
    160 H160        5.1157  -19.7447  -44.6061 H         1 UNK         0.0600 
    161 H161        4.4086  -17.1074  -45.9889 H         1 UNK         0.0600 
    162 H162        4.3799  -18.7167  -46.6926 H         1 UNK         0.0600 
    163 H163        5.9131  -17.9956  -46.2344 H         1 UNK         0.0600 
    164 H164        5.6262  -16.9670  -43.7697 H         1 UNK         0.3000 
    165 H165        6.7382  -17.8257  -40.5568 H         1 UNK         0.0600 
    166 H166        9.0304  -17.1095  -41.1855 H         1 UNK         0.0600 
    167 H167        8.7359  -18.7516  -41.7331 H         1 UNK         0.0600 
    168 H168        8.6896  -17.4248  -42.8877 H         1 UNK         0.0600 
    169 H169        7.2539  -15.5435  -42.2272 H         1 UNK         0.3000 
    170 H170        5.0331  -13.6002  -40.6352 H         1 UNK         0.0600 
    171 H171        7.3481  -13.4737  -41.5621 H         1 UNK         0.0600 
    172 H172        6.7270  -13.7447  -43.1927 H         1 UNK         0.0600 
    173 H173        6.2984  -12.2872  -42.3088 H         1 UNK         0.0600 
    174 H174        3.4430  -13.0559  -42.1177 H         1 UNK         0.3000 
    175 H175        2.8508  -12.8265  -44.8189 H         1 UNK         0.0600 
    176 H176        1.8078  -15.6708  -45.1854 H         1 UNK         0.0600 
    177 H177        1.2763  -14.2634  -46.1072 H         1 UNK         0.0600 
    178 H178        2.9268  -14.8366  -46.2539 H         1 UNK         0.0600 
    179 H179        0.5302  -14.0562  -43.7657 H         1 UNK         0.3000 
    180 H180       -0.0659  -12.4122  -40.9460 H         1 UNK         0.0600 
    181 H181       -0.7172  -10.6175  -43.3364 H         1 UNK         0.0600 
    182 H182        0.0022  -10.1224  -41.8115 H         1 UNK         0.0600 
    183 H183       -1.6605  -10.6855  -41.8478 H         1 UNK         0.0600 
    184 H184       -1.7440  -12.9104  -43.3119 H         1 UNK         0.3000 
    185 H185       -2.0516  -16.2936  -42.8308 H         1 UNK         0.0600 
    186 H186       -3.3810  -15.9580  -40.7511 H         1 UNK         0.0600 
    187 H187       -4.2005  -14.5776  -41.4718 H         1 UNK         0.0600 
    188 H188       -4.4437  -16.1970  -42.1271 H         1 UNK         0.0600 
    189 H189       -3.9565  -14.4468  -43.9264 H         1 UNK         0.3000 
    190 H190       -1.6081  -19.4014  -43.9765 H         1 UNK         0.3000 
    191 H191       -4.0737  -17.9571  -44.0161 H         1 UNK         0.0600 
    192 H192       -3.0934  -20.1825  -42.1513 H         1 UNK         0.0600 
    193 H193       -4.4671  -19.1271  -41.8394 H         1 UNK         0.0600 
    194 H194       -2.8503  -18.4523  -41.9184 H         1 UNK         0.0600 
    195 H195       -3.2757  -21.1016  -45.2631 H         1 UNK         0.3000 
    196 H196       -6.1470  -21.8833  -45.5459 H         1 UNK         0.0600 
    197 H197       -5.3156  -24.1844  -45.6968 H         1 UNK         0.0600 
    198 H198       -4.7199  -23.4780  -44.2066 H         1 UNK         0.0600 
    199 H199       -3.6412  -23.6477  -45.5903 H         1 UNK         0.0600 
    200 H200       -5.1682  -19.8620  -47.1099 H         1 UNK         0.3000 
    201 H201       -3.7601  -20.2824  -49.3726 H         1 UNK         0.0600 
    202 H202       -4.4680  -18.0528  -48.7064 H         1 UNK         0.0600 
    203 H203       -6.1730  -18.4578  -48.8923 H         1 UNK         0.0600 
    204 H204       -5.1397  -18.3137  -50.3020 H         1 UNK         0.0600 
    205 H205       -7.1726  -21.1927  -49.0169 H         1 UNK         0.3000 
    206 H206       -7.5831  -21.7731  -51.8364 H         1 UNK         0.0600 
    207 H207       -9.4496  -21.0488  -50.3717 H         1 UNK         0.0600 
    208 H208       -9.7705  -22.6467  -51.0258 H         1 UNK         0.0600 
    209 H209       -9.2414  -22.4764  -49.3563 H         1 UNK         0.0600 
    210 H210       -6.4183  -23.5932  -49.0417 H         1 UNK         0.3000 
    211 H211       -6.8583  -26.2279  -50.2969 H         1 UNK         0.0600 
    212 H212       -5.5831  -25.4698  -47.6195 H         1 UNK         0.0600 
    213 H213       -6.0163  -27.0889  -48.1470 H         1 UNK         0.0600 
    214 H214       -7.2784  -25.9031  -47.8464 H         1 UNK         0.0600 
    215 H215       -4.2959  -23.8868  -49.7215 H         1 UNK         0.3000 
    216 H216       -2.0408  -25.5462  -50.3582 H         1 UNK         0.0600 
    217 H217       -0.8379  -23.3631  -50.2839 H         1 UNK         0.0600 
    218 H218       -1.9200  -23.5230  -48.9094 H         1 UNK         0.0600 
    219 H219       -2.3725  -22.4993  -50.2693 H         1 UNK         0.0600 
    220 H220       -3.5539  -26.2771  -52.3238 H         1 UNK         0.3000 
    221 H221       -3.9688  -24.8819  -54.6280 H         1 UNK         0.0600 
    222 H222       -3.3812  -27.8622  -54.3174 H         1 UNK         0.0600 
    223 H223       -4.9502  -27.0750  -54.1511 H         1 UNK         0.0600 
    224 H224       -4.1530  -27.1230  -55.7161 H         1 UNK         0.0600 
    225 H225       -2.6986  -23.8419  -56.0097 H         1 UNK         0.3000 
    226 H226       -0.2381  -25.0765  -57.0885 H         1 UNK         0.0600 
    227 H227        0.4717  -23.7286  -55.0615 H         1 UNK         0.0600 
    228 H228        1.1321  -23.1002  -56.5613 H         1 UNK         0.0600 
    229 H229       -0.2335  -22.2935  -55.8028 H         1 UNK         0.0600 
    230 H230       -3.0308  -24.3023  -57.9949 H         1 UNK         0.3000 
    231 H231       -4.1043  -23.5371  -59.7652 H         1 UNK         0.0600 
    232 H232       -2.9783  -23.4815  -61.9458 H         1 UNK         0.0600 
    233 H233       -2.3692  -24.8412  -61.0184 H         1 UNK         0.0600 
    234 H234       -1.3969  -23.3799  -61.1870 H         1 UNK         0.0600 
    235 H235       -3.3678  -21.6423  -57.7898 H         1 UNK         0.3000 
    236 H236       -4.2343  -19.2205  -58.9946 H         1 UNK         0.0600 
    237 H237       -1.8750  -18.8482  -59.6395 H         1 UNK         0.0600 
    238 H238       -2.2469  -17.8020  -58.2803 H         1 UNK         0.0600 
    239 H239       -1.3085  -19.2709  -58.0286 H         1 UNK         0.0600 
    240 H240       -2.1816  -20.2887  -56.2788 H         1 UNK         0.3000 
    241 H241       -4.2451  -19.8397  -54.2360 H         1 UNK         0.0600 
    242 H242       -5.1136  -21.8039  -52.9980 H         1 UNK         0.3800 
    243 H243       -5.5342  -23.1926  -53.9735 H         1 UNK         0.3800 
    244 H244       -2.6463  -21.1850  -52.7937 H         1 UNK         0.0800 
    245 H245       -1.5548  -21.3084  -54.1402 H         1 UNK         0.0800 
    246 H246       -1.9023  -19.8443  -50.9884 H         1 UNK         0.0800 
    247 H247       -3.2855  -18.9470  -51.5705 H         1 UNK         0.0800 
@<TRIPOS>BOND
     1    1    2 1    
     2    1  127 1    
     3    1  128 1    
     4    1  129 1    
     5    2    3 2    
     6    2    4 am   BACKBONE|DICT|INTERRES
     7    4    5 1    
     8    4  130 1    
     9    5    6 1    
    10    5   65 1    
    11    5  131 1    
    12    6    7 1    
    13    6  132 1    
    14    6  133 1    
    15    7    8 1    
    16    8    9 1    
    17    8  134 1    
    18    8  135 1    
    19    9   10 ar   
    20    9   14 ar   
    21   10   11 ar   
    22   10  136 1    
    23   11   12 ar   
    24   11  126 1    
    25   12   13 ar   
    26   12  137 1    
    27   13   14 ar   
    28   13   15 1    
    29   14  138 1    
    30   15   16 1    
    31   15  139 1    
    32   15  140 1    
    33   16   17 1    
    34   17   18 1    
    35   17  141 1    
    36   17  142 1    
    37   18   19 1    
    38   18   67 1    
    39   18  143 1    
    40   19   20 am   BACKBONE|DICT|INTERRES
    41   19  144 1    
    42   20   21 2    
    43   20   22 1    
    44   22   23 1    
    45   22   24 1    
    46   22  145 1    
    47   23  146 1    
    48   23  147 1    
    49   23  148 1    
    50   24   25 am   BACKBONE|DICT|INTERRES
    51   24  149 1    
    52   25   26 2    
    53   25   27 1    
    54   27   28 1    
    55   27   29 1    
    56   27  150 1    
    57   28  151 1    
    58   28  152 1    
    59   28  153 1    
    60   29   30 am   BACKBONE|DICT|INTERRES
    61   29  154 1    
    62   30   31 2    
    63   30   32 1    
    64   32   33 1    
    65   32   34 1    
    66   32  155 1    
    67   33  156 1    
    68   33  157 1    
    69   33  158 1    
    70   34   35 am   BACKBONE|DICT|INTERRES
    71   34  159 1    
    72   35   36 2    
    73   35   37 1    
    74   37   38 1    
    75   37   39 1    
    76   37  160 1    
    77   38  161 1    
    78   38  162 1    
    79   38  163 1    
    80   39   40 am   BACKBONE|DICT|INTERRES
    81   39  164 1    
    82   40   41 2    
    83   40   42 1    
    84   42   43 1    
    85   42   44 1    
    86   42  165 1    
    87   43  166 1    
    88   43  167 1    
    89   43  168 1    
    90   44   45 am   BACKBONE|DICT|INTERRES
    91   44  169 1    
    92   45   46 2    
    93   45   47 1    
    94   47   48 1    
    95   47   49 1    
    96   47  170 1    
    97   48  171 1    
    98   48  172 1    
    99   48  173 1    
   100   49   50 am   BACKBONE|DICT|INTERRES
   101   49  174 1    
   102   50   51 2    
   103   50   52 1    
   104   52   53 1    
   105   52   54 1    
   106   52  175 1    
   107   53  176 1    
   108   53  177 1    
   109   53  178 1    
   110   54   55 am   BACKBONE|DICT|INTERRES
   111   54  179 1    
   112   55   56 2    
   113   55   57 1    
   114   57   58 1    
   115   57   59 1    
   116   57  180 1    
   117   58  181 1    
   118   58  182 1    
   119   58  183 1    
   120   59   60 am   BACKBONE|DICT|INTERRES
   121   59  184 1    
   122   60   61 2    
   123   60   62 1    
   124   62   63 1    
   125   62   64 1    
   126   62  185 1    
   127   63  186 1    
   128   63  187 1    
   129   63  188 1    
   130   64   65 am   BACKBONE|DICT|INTERRES
   131   64  189 1    
   132   65   66 2    
   133   67   68 2    
   134   67   69 am   BACKBONE|DICT|INTERRES
   135   69   70 1    
   136   69  190 1    
   137   70   71 1    
   138   70   72 1    
   139   70  191 1    
   140   71  192 1    
   141   71  193 1    
   142   71  194 1    
   143   72   73 2    
   144   72   74 am   BACKBONE|DICT|INTERRES
   145   74   75 1    
   146   74  195 1    
   147   75   76 1    
   148   75   77 1    
   149   75  196 1    
   150   76  197 1    
   151   76  198 1    
   152   76  199 1    
   153   77   78 2    
   154   77   79 am   BACKBONE|DICT|INTERRES
   155   79   80 1    
   156   79  200 1    
   157   80   81 1    
   158   80   82 1    
   159   80  201 1    
   160   81  202 1    
   161   81  203 1    
   162   81  204 1    
   163   82   83 2    
   164   82   84 am   BACKBONE|DICT|INTERRES
   165   84   85 1    
   166   84  205 1    
   167   85   86 1    
   168   85   87 1    
   169   85  206 1    
   170   86  207 1    
   171   86  208 1    
   172   86  209 1    
   173   87   88 2    
   174   87   89 am   BACKBONE|DICT|INTERRES
   175   89   90 1    
   176   89  210 1    
   177   90   91 1    
   178   90   92 1    
   179   90  211 1    
   180   91  212 1    
   181   91  213 1    
   182   91  214 1    
   183   92   93 2    
   184   92   94 am   BACKBONE|DICT|INTERRES
   185   94   95 1    
   186   94  215 1    
   187   95   96 1    
   188   95   97 1    
   189   95  216 1    
   190   96  217 1    
   191   96  218 1    
   192   96  219 1    
   193   97   98 2    
   194   97   99 am   BACKBONE|DICT|INTERRES
   195   99  100 1    
   196   99  220 1    
   197  100  101 1    
   198  100  102 1    
   199  100  221 1    
   200  101  222 1    
   201  101  223 1    
   202  101  224 1    
   203  102  103 2    
   204  102  104 am   BACKBONE|DICT|INTERRES
   205  104  105 1    
   206  104  225 1    
   207  105  106 1    
   208  105  107 1    
   209  105  226 1    
   210  106  227 1    
   211  106  228 1    
   212  106  229 1    
   213  107  108 2    
   214  107  109 am   BACKBONE|DICT|INTERRES
   215  109  110 1    
   216  109  230 1    
   217  110  111 1    
   218  110  112 1    
   219  110  231 1    
   220  111  232 1    
   221  111  233 1    
   222  111  234 1    
   223  112  113 2    
   224  112  114 am   BACKBONE|DICT|INTERRES
   225  114  115 1    
   226  114  235 1    
   227  115  116 1    
   228  115  117 1    
   229  115  236 1    
   230  116  237 1    
   231  116  238 1    
   232  116  239 1    
   233  117  118 2    
   234  117  119 am   BACKBONE|DICT|INTERRES
   235  119  120 1    
   236  119  240 1    
   237  120  121 1    
   238  120  124 1    
   239  120  241 1    
   240  121  122 am   BACKBONE|DICT|INTERRES
   241  121  123 2    
   242  122  242 1    
   243  122  243 1    
   244  124  125 1    
   245  124  244 1    
   246  124  245 1    
   247  125  126 1    
   248  126  246 1    
   249  126  247 1    
@<TRIPOS>SUBSTRUCTURE
     1 UNK         1 GROUP             0       ****    0 ROOT    
