@<TRIPOS>MOLECULE
3R540
247   249    1
SMALL
USER_CHARGES


@<TRIPOS>ATOM
      1 CA         -3.6482  -11.9462  -45.9511 C.3       0 UNK        -0.1800 
      2 C          -2.2038  -12.0311  -45.4819 C.2       0 UNK         0.5000 
      3 O          -1.9056  -11.6564  -44.3490 O.2       0 UNK        -0.5000 
      4 N          -1.3077  -12.5391  -46.3372 N.am      1 UNK        -0.5000 
      5 CA          0.1279  -12.7081  -46.0724 C.3       1 UNK         0.1400 
      6 C6          0.9013  -13.1698  -47.3355 C.3       23 UNK        -0.0398 
      7 S7          0.2212  -14.6912  -48.0843 S.3       23 UNK        -0.2404 
      8 C8          1.3384  -14.9504  -49.4947 C.3       23 UNK        -0.0205 
      9 C9          1.0934  -16.3273  -50.0878 C.ar      23 UNK        -0.0193 
     10 C10         0.1330  -16.5086  -51.0860 C.ar      23 UNK        -0.1150 
     11 C11        -0.1671  -17.7860  -51.5699 C.ar      23 UNK        -0.0193 
     12 C12         0.5084  -18.8897  -51.0288 C.ar      23 UNK        -0.1150 
     13 C13         1.4783  -18.7221  -50.0359 C.ar      23 UNK        -0.0193 
     14 C14         1.7830  -17.4339  -49.5892 C.ar      23 UNK        -0.1150 
     15 C15         2.1612  -19.9426  -49.4252 C.3       23 UNK        -0.0205 
     16 S16         2.1625  -19.9482  -47.5969 S.3       23 UNK        -0.2404 
     17 C17         0.3931  -19.7323  -47.1909 C.3       23 UNK        -0.0398 
     18 CA         -0.3067  -21.0626  -46.8336 C.3       11 UNK         0.1400 
     19 N           0.3010  -21.7195  -45.6734 N.am      11 UNK        -0.5000 
     20 C           0.1372  -23.0150  -45.3663 C.2       10 UNK         0.5000 
     21 O          -0.5111  -23.8001  -46.0559 O.2       10 UNK        -0.5000 
     22 CA          0.7715  -23.5188  -44.0535 C.3       10 UNK         0.1400 
     23 CB          2.1631  -24.1088  -44.3265 C.3       10 UNK        -0.1800 
     24 N           0.8887  -22.4878  -43.0219 N.am      10 UNK        -0.5000 
     25 C          -0.1228  -21.7722  -42.5095 C.2       9 UNK         0.5000 
     26 O          -1.3043  -21.9666  -42.7942 O.2       9 UNK        -0.5000 
     27 CA          0.2548  -20.5991  -41.5812 C.3       9 UNK         0.1400 
     28 CB          0.0732  -20.9986  -40.1100 C.3       9 UNK        -0.1800 
     29 N           1.6238  -20.1067  -41.7836 N.am      9 UNK        -0.5000 
     30 C           2.0863  -19.5728  -42.9228 C.2       8 UNK         0.5000 
     31 O           1.3941  -19.4152  -43.9317 O.2       8 UNK        -0.5000 
     32 CA          3.5932  -19.2627  -42.9616 C.3       8 UNK         0.1400 
     33 CB          4.3829  -20.5401  -43.2902 C.3       8 UNK        -0.1800 
     34 N           3.9107  -18.2519  -43.9670 N.am      8 UNK        -0.5000 
     35 C           3.6789  -16.9439  -43.8222 C.2       7 UNK         0.5000 
     36 O           3.2403  -16.4354  -42.7863 O.2       7 UNK        -0.5000 
     37 CA          3.9842  -16.0700  -45.0490 C.3       7 UNK         0.1400 
     38 CB          2.9329  -16.2963  -46.1438 C.3       7 UNK        -0.1800 
     39 N           3.9562  -14.6661  -44.6597 N.am      7 UNK        -0.5000 
     40 C           4.9879  -13.8153  -44.6915 C.2       6 UNK         0.5000 
     41 O           6.0809  -14.0706  -45.1979 O.2       6 UNK        -0.5000 
     42 CA          4.7602  -12.4529  -44.0100 C.3       6 UNK         0.1400 
     43 CB          4.2181  -11.4252  -45.0155 C.3       6 UNK        -0.1800 
     44 N           3.8172  -12.5753  -42.8995 N.am      6 UNK        -0.5000 
     45 C           4.1200  -13.0450  -41.6820 C.2       5 UNK         0.5000 
     46 O           5.2720  -13.2793  -41.3120 O.2       5 UNK        -0.5000 
     47 CA          2.9303  -13.3267  -40.7387 C.3       5 UNK         0.1400 
     48 CB          3.3005  -13.2143  -39.2452 C.3       5 UNK        -0.1800 
     49 N           1.7389  -12.5319  -41.0558 N.am      5 UNK        -0.5000 
     50 C           1.5848  -11.2020  -40.9638 C.2       4 UNK         0.5000 
     51 O           2.4482  -10.4376  -40.5318 O.2       4 UNK        -0.5000 
     52 CA          0.2480  -10.6159  -41.4656 C.3       4 UNK         0.1400 
     53 CB          0.4678   -9.8449  -42.7772 C.3       4 UNK        -0.1800 
     54 N          -0.7867  -11.6274  -41.6902 N.am      4 UNK        -0.5000 
     55 C          -1.4508  -12.2862  -40.7308 C.2       3 UNK         0.5000 
     56 O          -1.3192  -12.0619  -39.5275 O.2       3 UNK        -0.5000 
     57 CA         -2.3831  -13.4179  -41.2004 C.3       3 UNK         0.1400 
     58 CB         -3.7690  -12.8699  -41.5741 C.3       3 UNK        -0.1800 
     59 N          -1.8234  -14.1533  -42.3375 N.am      3 UNK        -0.5000 
     60 C          -0.7960  -15.0115  -42.2562 C.2       2 UNK         0.5000 
     61 O          -0.2317  -15.3007  -41.2018 O.2       2 UNK        -0.5000 
     62 CA         -0.2918  -15.6207  -43.5772 C.3       2 UNK         0.1400 
     63 CB         -1.0665  -16.8991  -43.9255 C.3       2 UNK        -0.1800 
     64 N          -0.3815  -14.6832  -44.6961 N.am      2 UNK        -0.5000 
     65 C           0.4171  -13.6197  -44.8587 C.2       1 UNK         0.5000 
     66 O           1.3304  -13.3310  -44.0847 O.2       1 UNK        -0.5000 
     67 C          -1.8205  -20.8365  -46.6341 C.2       11 UNK         0.5000 
     68 O          -2.5691  -20.8940  -47.6086 O.2       11 UNK        -0.5000 
     69 N          -2.2536  -20.6055  -45.3854 N.am      12 UNK        -0.5000 
     70 CA         -3.6666  -20.4766  -45.0197 C.3       12 UNK         0.1400 
     71 CB         -3.7921  -19.7012  -43.6992 C.3       12 UNK        -0.1800 
     72 C          -4.3546  -21.8492  -44.9122 C.2       12 UNK         0.5000 
     73 O          -5.5239  -21.9762  -45.2744 O.2       12 UNK        -0.5000 
     74 N          -3.6075  -22.8537  -44.4355 N.am      13 UNK        -0.5000 
     75 CA         -4.0453  -24.2439  -44.2934 C.3       13 UNK         0.1400 
     76 CB         -3.1323  -24.9354  -43.2682 C.3       13 UNK        -0.1800 
     77 C          -4.0691  -25.0352  -45.6201 C.2       13 UNK         0.5000 
     78 O          -4.5120  -26.1853  -45.6206 O.2       13 UNK        -0.5000 
     79 N          -3.5744  -24.4342  -46.7111 N.am      14 UNK        -0.5000 
     80 CA         -3.4952  -25.0158  -48.0512 C.3       14 UNK         0.1400 
     81 CB         -2.7550  -24.0315  -48.9713 C.3       14 UNK        -0.1800 
     82 C          -4.8723  -25.3673  -48.6491 C.2       14 UNK         0.5000 
     83 O          -5.8741  -24.7191  -48.3338 O.2       14 UNK        -0.5000 
     84 N          -4.8815  -26.3761  -49.5296 N.am      15 UNK        -0.5000 
     85 CA         -6.0456  -26.8012  -50.3086 C.3       15 UNK         0.1400 
     86 CB         -5.7046  -28.1240  -51.0132 C.3       15 UNK        -0.1800 
     87 C          -6.4642  -25.7428  -51.3457 C.2       15 UNK         0.5000 
     88 O          -5.6370  -24.9270  -51.7570 O.2       15 UNK        -0.5000 
     89 N          -7.7261  -25.8059  -51.7909 N.am      16 UNK        -0.5000 
     90 CA         -8.3227  -24.8751  -52.7559 C.3       16 UNK         0.1400 
     91 CB         -9.8020  -25.2345  -52.9605 C.3       16 UNK        -0.1800 
     92 C          -7.5893  -24.8168  -54.1103 C.2       16 UNK         0.5000 
     93 O          -7.4695  -23.7372  -54.6882 O.2       16 UNK        -0.5000 
     94 N          -7.0788  -25.9673  -54.5714 N.am      17 UNK        -0.5000 
     95 CA         -6.2731  -26.0812  -55.7880 C.3       17 UNK         0.1400 
     96 CB         -6.0991  -27.5640  -56.1491 C.3       17 UNK        -0.1800 
     97 C          -4.9049  -25.3887  -55.6526 C.2       17 UNK         0.5000 
     98 O          -4.4805  -24.6935  -56.5749 O.2       17 UNK        -0.5000 
     99 N          -4.2585  -25.5582  -54.4911 N.am      18 UNK        -0.5000 
    100 CA        -2.9863  -24.9197  -54.1528 C.3       18 UNK         0.1400 
    101 CB        -2.3901  -25.5868  -52.9039 C.3       18 UNK        -0.1800 
    102 C         -3.1403  -23.4019  -53.9562 C.2       18 UNK         0.5000 
    103 O         -2.3136  -22.6397  -54.4560 O.2       18 UNK        -0.5000 
    104 N         -4.2256  -22.9983  -53.2805 N.am      19 UNK        -0.5000 
    105 CA        -4.6200  -21.6061  -53.0626 C.3       19 UNK         0.1400 
    106 CB        -5.8135  -21.5636  -52.0972 C.3       19 UNK        -0.1800 
    107 C         -4.9466  -20.8539  -54.3682 C.2       19 UNK         0.5000 
    108 O         -4.7082  -19.6491  -54.4492 O.2       19 UNK        -0.5000 
    109 N         -5.4713  -21.5716  -55.3708 N.am      20 UNK        -0.5000 
    110 CA        -5.6673  -21.0621  -56.7254 C.3       20 UNK         0.1400 
    111 CB        -6.6694  -21.9525  -57.4761 C.3       20 UNK        -0.1800 
    112 C         -4.3351  -20.9599  -57.4898 C.2       20 UNK         0.5000 
    113 O         -4.0721  -19.9291  -58.1110 O.2       20 UNK        -0.5000 
    114 N         -3.5127  -22.0180  -57.4188 N.am      21 UNK        -0.5000 
    115 CA        -2.2325  -22.1428  -58.1223 C.3       21 UNK         0.1400 
    116 CB        -1.6478  -23.5442  -57.8910 C.3       21 UNK        -0.1800 
    117 C         -1.1976  -21.0598  -57.7632 C.2       21 UNK         0.5000 
    118 O         -0.4615  -20.6215  -58.6487 O.2       21 UNK        -0.5000 
    119 N         -1.1697  -20.6290  -56.4950 N.am      22 UNK        -0.5000 
    120 CA        -0.3447  -19.5009  -56.0276 C.3       22 UNK         0.1400 
    121 C         -0.8741  -18.0870  -56.4210 C.2       22 UNK         0.5000 
    122 N         -2.0340  -17.9487  -57.0539 N.am      22 UNK        -0.7600 
    123 O         -0.2050  -17.0898  -56.1641 O.2       22 UNK        -0.5000 
    124 C124        0.0046  -19.6115  -54.5201 C.3       23 UNK        -0.0398 
    125 S125       -1.4418  -19.5558  -53.4098 S.3       23 UNK        -0.2404 
    126 C126       -1.2614  -17.9136  -52.6330 C.3       23 UNK        -0.0205 
    127 H127       -4.2922  -12.5211  -45.2856 H         1 UNK         0.0600 
    128 H128       -3.7695  -12.3340  -46.9628 H         1 UNK         0.0600 
    129 H129       -3.9841  -10.9094  -45.9403 H         1 UNK         0.0600 
    130 H130       -1.6146  -12.8488  -47.2488 H         1 UNK         0.3000 
    131 H131        0.5109  -11.7209  -45.8056 H         1 UNK         0.0600 
    132 H132        0.8702  -12.3804  -48.0876 H         1 UNK         0.0800 
    133 H133        1.9581  -13.3224  -47.1080 H         1 UNK         0.0800 
    134 H134        1.1714  -14.1748  -50.2437 H         1 UNK         0.0800 
    135 H135        2.3767  -14.8581  -49.1734 H         1 UNK         0.0800 
    136 H136       -0.4060  -15.6520  -51.4665 H         1 UNK         0.1150 
    137 H137        0.2739  -19.8902  -51.3601 H         1 UNK         0.1150 
    138 H138        2.5233  -17.2983  -48.8153 H         1 UNK         0.1150 
    139 H139        1.6849  -20.8621  -49.7689 H         1 UNK         0.0800 
    140 H140        3.1926  -19.9796  -49.7775 H         1 UNK         0.0800 
    141 H141       -0.1202  -19.2457  -48.0207 H         1 UNK         0.0800 
    142 H142        0.3288  -19.0320  -46.3571 H         1 UNK         0.0800 
    143 H143       -0.1978  -21.7301  -47.6915 H         1 UNK         0.0600 
    144 H144        0.8425  -21.1222  -45.0586 H         1 UNK         0.3000 
    145 H145        0.1346  -24.3115  -43.6586 H         1 UNK         0.0600 
    146 H146        2.5936  -24.5416  -43.4233 H         1 UNK         0.0600 
    147 H147        2.1109  -24.9028  -45.0727 H         1 UNK         0.0600 
    148 H148        2.8543  -23.3522  -44.7003 H         1 UNK         0.0600 
    149 H149        1.8242  -22.2578  -42.7237 H         1 UNK         0.3000 
    150 H150       -0.4313  -19.7787  -41.8013 H         1 UNK         0.0600 
    151 H151        0.7524  -21.8027  -39.8241 H         1 UNK         0.0600 
    152 H152       -0.9440  -21.3456  -39.9224 H         1 UNK         0.0600 
    153 H153        0.2535  -20.1529  -39.4462 H         1 UNK         0.0600 
    154 H154        2.2562  -20.2168  -41.0036 H         1 UNK         0.3000 
    155 H155        3.9041  -18.8970  -41.9806 H         1 UNK         0.0600 
    156 H156        4.0972  -20.9522  -44.2593 H         1 UNK         0.0600 
    157 H157        4.2130  -21.3142  -42.5409 H         1 UNK         0.0600 
    158 H158        5.4554  -20.3452  -43.3128 H         1 UNK         0.0600 
    159 H159        4.2198  -18.5985  -44.8632 H         1 UNK         0.3000 
    160 H160        4.9684  -16.3465  -45.4327 H         1 UNK         0.0600 
    161 H161        1.9229  -16.0955  -45.7873 H         1 UNK         0.0600 
    162 H162        2.9526  -17.3270  -46.4944 H         1 UNK         0.0600 
    163 H163        3.1217  -15.6559  -47.0042 H         1 UNK         0.0600 
    164 H164        3.1133  -14.3691  -44.1812 H         1 UNK         0.3000 
    165 H165        5.7195  -12.0942  -43.6310 H         1 UNK         0.0600 
    166 H166        4.9091  -11.2934  -45.8490 H         1 UNK         0.0600 
    167 H167        3.2576  -11.7326  -45.4302 H         1 UNK         0.0600 
    168 H168        4.0829  -10.4502  -44.5469 H         1 UNK         0.0600 
    169 H169        2.8347  -12.4836  -43.1363 H         1 UNK         0.3000 
    170 H170        2.6473  -14.3639  -40.9247 H         1 UNK         0.0600 
    171 H171        4.0721  -13.9376  -38.9795 H         1 UNK         0.0600 
    172 H172        3.6826  -12.2248  -38.9934 H         1 UNK         0.0600 
    173 H173        2.4378  -13.4143  -38.6096 H         1 UNK         0.0600 
    174 H174        0.9674  -13.0556  -41.4454 H         1 UNK         0.3000 
    175 H175       -0.1107   -9.9157  -40.7085 H         1 UNK         0.0600 
    176 H176       -0.4575   -9.3846  -43.1243 H         1 UNK         0.0600 
    177 H177        1.1989   -9.0461  -42.6465 H         1 UNK         0.0600 
    178 H178        0.8337  -10.4988  -43.5696 H         1 UNK         0.0600 
    179 H179       -1.0251  -11.8191  -42.6599 H         1 UNK         0.3000 
    180 H180       -2.5083  -14.1142  -40.3683 H         1 UNK         0.0600 
    181 H181       -3.7172  -12.1636  -42.4030 H         1 UNK         0.0600 
    182 H182       -4.2216  -12.3494  -40.7292 H         1 UNK         0.0600 
    183 H183       -4.4468  -13.6742  -41.8605 H         1 UNK         0.0600 
    184 H184       -2.1972  -13.9306  -43.2482 H         1 UNK         0.3000 
    185 H185        0.7555  -15.8908  -43.4376 H         1 UNK         0.0600 
    186 H186       -1.0111  -17.6238  -43.1122 H         1 UNK         0.0600 
    187 H187       -2.1196  -16.6899  -44.1148 H         1 UNK         0.0600 
    188 H188       -0.6531  -17.3791  -44.8124 H         1 UNK         0.0600 
    189 H189       -1.0976  -14.8554  -45.3868 H         1 UNK         0.3000 
    190 H190       -1.5888  -20.6251  -44.6244 H         1 UNK         0.3000 
    191 H191       -4.1820  -19.9041  -45.7940 H         1 UNK         0.0600 
    192 H192       -3.3707  -18.7015  -43.7887 H         1 UNK         0.0600 
    193 H193       -4.8388  -19.5851  -43.4151 H         1 UNK         0.0600 
    194 H194       -3.2858  -20.2073  -42.8772 H         1 UNK         0.0600 
    195 H195       -2.6779  -22.6367  -44.0915 H         1 UNK         0.3000 
    196 H196       -5.0627  -24.2457  -43.8971 H         1 UNK         0.0600 
    197 H197       -3.4775  -25.9477  -43.0547 H         1 UNK         0.0600 
    198 H198       -3.1139  -24.3925  -42.3229 H         1 UNK         0.0600 
    199 H199       -2.1084  -25.0089  -43.6337 H         1 UNK         0.0600 
    200 H200       -3.2241  -23.4935  -46.6109 H         1 UNK         0.3000 
    201 H201       -2.9055  -25.9314  -47.9739 H         1 UNK         0.0600 
    202 H202       -2.6092  -24.4546  -49.9649 H         1 UNK         0.0600 
    203 H203       -3.3122  -23.1016  -49.0929 H         1 UNK         0.0600 
    204 H204       -1.7690  -23.7837  -48.5780 H         1 UNK         0.0600 
    205 H205       -4.0102  -26.8338  -49.7517 H         1 UNK         0.3000 
    206 H206       -6.8785  -26.9663  -49.6220 H         1 UNK         0.0600 
    207 H207       -5.4315  -28.8953  -50.2927 H         1 UNK         0.0600 
    208 H208       -6.5571  -28.5011  -51.5796 H         1 UNK         0.0600 
    209 H209       -4.8734  -28.0069  -51.7101 H         1 UNK         0.0600 
    210 H210       -8.3397  -26.5162  -51.4184 H         1 UNK         0.3000 
    211 H211       -8.2757  -23.8769  -52.3169 H         1 UNK         0.0600 
    212 H212       -9.9205  -26.2420  -53.3611 H         1 UNK         0.0600 
    213 H213      -10.2783  -24.5451  -53.6591 H         1 UNK         0.0600 
    214 H214      -10.3556  -25.1777  -52.0231 H         1 UNK         0.0600 
    215 H215       -7.2259  -26.8096  -54.0353 H         1 UNK         0.3000 
    216 H216       -6.8136  -25.5933  -56.6020 H         1 UNK         0.0600 
    217 H217       -5.5116  -27.6763  -57.0613 H         1 UNK         0.0600 
    218 H218       -7.0630  -28.0424  -56.3239 H         1 UNK         0.0600 
    219 H219       -5.5883  -28.1161  -55.3592 H         1 UNK         0.0600 
    220 H220       -4.7082  -26.0868  -53.7589 H         1 UNK         0.3000 
    221 H221       -2.2939  -25.0799  -54.9816 H         1 UNK         0.0600 
    222 H222       -3.0616  -25.5179  -52.0489 H         1 UNK         0.0600 
    223 H223       -2.1854  -26.6424  -53.0826 H         1 UNK         0.0600 
    224 H224       -1.4479  -25.1156  -52.6215 H         1 UNK         0.0600 
    225 H225       -4.8219  -23.7079  -52.8593 H         1 UNK         0.3000 
    226 H226       -3.7821  -21.0984  -52.5833 H         1 UNK         0.0600 
    227 H227       -6.0919  -20.5347  -51.8665 H         1 UNK         0.0600 
    228 H228       -6.6891  -22.0536  -52.5226 H         1 UNK         0.0600 
    229 H229       -5.5772  -22.0575  -51.1542 H         1 UNK         0.0600 
    230 H230       -5.7192  -22.5387  -55.2021 H         1 UNK         0.3000 
    231 H231       -6.0956  -20.0594  -56.6619 H         1 UNK         0.0600 
    232 H232       -6.3187  -22.9812  -57.5583 H         1 UNK         0.0600 
    233 H233       -6.8392  -21.5814  -58.4875 H         1 UNK         0.0600 
    234 H234       -7.6346  -21.9700  -56.9696 H         1 UNK         0.0600 
    235 H235       -3.8202  -22.8388  -56.9069 H         1 UNK         0.3000 
    236 H236       -2.4448  -22.0425  -59.1886 H         1 UNK         0.0600 
    237 H237       -2.3291  -24.3200  -58.2402 H         1 UNK         0.0600 
    238 H238       -0.7093  -23.6706  -58.4323 H         1 UNK         0.0600 
    239 H239       -1.4436  -23.7245  -56.8358 H         1 UNK         0.0600 
    240 H240       -1.7767  -21.0642  -55.8080 H         1 UNK         0.3000 
    241 H241        0.6109  -19.5807  -56.5491 H         1 UNK         0.0600 
    242 H242       -2.6022  -18.7513  -57.2986 H         1 UNK         0.3800 
    243 H243       -2.3499  -17.0253  -57.3033 H         1 UNK         0.3800 
    244 H244        0.7177  -18.8363  -54.2347 H         1 UNK         0.0800 
    245 H245        0.5184  -20.5564  -54.3391 H         1 UNK         0.0800 
    246 H246       -2.2148  -17.6606  -52.1674 H         1 UNK         0.0800 
    247 H247       -1.0975  -17.1717  -53.4160 H         1 UNK         0.0800 
@<TRIPOS>BOND
     1    1    2 1    
     2    1  127 1    
     3    1  128 1    
     4    1  129 1    
     5    2    3 2    
     6    2    4 am   BACKBONE|DICT|INTERRES
     7    4    5 1    
     8    4  130 1    
     9    5    6 1    
    10    5   65 1    
    11    5  131 1    
    12    6    7 1    
    13    6  132 1    
    14    6  133 1    
    15    7    8 1    
    16    8    9 1    
    17    8  134 1    
    18    8  135 1    
    19    9   10 ar   
    20    9   14 ar   
    21   10   11 ar   
    22   10  136 1    
    23   11   12 ar   
    24   11  126 1    
    25   12   13 ar   
    26   12  137 1    
    27   13   14 ar   
    28   13   15 1    
    29   14  138 1    
    30   15   16 1    
    31   15  139 1    
    32   15  140 1    
    33   16   17 1    
    34   17   18 1    
    35   17  141 1    
    36   17  142 1    
    37   18   19 1    
    38   18   67 1    
    39   18  143 1    
    40   19   20 am   BACKBONE|DICT|INTERRES
    41   19  144 1    
    42   20   21 2    
    43   20   22 1    
    44   22   23 1    
    45   22   24 1    
    46   22  145 1    
    47   23  146 1    
    48   23  147 1    
    49   23  148 1    
    50   24   25 am   BACKBONE|DICT|INTERRES
    51   24  149 1    
    52   25   26 2    
    53   25   27 1    
    54   27   28 1    
    55   27   29 1    
    56   27  150 1    
    57   28  151 1    
    58   28  152 1    
    59   28  153 1    
    60   29   30 am   BACKBONE|DICT|INTERRES
    61   29  154 1    
    62   30   31 2    
    63   30   32 1    
    64   32   33 1    
    65   32   34 1    
    66   32  155 1    
    67   33  156 1    
    68   33  157 1    
    69   33  158 1    
    70   34   35 am   BACKBONE|DICT|INTERRES
    71   34  159 1    
    72   35   36 2    
    73   35   37 1    
    74   37   38 1    
    75   37   39 1    
    76   37  160 1    
    77   38  161 1    
    78   38  162 1    
    79   38  163 1    
    80   39   40 am   BACKBONE|DICT|INTERRES
    81   39  164 1    
    82   40   41 2    
    83   40   42 1    
    84   42   43 1    
    85   42   44 1    
    86   42  165 1    
    87   43  166 1    
    88   43  167 1    
    89   43  168 1    
    90   44   45 am   BACKBONE|DICT|INTERRES
    91   44  169 1    
    92   45   46 2    
    93   45   47 1    
    94   47   48 1    
    95   47   49 1    
    96   47  170 1    
    97   48  171 1    
    98   48  172 1    
    99   48  173 1    
   100   49   50 am   BACKBONE|DICT|INTERRES
   101   49  174 1    
   102   50   51 2    
   103   50   52 1    
   104   52   53 1    
   105   52   54 1    
   106   52  175 1    
   107   53  176 1    
   108   53  177 1    
   109   53  178 1    
   110   54   55 am   BACKBONE|DICT|INTERRES
   111   54  179 1    
   112   55   56 2    
   113   55   57 1    
   114   57   58 1    
   115   57   59 1    
   116   57  180 1    
   117   58  181 1    
   118   58  182 1    
   119   58  183 1    
   120   59   60 am   BACKBONE|DICT|INTERRES
   121   59  184 1    
   122   60   61 2    
   123   60   62 1    
   124   62   63 1    
   125   62   64 1    
   126   62  185 1    
   127   63  186 1    
   128   63  187 1    
   129   63  188 1    
   130   64   65 am   BACKBONE|DICT|INTERRES
   131   64  189 1    
   132   65   66 2    
   133   67   68 2    
   134   67   69 am   BACKBONE|DICT|INTERRES
   135   69   70 1    
   136   69  190 1    
   137   70   71 1    
   138   70   72 1    
   139   70  191 1    
   140   71  192 1    
   141   71  193 1    
   142   71  194 1    
   143   72   73 2    
   144   72   74 am   BACKBONE|DICT|INTERRES
   145   74   75 1    
   146   74  195 1    
   147   75   76 1    
   148   75   77 1    
   149   75  196 1    
   150   76  197 1    
   151   76  198 1    
   152   76  199 1    
   153   77   78 2    
   154   77   79 am   BACKBONE|DICT|INTERRES
   155   79   80 1    
   156   79  200 1    
   157   80   81 1    
   158   80   82 1    
   159   80  201 1    
   160   81  202 1    
   161   81  203 1    
   162   81  204 1    
   163   82   83 2    
   164   82   84 am   BACKBONE|DICT|INTERRES
   165   84   85 1    
   166   84  205 1    
   167   85   86 1    
   168   85   87 1    
   169   85  206 1    
   170   86  207 1    
   171   86  208 1    
   172   86  209 1    
   173   87   88 2    
   174   87   89 am   BACKBONE|DICT|INTERRES
   175   89   90 1    
   176   89  210 1    
   177   90   91 1    
   178   90   92 1    
   179   90  211 1    
   180   91  212 1    
   181   91  213 1    
   182   91  214 1    
   183   92   93 2    
   184   92   94 am   BACKBONE|DICT|INTERRES
   185   94   95 1    
   186   94  215 1    
   187   95   96 1    
   188   95   97 1    
   189   95  216 1    
   190   96  217 1    
   191   96  218 1    
   192   96  219 1    
   193   97   98 2    
   194   97   99 am   BACKBONE|DICT|INTERRES
   195   99  100 1    
   196   99  220 1    
   197  100  101 1    
   198  100  102 1    
   199  100  221 1    
   200  101  222 1    
   201  101  223 1    
   202  101  224 1    
   203  102  103 2    
   204  102  104 am   BACKBONE|DICT|INTERRES
   205  104  105 1    
   206  104  225 1    
   207  105  106 1    
   208  105  107 1    
   209  105  226 1    
   210  106  227 1    
   211  106  228 1    
   212  106  229 1    
   213  107  108 2    
   214  107  109 am   BACKBONE|DICT|INTERRES
   215  109  110 1    
   216  109  230 1    
   217  110  111 1    
   218  110  112 1    
   219  110  231 1    
   220  111  232 1    
   221  111  233 1    
   222  111  234 1    
   223  112  113 2    
   224  112  114 am   BACKBONE|DICT|INTERRES
   225  114  115 1    
   226  114  235 1    
   227  115  116 1    
   228  115  117 1    
   229  115  236 1    
   230  116  237 1    
   231  116  238 1    
   232  116  239 1    
   233  117  118 2    
   234  117  119 am   BACKBONE|DICT|INTERRES
   235  119  120 1    
   236  119  240 1    
   237  120  121 1    
   238  120  124 1    
   239  120  241 1    
   240  121  122 am   BACKBONE|DICT|INTERRES
   241  121  123 2    
   242  122  242 1    
   243  122  243 1    
   244  124  125 1    
   245  124  244 1    
   246  124  245 1    
   247  125  126 1    
   248  126  246 1    
   249  126  247 1    
@<TRIPOS>SUBSTRUCTURE
     1 UNK         1 GROUP             0       ****    0 ROOT    
