@<TRIPOS>MOLECULE
3R540
247   249    1
SMALL
USER_CHARGES


@<TRIPOS>ATOM
      1 CA         -5.7842  -18.0877  -44.1495 C.3       0 UNK        -0.1800 
      2 C          -4.9426  -16.8200  -44.1486 C.2       0 UNK         0.5000 
      3 O          -5.3188  -15.8266  -43.5259 O.2       0 UNK        -0.5000 
      4 N          -3.7930  -16.8562  -44.8329 N.am      1 UNK        -0.5000 
      5 CA         -2.8366  -15.7520  -44.9934 C.3       1 UNK         0.1400 
      6 C6         -1.9835  -15.9321  -46.2769 C.3       23 UNK        -0.0398 
      7 S7         -3.0071  -15.8699  -47.7838 S.3       23 UNK        -0.2404 
      8 C8         -1.7392  -15.9225  -49.0894 C.3       23 UNK        -0.0205 
      9 C9         -1.3265  -17.3443  -49.4448 C.ar      23 UNK        -0.0193 
     10 C10        -2.2229  -18.1796  -50.1179 C.ar      23 UNK        -0.1150 
     11 C11        -1.8415  -19.4669  -50.5008 C.ar      23 UNK        -0.0193 
     12 C12        -0.5521  -19.9165  -50.2104 C.ar      23 UNK        -0.1150 
     13 C13         0.3581  -19.0968  -49.5359 C.ar      23 UNK        -0.0193 
     14 C14        -0.0399  -17.8104  -49.1528 C.ar      23 UNK        -0.1150 
     15 C15         1.7893  -19.5628  -49.2750 C.3       23 UNK        -0.0205 
     16 S16         1.9323  -21.3067  -48.7468 S.3       23 UNK        -0.2404 
     17 C17         1.2832  -21.2195  -47.0472 C.3       23 UNK        -0.0398 
     18 CA          0.2619  -22.3295  -46.6908 C.3       11 UNK         0.1400 
     19 N           0.0545  -22.3979  -45.2401 N.am      11 UNK        -0.5000 
     20 C          -0.6706  -23.3201  -44.5908 C.2       10 UNK         0.5000 
     21 O          -1.2243  -24.2717  -45.1384 O.2       10 UNK        -0.5000 
     22 CA         -0.8414  -23.1108  -43.0750 C.3       10 UNK         0.1400 
     23 CB          0.3670  -23.6705  -42.3102 C.3       10 UNK        -0.1800 
     24 N          -1.0265  -21.7010  -42.7253 N.am      10 UNK        -0.5000 
     25 C          -2.1081  -20.9766  -43.0487 C.2       9 UNK         0.5000 
     26 O          -3.0856  -21.4298  -43.6419 O.2       9 UNK        -0.5000 
     27 CA         -2.0544  -19.4749  -42.7139 C.3       9 UNK         0.1400 
     28 CB         -2.4321  -19.2266  -41.2478 C.3       9 UNK        -0.1800 
     29 N          -0.7420  -18.8891  -42.9898 N.am      9 UNK        -0.5000 
     30 C          -0.1668  -18.8497  -44.1993 C.2       8 UNK         0.5000 
     31 O          -0.7449  -19.2225  -45.2198 O.2       8 UNK        -0.5000 
     32 CA          1.2972  -18.3697  -44.2901 C.3       8 UNK         0.1400 
     33 CB          1.5332  -17.4148  -45.4726 C.3       8 UNK        -0.1800 
     34 N           1.8055  -17.7543  -43.0628 N.am      8 UNK        -0.5000 
     35 C           2.2272  -18.4110  -41.9751 C.2       7 UNK         0.5000 
     36 O           2.1521  -19.6354  -41.8592 O.2       7 UNK        -0.5000 
     37 CA          2.8367  -17.5485  -40.8469 C.3       7 UNK         0.1400 
     38 CB          3.3301  -18.3904  -39.6567 C.3       7 UNK        -0.1800 
     39 N           3.9477  -16.7296  -41.3398 N.am      7 UNK        -0.5000 
     40 C           3.8180  -15.5936  -42.0336 C.2       6 UNK         0.5000 
     41 O           2.7254  -15.0695  -42.2775 O.2       6 UNK        -0.5000 
     42 CA          5.1098  -14.9742  -42.5879 C.3       6 UNK         0.1400 
     43 CB          5.6724  -15.8407  -43.7329 C.3       6 UNK        -0.1800 
     44 N           4.7843  -13.6411  -43.0754 N.am      6 UNK        -0.5000 
     45 C           5.6223  -12.6843  -43.4875 C.2       5 UNK         0.5000 
     46 O           6.8485  -12.7994  -43.4601 O.2       5 UNK        -0.5000 
     47 CA          4.9901  -11.3631  -43.9864 C.3       5 UNK         0.1400 
     48 CB          5.6210  -10.8769  -45.3075 C.3       5 UNK        -0.1800 
     49 N           3.5220  -11.3971  -44.0744 N.am      5 UNK        -0.5000 
     50 C           2.7505  -12.1186  -44.9014 C.2       4 UNK         0.5000 
     51 O           3.1889  -12.8239  -45.8109 O.2       4 UNK        -0.5000 
     52 CA          1.2385  -12.0956  -44.5919 C.3       4 UNK         0.1400 
     53 CB          0.4152  -12.9150  -45.5997 C.3       4 UNK        -0.1800 
     54 N           0.9740  -12.6051  -43.2430 N.am      4 UNK        -0.5000 
     55 C           1.1236  -11.9099  -42.1062 C.2       3 UNK         0.5000 
     56 O           1.4868  -10.7318  -42.0881 O.2       3 UNK        -0.5000 
     57 CA          0.8839  -12.6573  -40.7757 C.3       3 UNK         0.1400 
     58 CB          0.4348  -11.7179  -39.6365 C.3       3 UNK        -0.1800 
     59 N          -0.0149  -13.8115  -40.8872 N.am      3 UNK        -0.5000 
     60 C          -1.3084  -13.7989  -41.2361 C.2       2 UNK         0.5000 
     61 O          -1.9440  -12.7828  -41.5258 O.2       2 UNK        -0.5000 
     62 CA         -2.0120  -15.1675  -41.2665 C.3       2 UNK         0.1400 
     63 CB         -3.0853  -15.2543  -40.1698 C.3       2 UNK        -0.1800 
     64 N          -2.6315  -15.4204  -42.5643 N.am      2 UNK        -0.5000 
     65 C          -1.9749  -15.5429  -43.7238 C.2       1 UNK         0.5000 
     66 O          -0.7463  -15.5082  -43.7989 O.2       1 UNK        -0.5000 
     67 C          -1.0789  -22.1545  -47.4337 C.2       11 UNK         0.5000 
     68 O          -1.3578  -22.8921  -48.3813 O.2       11 UNK        -0.5000 
     69 N          -1.9011  -21.2174  -46.9429 N.am      12 UNK        -0.5000 
     70 CA         -3.2462  -20.9417  -47.4339 C.3       12 UNK         0.1400 
     71 CB         -3.7660  -19.6510  -46.7910 C.3       12 UNK        -0.1800 
     72 C          -4.2190  -22.1111  -47.2146 C.2       12 UNK         0.5000 
     73 O          -4.9397  -22.4708  -48.1450 O.2       12 UNK        -0.5000 
     74 N          -4.1995  -22.7047  -46.0123 N.am      13 UNK        -0.5000 
     75 CA         -5.0288  -23.8537  -45.6379 C.3       13 UNK         0.1400 
     76 CB         -4.8767  -24.1313  -44.1350 C.3       13 UNK        -0.1800 
     77 C          -4.7186  -25.1205  -46.4571 C.2       13 UNK         0.5000 
     78 O          -5.6436  -25.8343  -46.8463 O.2       13 UNK        -0.5000 
     79 N          -3.4288  -25.3614  -46.7270 N.am      14 UNK        -0.5000 
     80 CA         -2.9470  -26.4556  -47.5718 C.3       14 UNK         0.1400 
     81 CB         -1.4619  -26.6982  -47.2603 C.3       14 UNK        -0.1800 
     82 C          -3.1350  -26.1945  -49.0799 C.2       14 UNK         0.5000 
     83 O          -3.0161  -27.1348  -49.8663 O.2       14 UNK        -0.5000 
     84 N          -3.3857  -24.9298  -49.4545 N.am      15 UNK        -0.5000 
     85 CA         -3.4405  -24.3907  -50.8184 C.3       15 UNK         0.1400 
     86 CB         -4.6320  -24.9814  -51.6007 C.3       15 UNK        -0.1800 
     87 C          -2.0935  -24.5385  -51.5641 C.2       15 UNK         0.5000 
     88 O          -2.0732  -24.7286  -52.7812 O.2       15 UNK        -0.5000 
     89 N          -0.9893  -24.4764  -50.8064 N.am      16 UNK        -0.5000 
     90 CA          0.3326  -24.9735  -51.1937 C.3       16 UNK         0.1400 
     91 CB          1.2304  -25.0213  -49.9488 C.3       16 UNK        -0.1800 
     92 C           1.0200  -24.2075  -52.3373 C.2       16 UNK         0.5000 
     93 O           1.8432  -24.7964  -53.0393 O.2       16 UNK        -0.5000 
     94 N           0.6746  -22.9263  -52.5197 N.am      17 UNK        -0.5000 
     95 CA          1.1909  -22.0972  -53.6126 C.3       17 UNK         0.1400 
     96 CB          1.0402  -20.6130  -53.2501 C.3       17 UNK        -0.1800 
     97 C           0.5257  -22.4037  -54.9696 C.2       17 UNK         0.5000 
     98 O           1.1020  -22.0657  -56.0040 O.2       17 UNK        -0.5000 
     99 N          -0.6610  -23.0343  -54.9435 N.am      18 UNK        -0.5000 
    100 CA        -1.4567  -23.4889  -56.0919 C.3       18 UNK         0.1400 
    101 CB        -0.7457  -24.6587  -56.8031 C.3       18 UNK        -0.1800 
    102 C         -1.8799  -22.3673  -57.0691 C.2       18 UNK         0.5000 
    103 O         -2.1200  -22.6362  -58.2481 O.2       18 UNK        -0.5000 
    104 N         -1.9721  -21.1301  -56.5647 N.am      19 UNK        -0.5000 
    105 CA        -2.4317  -19.9550  -57.3026 C.3       19 UNK         0.1400 
    106 CB        -1.9895  -18.6982  -56.5341 C.3       19 UNK        -0.1800 
    107 C         -3.9604  -19.9614  -57.4918 C.2       19 UNK         0.5000 
    108 O         -4.6668  -20.7323  -56.8363 O.2       19 UNK        -0.5000 
    109 N         -4.4600  -19.0483  -58.3350 N.am      20 UNK        -0.5000 
    110 CA        -5.8924  -18.8333  -58.5774 C.3       20 UNK         0.1400 
    111 CB        -6.0637  -17.8015  -59.7025 C.3       20 UNK        -0.1800 
    112 C         -6.6749  -18.3982  -57.3197 C.2       20 UNK         0.5000 
    113 O         -7.8597  -18.7119  -57.2022 O.2       20 UNK        -0.5000 
    114 N         -5.9899  -17.7124  -56.3936 N.am      21 UNK        -0.5000 
    115 CA        -6.5050  -17.3498  -55.0726 C.3       21 UNK         0.1400 
    116 CB        -5.6428  -16.2133  -54.5010 C.3       21 UNK        -0.1800 
    117 C         -6.5353  -18.5402  -54.0919 C.2       21 UNK         0.5000 
    118 O         -7.3391  -18.5301  -53.1588 O.2       21 UNK        -0.5000 
    119 N         -5.6591  -19.5291  -54.3080 N.am      22 UNK        -0.5000 
    120 CA        -5.5555  -20.7532  -53.5015 C.3       22 UNK         0.1400 
    121 C         -6.5615  -21.8407  -53.9614 C.2       22 UNK         0.5000 
    122 N         -6.7397  -22.0387  -55.2618 N.am      22 UNK        -0.7600 
    123 O         -7.1807  -22.5057  -53.1366 O.2       22 UNK        -0.5000 
    124 C124       -4.1174  -21.3328  -53.4931 C.3       23 UNK        -0.0398 
    125 S125       -2.8483  -20.1221  -52.9953 S.3       23 UNK        -0.2404 
    126 C126       -2.8283  -20.3850  -51.2002 C.3       23 UNK        -0.0205 
    127 H127       -6.6685  -17.9638  -43.5241 H         1 UNK         0.0600 
    128 H128       -5.2143  -18.9325  -43.7629 H         1 UNK         0.0600 
    129 H129       -6.1156  -18.3242  -45.1606 H         1 UNK         0.0600 
    130 H130       -3.5429  -17.7019  -45.3234 H         1 UNK         0.3000 
    131 H131       -3.4068  -14.8283  -45.1142 H         1 UNK         0.0600 
    132 H132       -1.4370  -16.8753  -46.2574 H         1 UNK         0.0800 
    133 H133       -1.2366  -15.1427  -46.3571 H         1 UNK         0.0800 
    134 H134       -2.1439  -15.4449  -49.9828 H         1 UNK         0.0800 
    135 H135       -0.8759  -15.3244  -48.7938 H         1 UNK         0.0800 
    136 H136       -3.2177  -17.8242  -50.3475 H         1 UNK         0.1150 
    137 H137       -0.2562  -20.9101  -50.5112 H         1 UNK         0.1150 
    138 H138        0.6613  -17.1587  -48.6515 H         1 UNK         0.1150 
    139 H139        2.3611  -19.4337  -50.1942 H         1 UNK         0.0800 
    140 H140        2.2701  -18.9300  -48.5274 H         1 UNK         0.0800 
    141 H141        0.8537  -20.2330  -46.8821 H         1 UNK         0.0800 
    142 H142        2.1448  -21.2846  -46.3814 H         1 UNK         0.0800 
    143 H143        0.6814  -23.2904  -46.9961 H         1 UNK         0.0600 
    144 H144        0.4391  -21.6410  -44.6974 H         1 UNK         0.3000 
    145 H145       -1.7300  -23.6610  -42.7591 H         1 UNK         0.0600 
    146 H146        0.2187  -23.5978  -41.2327 H         1 UNK         0.0600 
    147 H147        0.5235  -24.7242  -42.5454 H         1 UNK         0.0600 
    148 H148        1.2858  -23.1377  -42.5588 H         1 UNK         0.0600 
    149 H149       -0.2629  -21.2448  -42.2462 H         1 UNK         0.3000 
    150 H150       -2.7847  -18.9700  -43.3456 H         1 UNK         0.0600 
    151 H151       -1.7216  -19.6897  -40.5620 H         1 UNK         0.0600 
    152 H152       -3.4193  -19.6337  -41.0251 H         1 UNK         0.0600 
    153 H153       -2.4648  -18.1612  -41.0273 H         1 UNK         0.0600 
    154 H154       -0.2009  -18.5758  -42.1989 H         1 UNK         0.3000 
    155 H155        1.8895  -19.2658  -44.4846 H         1 UNK         0.0600 
    156 H156        1.0246  -16.4622  -45.3386 H         1 UNK         0.0600 
    157 H157        1.1781  -17.8462  -46.4077 H         1 UNK         0.0600 
    158 H158        2.5954  -17.2052  -45.5990 H         1 UNK         0.0600 
    159 H159        1.8751  -16.7416  -43.0617 H         1 UNK         0.3000 
    160 H160        2.0455  -16.8913  -40.4804 H         1 UNK         0.0600 
    161 H161        4.1238  -19.0784  -39.9505 H         1 UNK         0.0600 
    162 H162        2.5191  -18.9846  -39.2335 H         1 UNK         0.0600 
    163 H163        3.7151  -17.7557  -38.8583 H         1 UNK         0.0600 
    164 H164        4.8720  -17.1150  -41.2084 H         1 UNK         0.3000 
    165 H165        5.8391  -14.8934  -41.7798 H         1 UNK         0.0600 
    166 H166        6.6010  -15.4298  -44.1287 H         1 UNK         0.0600 
    167 H167        5.8933  -16.8532  -43.3938 H         1 UNK         0.0600 
    168 H168        4.9640  -15.9183  -44.5590 H         1 UNK         0.0600 
    169 H169        3.7878  -13.4663  -43.1117 H         1 UNK         0.3000 
    170 H170        5.2208  -10.6189  -43.2230 H         1 UNK         0.0600 
    171 H171        6.6878  -10.6879  -45.1836 H         1 UNK         0.0600 
    172 H172        5.5143  -11.6121  -46.1053 H         1 UNK         0.0600 
    173 H173        5.1651   -9.9458  -45.6440 H         1 UNK         0.0600 
    174 H174        3.0348  -10.8872  -43.3428 H         1 UNK         0.3000 
    175 H175        0.9043  -11.0579  -44.6553 H         1 UNK         0.0600 
    176 H176        0.7164  -13.9630  -45.5999 H         1 UNK         0.0600 
    177 H177       -0.6489  -12.8701  -45.3671 H         1 UNK         0.0600 
    178 H178        0.5440  -12.5346  -46.6136 H         1 UNK         0.0600 
    179 H179        0.7197  -13.5830  -43.1751 H         1 UNK         0.3000 
    180 H180        1.8551  -13.0651  -40.4924 H         1 UNK         0.0600 
    181 H181       -0.4973  -11.2058  -39.8763 H         1 UNK         0.0600 
    182 H182        1.1859  -10.9518  -39.4407 H         1 UNK         0.0600 
    183 H183        0.2866  -12.2677  -38.7071 H         1 UNK         0.0600 
    184 H184        0.4257  -14.7046  -40.7194 H         1 UNK         0.3000 
    185 H185       -1.2752  -15.9538  -41.0896 H         1 UNK         0.0600 
    186 H186       -2.6461  -15.1064  -39.1825 H         1 UNK         0.0600 
    187 H187       -3.8573  -14.4953  -40.3029 H         1 UNK         0.0600 
    188 H188       -3.5752  -16.2277  -40.1656 H         1 UNK         0.0600 
    189 H189       -3.6460  -15.4375  -42.5976 H         1 UNK         0.3000 
    190 H190       -1.5647  -20.6214  -46.1915 H         1 UNK         0.3000 
    191 H191       -3.1784  -20.7776  -48.5068 H         1 UNK         0.0600 
    192 H192       -3.1102  -18.8141  -47.0292 H         1 UNK         0.0600 
    193 H193       -4.7621  -19.4018  -47.1586 H         1 UNK         0.0600 
    194 H194       -3.8213  -19.7425  -45.7068 H         1 UNK         0.0600 
    195 H195       -3.6100  -22.3162  -45.2813 H         1 UNK         0.3000 
    196 H196       -6.0700  -23.5854  -45.8284 H         1 UNK         0.0600 
    197 H197       -5.4966  -24.9745  -43.8277 H         1 UNK         0.0600 
    198 H198       -5.1837  -23.2697  -43.5420 H         1 UNK         0.0600 
    199 H199       -3.8453  -24.3684  -43.8732 H         1 UNK         0.0600 
    200 H200       -2.7182  -24.7636  -46.3138 H         1 UNK         0.3000 
    201 H201       -3.5013  -27.3629  -47.3229 H         1 UNK         0.0600 
    202 H202       -1.0583  -27.5122  -47.8638 H         1 UNK         0.0600 
    203 H203       -1.3182  -26.9673  -46.2137 H         1 UNK         0.0600 
    204 H204       -0.8628  -25.8093  -47.4611 H         1 UNK         0.0600 
    205 H205       -3.4543  -24.2379  -48.7195 H         1 UNK         0.3000 
    206 H206       -3.6270  -23.3253  -50.7030 H         1 UNK         0.0600 
    207 H207       -5.5654  -24.8481  -51.0535 H         1 UNK         0.0600 
    208 H208       -4.7530  -24.4913  -52.5671 H         1 UNK         0.0600 
    209 H209       -4.5046  -26.0467  -51.7938 H         1 UNK         0.0600 
    210 H210       -1.1004  -24.1968  -49.8359 H         1 UNK         0.3000 
    211 H211        0.1989  -25.9991  -51.5440 H         1 UNK         0.0600 
    212 H212        1.3196  -24.0412  -49.4831 H         1 UNK         0.0600 
    213 H213        2.2364  -25.3607  -50.1990 H         1 UNK         0.0600 
    214 H214        0.8338  -25.7108  -49.2043 H         1 UNK         0.0600 
    215 H215       -0.0102  -22.5174  -51.9030 H         1 UNK         0.3000 
    216 H216        2.2583  -22.2987  -53.7261 H         1 UNK         0.0600 
    217 H217        1.4385  -19.9747  -54.0398 H         1 UNK         0.0600 
    218 H218        1.5857  -20.3749  -52.3376 H         1 UNK         0.0600 
    219 H219       -0.0012  -20.3352  -53.1023 H         1 UNK         0.0600 
    220 H220       -1.0281  -23.3110  -54.0404 H         1 UNK         0.3000 
    221 H221       -2.3851  -23.8791  -55.6723 H         1 UNK         0.0600 
    222 H222        0.1687  -24.3333  -57.3000 H         1 UNK         0.0600 
    223 H223       -0.4818  -25.4457  -56.0964 H         1 UNK         0.0600 
    224 H224       -1.3884  -25.1085  -57.5607 H         1 UNK         0.0600 
    225 H225       -1.7736  -20.9984  -55.5843 H         1 UNK         0.3000 
    226 H226       -1.9603  -19.9517  -58.2875 H         1 UNK         0.0600 
    227 H227       -0.9139  -18.7036  -56.3555 H         1 UNK         0.0600 
    228 H228       -2.2161  -17.7907  -57.0947 H         1 UNK         0.0600 
    229 H229       -2.4874  -18.6178  -55.5674 H         1 UNK         0.0600 
    230 H230       -3.8251  -18.4436  -58.8363 H         1 UNK         0.3000 
    231 H231       -6.3181  -19.7808  -58.9143 H         1 UNK         0.0600 
    232 H232       -5.6309  -16.8370  -59.4338 H         1 UNK         0.0600 
    233 H233       -7.1190  -17.6373  -59.9247 H         1 UNK         0.0600 
    234 H234       -5.5884  -18.1391  -60.6237 H         1 UNK         0.0600 
    235 H235       -5.0277  -17.4776  -56.5862 H         1 UNK         0.3000 
    236 H236       -7.5274  -16.9821  -55.1832 H         1 UNK         0.0600 
    237 H237       -5.6562  -15.3405  -55.1540 H         1 UNK         0.0600 
    238 H238       -6.0139  -15.8944  -53.5261 H         1 UNK         0.0600 
    239 H239       -4.6044  -16.5218  -54.3714 H         1 UNK         0.0600 
    240 H240       -5.0855  -19.5037  -55.1387 H         1 UNK         0.3000 
    241 H241       -5.8056  -20.5033  -52.4684 H         1 UNK         0.0600 
    242 H242       -7.3933  -22.7371  -55.5775 H         1 UNK         0.3800 
    243 H243       -6.1704  -21.5343  -55.9354 H         1 UNK         0.3800 
    244 H244       -4.0599  -22.1963  -52.8315 H         1 UNK         0.0800 
    245 H245       -3.8513  -21.7037  -54.4830 H         1 UNK         0.0800 
    246 H246       -3.8309  -20.2308  -50.7985 H         1 UNK         0.0800 
    247 H247       -2.5596  -21.4188  -50.9921 H         1 UNK         0.0800 
@<TRIPOS>BOND
     1    1    2 1    
     2    1  127 1    
     3    1  128 1    
     4    1  129 1    
     5    2    3 2    
     6    2    4 am   BACKBONE|DICT|INTERRES
     7    4    5 1    
     8    4  130 1    
     9    5    6 1    
    10    5   65 1    
    11    5  131 1    
    12    6    7 1    
    13    6  132 1    
    14    6  133 1    
    15    7    8 1    
    16    8    9 1    
    17    8  134 1    
    18    8  135 1    
    19    9   10 ar   
    20    9   14 ar   
    21   10   11 ar   
    22   10  136 1    
    23   11   12 ar   
    24   11  126 1    
    25   12   13 ar   
    26   12  137 1    
    27   13   14 ar   
    28   13   15 1    
    29   14  138 1    
    30   15   16 1    
    31   15  139 1    
    32   15  140 1    
    33   16   17 1    
    34   17   18 1    
    35   17  141 1    
    36   17  142 1    
    37   18   19 1    
    38   18   67 1    
    39   18  143 1    
    40   19   20 am   BACKBONE|DICT|INTERRES
    41   19  144 1    
    42   20   21 2    
    43   20   22 1    
    44   22   23 1    
    45   22   24 1    
    46   22  145 1    
    47   23  146 1    
    48   23  147 1    
    49   23  148 1    
    50   24   25 am   BACKBONE|DICT|INTERRES
    51   24  149 1    
    52   25   26 2    
    53   25   27 1    
    54   27   28 1    
    55   27   29 1    
    56   27  150 1    
    57   28  151 1    
    58   28  152 1    
    59   28  153 1    
    60   29   30 am   BACKBONE|DICT|INTERRES
    61   29  154 1    
    62   30   31 2    
    63   30   32 1    
    64   32   33 1    
    65   32   34 1    
    66   32  155 1    
    67   33  156 1    
    68   33  157 1    
    69   33  158 1    
    70   34   35 am   BACKBONE|DICT|INTERRES
    71   34  159 1    
    72   35   36 2    
    73   35   37 1    
    74   37   38 1    
    75   37   39 1    
    76   37  160 1    
    77   38  161 1    
    78   38  162 1    
    79   38  163 1    
    80   39   40 am   BACKBONE|DICT|INTERRES
    81   39  164 1    
    82   40   41 2    
    83   40   42 1    
    84   42   43 1    
    85   42   44 1    
    86   42  165 1    
    87   43  166 1    
    88   43  167 1    
    89   43  168 1    
    90   44   45 am   BACKBONE|DICT|INTERRES
    91   44  169 1    
    92   45   46 2    
    93   45   47 1    
    94   47   48 1    
    95   47   49 1    
    96   47  170 1    
    97   48  171 1    
    98   48  172 1    
    99   48  173 1    
   100   49   50 am   BACKBONE|DICT|INTERRES
   101   49  174 1    
   102   50   51 2    
   103   50   52 1    
   104   52   53 1    
   105   52   54 1    
   106   52  175 1    
   107   53  176 1    
   108   53  177 1    
   109   53  178 1    
   110   54   55 am   BACKBONE|DICT|INTERRES
   111   54  179 1    
   112   55   56 2    
   113   55   57 1    
   114   57   58 1    
   115   57   59 1    
   116   57  180 1    
   117   58  181 1    
   118   58  182 1    
   119   58  183 1    
   120   59   60 am   BACKBONE|DICT|INTERRES
   121   59  184 1    
   122   60   61 2    
   123   60   62 1    
   124   62   63 1    
   125   62   64 1    
   126   62  185 1    
   127   63  186 1    
   128   63  187 1    
   129   63  188 1    
   130   64   65 am   BACKBONE|DICT|INTERRES
   131   64  189 1    
   132   65   66 2    
   133   67   68 2    
   134   67   69 am   BACKBONE|DICT|INTERRES
   135   69   70 1    
   136   69  190 1    
   137   70   71 1    
   138   70   72 1    
   139   70  191 1    
   140   71  192 1    
   141   71  193 1    
   142   71  194 1    
   143   72   73 2    
   144   72   74 am   BACKBONE|DICT|INTERRES
   145   74   75 1    
   146   74  195 1    
   147   75   76 1    
   148   75   77 1    
   149   75  196 1    
   150   76  197 1    
   151   76  198 1    
   152   76  199 1    
   153   77   78 2    
   154   77   79 am   BACKBONE|DICT|INTERRES
   155   79   80 1    
   156   79  200 1    
   157   80   81 1    
   158   80   82 1    
   159   80  201 1    
   160   81  202 1    
   161   81  203 1    
   162   81  204 1    
   163   82   83 2    
   164   82   84 am   BACKBONE|DICT|INTERRES
   165   84   85 1    
   166   84  205 1    
   167   85   86 1    
   168   85   87 1    
   169   85  206 1    
   170   86  207 1    
   171   86  208 1    
   172   86  209 1    
   173   87   88 2    
   174   87   89 am   BACKBONE|DICT|INTERRES
   175   89   90 1    
   176   89  210 1    
   177   90   91 1    
   178   90   92 1    
   179   90  211 1    
   180   91  212 1    
   181   91  213 1    
   182   91  214 1    
   183   92   93 2    
   184   92   94 am   BACKBONE|DICT|INTERRES
   185   94   95 1    
   186   94  215 1    
   187   95   96 1    
   188   95   97 1    
   189   95  216 1    
   190   96  217 1    
   191   96  218 1    
   192   96  219 1    
   193   97   98 2    
   194   97   99 am   BACKBONE|DICT|INTERRES
   195   99  100 1    
   196   99  220 1    
   197  100  101 1    
   198  100  102 1    
   199  100  221 1    
   200  101  222 1    
   201  101  223 1    
   202  101  224 1    
   203  102  103 2    
   204  102  104 am   BACKBONE|DICT|INTERRES
   205  104  105 1    
   206  104  225 1    
   207  105  106 1    
   208  105  107 1    
   209  105  226 1    
   210  106  227 1    
   211  106  228 1    
   212  106  229 1    
   213  107  108 2    
   214  107  109 am   BACKBONE|DICT|INTERRES
   215  109  110 1    
   216  109  230 1    
   217  110  111 1    
   218  110  112 1    
   219  110  231 1    
   220  111  232 1    
   221  111  233 1    
   222  111  234 1    
   223  112  113 2    
   224  112  114 am   BACKBONE|DICT|INTERRES
   225  114  115 1    
   226  114  235 1    
   227  115  116 1    
   228  115  117 1    
   229  115  236 1    
   230  116  237 1    
   231  116  238 1    
   232  116  239 1    
   233  117  118 2    
   234  117  119 am   BACKBONE|DICT|INTERRES
   235  119  120 1    
   236  119  240 1    
   237  120  121 1    
   238  120  124 1    
   239  120  241 1    
   240  121  122 am   BACKBONE|DICT|INTERRES
   241  121  123 2    
   242  122  242 1    
   243  122  243 1    
   244  124  125 1    
   245  124  244 1    
   246  124  245 1    
   247  125  126 1    
   248  126  246 1    
   249  126  247 1    
@<TRIPOS>SUBSTRUCTURE
     1 UNK         1 GROUP             0       ****    0 ROOT    
