@<TRIPOS>MOLECULE
3R540
247   249    1
SMALL
USER_CHARGES


@<TRIPOS>ATOM
      1 CA         -0.8126  -13.5045  -47.3679 C.3       0 UNK        -0.1800 
      2 C          -0.9537  -14.9232  -46.8384 C.2       0 UNK         0.5000 
      3 O          -1.3439  -15.1092  -45.6858 O.2       0 UNK        -0.5000 
      4 N          -0.6389  -15.9209  -47.6743 N.am      1 UNK        -0.5000 
      5 CA         -0.7135  -17.3633  -47.4073 C.3       1 UNK         0.1400 
      6 C6          0.1416  -18.1887  -48.4089 C.3       23 UNK        -0.0398 
      7 S7         -0.0117  -17.6629  -50.1569 S.3       23 UNK        -0.2404 
      8 C8          1.7262  -17.5703  -50.6901 C.3       23 UNK        -0.0205 
      9 C9          2.2763  -18.9488  -51.0205 C.ar      23 UNK        -0.0193 
     10 C10         2.1737  -19.4520  -52.3211 C.ar      23 UNK        -0.1150 
     11 C11         2.6489  -20.7309  -52.6310 C.ar      23 UNK        -0.0193 
     12 C12         3.2394  -21.5014  -51.6250 C.ar      23 UNK        -0.1150 
     13 C13         3.3544  -21.0062  -50.3234 C.ar      23 UNK        -0.0193 
     14 C14         2.8794  -19.7257  -50.0283 C.ar      23 UNK        -0.1150 
     15 C15         3.9703  -21.8661  -49.2307 C.3       23 UNK        -0.0205 
     16 S16         2.8310  -23.1788  -48.6904 S.3       23 UNK        -0.2404 
     17 C17         1.4265  -22.1880  -48.0796 C.3       23 UNK        -0.0398 
     18 CA          0.3707  -23.0435  -47.3451 C.3       11 UNK         0.1400 
     19 N           0.9502  -23.7835  -46.2226 N.am      11 UNK        -0.5000 
     20 C           0.3187  -24.6971  -45.4742 C.2       10 UNK         0.5000 
     21 O          -0.8310  -25.0762  -45.6938 O.2       10 UNK        -0.5000 
     22 CA          1.0712  -25.2011  -44.2225 C.3       10 UNK         0.1400 
     23 CB          1.8026  -26.5154  -44.5298 C.3       10 UNK        -0.1800 
     24 N           2.0318  -24.2239  -43.6877 N.am      10 UNK        -0.5000 
     25 C           1.7146  -22.9806  -43.2984 C.2       9 UNK         0.5000 
     26 O           0.5503  -22.5667  -43.2675 O.2       9 UNK        -0.5000 
     27 CA          2.8729  -22.0123  -42.9904 C.3       9 UNK         0.1400 
     28 CB          3.9792  -22.0971  -44.0691 C.3       9 UNK        -0.1800 
     29 N           2.2876  -20.6752  -42.9520 N.am      9 UNK        -0.5000 
     30 C           2.8854  -19.5063  -42.7124 C.2       8 UNK         0.5000 
     31 O           4.0672  -19.3794  -42.3847 O.2       8 UNK        -0.5000 
     32 CA          1.9867  -18.2641  -42.8567 C.3       8 UNK         0.1400 
     33 CB          1.5404  -17.7510  -41.4809 C.3       8 UNK        -0.1800 
     34 N           2.6408  -17.1939  -43.6119 N.am      8 UNK        -0.5000 
     35 C           2.9759  -17.2845  -44.9099 C.2       7 UNK         0.5000 
     36 O           2.6904  -18.2589  -45.6088 O.2       7 UNK        -0.5000 
     37 CA          3.7243  -16.1005  -45.5633 C.3       7 UNK         0.1400 
     38 CB          2.9882  -15.6131  -46.8228 C.3       7 UNK        -0.1800 
     39 N           3.9042  -14.9567  -44.6706 N.am      7 UNK        -0.5000 
     40 C           4.9034  -14.7895  -43.7937 C.2       6 UNK         0.5000 
     41 O           5.8460  -15.5717  -43.6725 O.2       6 UNK        -0.5000 
     42 CA          4.8172  -13.5450  -42.8800 C.3       6 UNK         0.1400 
     43 CB          5.7239  -12.4242  -43.4110 C.3       6 UNK        -0.1800 
     44 N           3.4518  -13.0230  -42.7268 N.am      6 UNK        -0.5000 
     45 C           2.4429  -13.7034  -42.1658 C.2       5 UNK         0.5000 
     46 O           2.5934  -14.8132  -41.6526 O.2       5 UNK        -0.5000 
     47 CA          1.0413  -13.0704  -42.2663 C.3       5 UNK         0.1400 
     48 CB          0.6502  -12.8317  -43.7364 C.3       5 UNK        -0.1800 
     49 N           0.0259  -13.9377  -41.6751 N.am      5 UNK        -0.5000 
     50 C          -0.3007  -14.0035  -40.3803 C.2       4 UNK         0.5000 
     51 O           0.1910  -13.2716  -39.5187 O.2       4 UNK        -0.5000 
     52 CA         -1.3853  -15.0418  -40.0034 C.3       4 UNK         0.1400 
     53 CB         -1.8698  -14.8945  -38.5496 C.3       4 UNK        -0.1800 
     54 N          -2.5475  -14.9707  -40.8965 N.am      4 UNK        -0.5000 
     55 C          -2.6138  -15.4975  -42.1254 C.2       3 UNK         0.5000 
     56 O          -1.7079  -16.1760  -42.6172 O.2       3 UNK        -0.5000 
     57 CA         -3.8641  -15.1442  -42.9520 C.3       3 UNK         0.1400 
     58 CB         -3.8827  -13.6412  -43.2816 C.3       3 UNK        -0.1800 
     59 N          -3.8605  -15.8780  -44.2134 N.am      3 UNK        -0.5000 
     60 C          -4.4805  -17.0451  -44.4362 C.2       2 UNK         0.5000 
     61 O          -5.2287  -17.5887  -43.6238 O.2       2 UNK        -0.5000 
     62 CA         -4.1979  -17.7321  -45.7835 C.3       2 UNK         0.1400 
     63 CB         -5.2495  -17.3182  -46.8316 C.3       2 UNK        -0.1800 
     64 N          -2.8389  -17.4103  -46.2182 N.am      2 UNK        -0.5000 
     65 C          -2.1738  -17.8611  -47.2828 C.2       1 UNK         0.5000 
     66 O          -2.6586  -18.6249  -48.1166 O.2       1 UNK        -0.5000 
     67 C          -0.8198  -22.1535  -46.9270 C.2       11 UNK         0.5000 
     68 O          -1.7123  -21.9384  -47.7437 O.2       11 UNK        -0.5000 
     69 N          -0.8354  -21.6653  -45.6768 N.am      12 UNK        -0.5000 
     70 CA         -1.9417  -20.8826  -45.1233 C.3       12 UNK         0.1400 
     71 CB         -1.4191  -19.8783  -44.0881 C.3       12 UNK        -0.1800 
     72 C          -3.0517  -21.7669  -44.5362 C.2       12 UNK         0.5000 
     73 O          -4.2063  -21.3437  -44.5347 O.2       12 UNK        -0.5000 
     74 N          -2.7102  -22.9914  -44.1086 N.am      13 UNK        -0.5000 
     75 CA         -3.6826  -24.0253  -43.7416 C.3       13 UNK         0.1400 
     76 CB         -2.9817  -25.1596  -42.9782 C.3       13 UNK        -0.1800 
     77 C          -4.4287  -24.5574  -44.9815 C.2       13 UNK         0.5000 
     78 O          -5.6417  -24.7597  -44.9249 O.2       13 UNK        -0.5000 
     79 N          -3.6962  -24.7144  -46.0943 N.am      14 UNK        -0.5000 
     80 CA         -4.2390  -24.9890  -47.4280 C.3       14 UNK         0.1400 
     81 CB         -3.0918  -25.4484  -48.3411 C.3       14 UNK        -0.1800 
     82 C          -4.9605  -23.7731  -48.0499 C.2       14 UNK         0.5000 
     83 O          -5.7963  -23.9553  -48.9350 O.2       14 UNK        -0.5000 
     84 N          -4.6162  -22.5694  -47.5701 N.am      15 UNK        -0.5000 
     85 CA         -5.0893  -21.2481  -47.9846 C.3       15 UNK         0.1400 
     86 CB         -6.5830  -21.0651  -47.6497 C.3       15 UNK        -0.1800 
     87 C          -4.7498  -20.9443  -49.4548 C.2       15 UNK         0.5000 
     88 O          -5.6342  -20.5924  -50.2348 O.2       15 UNK        -0.5000 
     89 N          -3.4638  -21.0789  -49.8016 N.am      16 UNK        -0.5000 
     90 CA         -2.8915  -20.8639  -51.1341 C.3       16 UNK         0.1400 
     91 CB         -1.3879  -21.1778  -51.0794 C.3       16 UNK        -0.1800 
     92 C          -3.1339  -19.4649  -51.7423 C.2       16 UNK         0.5000 
     93 O          -3.1035  -19.3330  -52.9654 O.2       16 UNK        -0.5000 
     94 N          -3.3860  -18.4490  -50.9051 N.am      17 UNK        -0.5000 
     95 CA         -3.7835  -17.1102  -51.3460 C.3       17 UNK         0.1400 
     96 CB         -3.5549  -16.1009  -50.2108 C.3       17 UNK        -0.1800 
     97 C          -5.2473  -17.0481  -51.8266 C.2       17 UNK         0.5000 
     98 O          -5.5618  -16.2238  -52.6857 O.2       17 UNK        -0.5000 
     99 N          -6.1141  -17.9026  -51.2652 N.am      18 UNK        -0.5000 
    100 CA        -7.5279  -18.0113  -51.6259 C.3       18 UNK         0.1400 
    101 CB        -8.3492  -18.3856  -50.3814 C.3       18 UNK        -0.1800 
    102 C         -7.7139  -19.0462  -52.7457 C.2       18 UNK         0.5000 
    103 O         -8.3369  -18.7467  -53.7653 O.2       18 UNK        -0.5000 
    104 N         -7.1181  -20.2311  -52.5619 N.am      19 UNK        -0.5000 
    105 CA        -6.9906  -21.2904  -53.5589 C.3       19 UNK         0.1400 
    106 CB        -6.8329  -22.6371  -52.8303 C.3       19 UNK        -0.1800 
    107 C         -5.7980  -20.9674  -54.4768 C.2       19 UNK         0.5000 
    108 O         -4.7628  -21.6321  -54.4096 O.2       19 UNK        -0.5000 
    109 N         -5.9600  -19.9028  -55.2734 N.am      20 UNK        -0.5000 
    110 CA        -4.9368  -19.1724  -56.0271 C.3       20 UNK         0.1400 
    111 CB        -5.5329  -17.8201  -56.4580 C.3       20 UNK        -0.1800 
    112 C         -4.2748  -19.9283  -57.2024 C.2       20 UNK         0.5000 
    113 O         -3.9609  -19.3176  -58.2261 O.2       20 UNK        -0.5000 
    114 N         -4.0008  -21.2263  -57.0264 N.am      21 UNK        -0.5000 
    115 CA        -3.1953  -22.0571  -57.9277 C.3       21 UNK         0.1400 
    116 CB        -3.2661  -23.5174  -57.4570 C.3       21 UNK        -0.1800 
    117 C         -1.7289  -21.5834  -58.0178 C.2       21 UNK         0.5000 
    118 O         -1.0781  -21.7949  -59.0415 O.2       21 UNK        -0.5000 
    119 N         -1.2601  -20.9155  -56.9565 N.am      22 UNK        -0.5000 
    120 CA         0.0127  -20.1846  -56.8881 C.3       22 UNK         0.1400 
    121 C          0.0287  -18.8436  -57.6854 C.2       22 UNK         0.5000 
    122 N         -1.0772  -18.3705  -58.2505 N.am      22 UNK        -0.7600 
    123 O          1.0786  -18.2180  -57.8037 O.2       22 UNK        -0.5000 
    124 C124        0.4396  -19.9587  -55.4143 C.3       23 UNK        -0.0398 
    125 S125        0.8055  -21.5317  -54.5587 S.3       23 UNK        -0.2404 
    126 C126        2.5378  -21.2861  -54.0460 C.3       23 UNK        -0.0205 
    127 H127       -1.7655  -12.9808  -47.2923 H         1 UNK         0.0600 
    128 H128       -0.0743  -12.9580  -46.7815 H         1 UNK         0.0600 
    129 H129       -0.4977  -13.4907  -48.4116 H         1 UNK         0.0600 
    130 H130       -0.3527  -15.6952  -48.6168 H         1 UNK         0.3000 
    131 H131       -0.2654  -17.5254  -46.4241 H         1 UNK         0.0600 
    132 H132        1.1857  -18.1003  -48.1107 H         1 UNK         0.0800 
    133 H133       -0.0828  -19.2544  -48.3392 H         1 UNK         0.0800 
    134 H134        2.3336  -17.0839  -49.9259 H         1 UNK         0.0800 
    135 H135        1.7851  -16.9311  -51.5723 H         1 UNK         0.0800 
    136 H136        1.7090  -18.8498  -53.0875 H         1 UNK         0.1150 
    137 H137        3.6030  -22.4947  -51.8483 H         1 UNK         0.1150 
    138 H138        2.9645  -19.3418  -49.0217 H         1 UNK         0.1150 
    139 H139        4.2558  -21.2574  -48.3712 H         1 UNK         0.0800 
    140 H140        4.8890  -22.3225  -49.6017 H         1 UNK         0.0800 
    141 H141        0.9717  -21.6876  -48.9369 H         1 UNK         0.0800 
    142 H142        1.8101  -21.4014  -47.4263 H         1 UNK         0.0800 
    143 H143       -0.0169  -23.7806  -48.0514 H         1 UNK         0.0600 
    144 H144        1.9060  -23.5582  -45.9917 H         1 UNK         0.3000 
    145 H145        0.3260  -25.3938  -43.4481 H         1 UNK         0.0600 
    146 H146        1.1094  -27.2687  -44.9070 H         1 UNK         0.0600 
    147 H147        2.2700  -26.9258  -43.6345 H         1 UNK         0.0600 
    148 H148        2.5796  -26.3776  -45.2828 H         1 UNK         0.0600 
    149 H149        3.0025  -24.5026  -43.6900 H         1 UNK         0.3000 
    150 H150        3.2811  -22.2550  -42.0081 H         1 UNK         0.0600 
    151 H151        3.5896  -21.8693  -45.0624 H         1 UNK         0.0600 
    152 H152        4.4298  -23.0890  -44.1082 H         1 UNK         0.0600 
    153 H153        4.7938  -21.4020  -43.8690 H         1 UNK         0.0600 
    154 H154        1.2931  -20.6958  -43.1417 H         1 UNK         0.3000 
    155 H155        1.0905  -18.5421  -43.4095 H         1 UNK         0.0600 
    156 H156        2.3886  -17.4236  -40.8786 H         1 UNK         0.0600 
    157 H157        1.0202  -18.5299  -40.9222 H         1 UNK         0.0600 
    158 H158        0.8525  -16.9122  -41.5821 H         1 UNK         0.0600 
    159 H159        2.9003  -16.3693  -43.0846 H         1 UNK         0.3000 
    160 H160        4.7045  -16.4724  -45.8684 H         1 UNK         0.0600 
    161 H161        1.9920  -15.2425  -46.5836 H         1 UNK         0.0600 
    162 H162        2.8769  -16.4160  -47.5517 H         1 UNK         0.0600 
    163 H163        3.5362  -14.8088  -47.3139 H         1 UNK         0.0600 
    164 H164        3.1793  -14.2558  -44.6939 H         1 UNK         0.3000 
    165 H165        5.1782  -13.8396  -41.8923 H         1 UNK         0.0600 
    166 H166        6.7541  -12.7689  -43.5103 H         1 UNK         0.0600 
    167 H167        5.3990  -12.0742  -44.3916 H         1 UNK         0.0600 
    168 H168        5.7332  -11.5696  -42.7342 H         1 UNK         0.0600 
    169 H169        3.2717  -12.1126  -43.1253 H         1 UNK         0.3000 
    170 H170        1.0555  -12.1137  -41.7405 H         1 UNK         0.0600 
    171 H171       -0.3657  -12.4437  -43.8159 H         1 UNK         0.0600 
    172 H172        0.6968  -13.7540  -44.3170 H         1 UNK         0.0600 
    173 H173        1.3063  -12.1048  -44.2157 H         1 UNK         0.0600 
    174 H174       -0.3968  -14.6215  -42.2931 H         1 UNK         0.3000 
    175 H175       -0.9278  -16.0287  -40.0972 H         1 UNK         0.0600 
    176 H176       -1.0421  -15.0024  -37.8474 H         1 UNK         0.0600 
    177 H177       -2.3265  -13.9197  -38.3741 H         1 UNK         0.0600 
    178 H178       -2.6050  -15.6597  -38.2999 H         1 UNK         0.0600 
    179 H179       -3.3128  -14.3954  -40.5753 H         1 UNK         0.3000 
    180 H180       -4.7523  -15.3931  -42.3676 H         1 UNK         0.0600 
    181 H181       -2.9854  -13.3380  -43.8237 H         1 UNK         0.0600 
    182 H182       -3.9412  -13.0342  -42.3776 H         1 UNK         0.0600 
    183 H183       -4.7457  -13.3846  -43.8963 H         1 UNK         0.0600 
    184 H184       -3.2210  -15.5124  -44.9085 H         1 UNK         0.3000 
    185 H185       -4.2639  -18.8087  -45.6246 H         1 UNK         0.0600 
    186 H186       -5.1566  -17.8982  -47.7492 H         1 UNK         0.0600 
    187 H187       -6.2598  -17.4848  -46.4558 H         1 UNK         0.0600 
    188 H188       -5.1647  -16.2616  -47.0871 H         1 UNK         0.0600 
    189 H189       -2.3311  -16.7681  -45.6162 H         1 UNK         0.3000 
    190 H190       -0.1061  -21.9342  -45.0262 H         1 UNK         0.3000 
    191 H191       -2.4007  -20.3118  -45.9292 H         1 UNK         0.0600 
    192 H192       -0.7208  -19.1834  -44.5510 H         1 UNK         0.0600 
    193 H193       -2.2341  -19.2830  -43.6739 H         1 UNK         0.0600 
    194 H194       -0.9201  -20.3698  -43.2536 H         1 UNK         0.0600 
    195 H195       -1.7374  -23.2623  -44.1273 H         1 UNK         0.3000 
    196 H196       -4.4207  -23.5775  -43.0725 H         1 UNK         0.0600 
    197 H197       -3.7084  -25.8906  -42.6220 H         1 UNK         0.0600 
    198 H198       -2.4494  -24.7790  -42.1063 H         1 UNK         0.0600 
    199 H199       -2.2658  -25.6933  -43.6021 H         1 UNK         0.0600 
    200 H200       -2.6863  -24.6277  -46.0236 H         1 UNK         0.3000 
    201 H201       -4.9631  -25.8021  -47.3463 H         1 UNK         0.0600 
    202 H202       -3.4630  -25.7134  -49.3318 H         1 UNK         0.0600 
    203 H203       -2.5903  -26.3270  -47.9347 H         1 UNK         0.0600 
    204 H204       -2.3439  -24.6654  -48.4700 H         1 UNK         0.0600 
    205 H205       -3.8767  -22.5579  -46.8841 H         1 UNK         0.3000 
    206 H206       -4.5315  -20.5258  -47.3885 H         1 UNK         0.0600 
    207 H207       -6.7759  -21.2697  -46.5965 H         1 UNK         0.0600 
    208 H208       -6.9013  -20.0405  -47.8441 H         1 UNK         0.0600 
    209 H209       -7.2174  -21.7242  -48.2430 H         1 UNK         0.0600 
    210 H210       -2.8050  -21.3472  -49.0728 H         1 UNK         0.3000 
    211 H211       -3.3647  -21.5832  -51.8053 H         1 UNK         0.0600 
    212 H212       -0.9153  -21.0195  -52.0493 H         1 UNK         0.0600 
    213 H213       -1.2101  -22.2151  -50.7954 H         1 UNK         0.0600 
    214 H214       -0.8743  -20.5424  -50.3584 H         1 UNK         0.0600 
    215 H215       -3.2964  -18.6069  -49.9041 H         1 UNK         0.3000 
    216 H216       -3.1468  -16.8191  -52.1841 H         1 UNK         0.0600 
    217 H217       -2.5076  -16.0672  -49.9162 H         1 UNK         0.0600 
    218 H218       -4.1443  -16.3474  -49.3292 H         1 UNK         0.0600 
    219 H219       -3.8346  -15.0933  -50.5208 H         1 UNK         0.0600 
    220 H220       -5.7567  -18.6132  -50.6371 H         1 UNK         0.3000 
    221 H221       -7.8918  -17.0477  -51.9888 H         1 UNK         0.0600 
    222 H222       -8.0580  -19.3544  -49.9751 H         1 UNK         0.0600 
    223 H223       -8.2277  -17.6431  -49.5925 H         1 UNK         0.0600 
    224 H224       -9.4122  -18.4374  -50.6194 H         1 UNK         0.0600 
    225 H225       -6.5957  -20.3769  -51.6986 H         1 UNK         0.3000 
    226 H226       -7.8942  -21.3360  -54.1702 H         1 UNK         0.0600 
    227 H227       -7.7004  -22.8497  -52.2055 H         1 UNK         0.0600 
    228 H228       -6.7341  -23.4574  -53.5421 H         1 UNK         0.0600 
    229 H229       -5.9513  -22.6495  -52.1876 H         1 UNK         0.0600 
    230 H230       -6.8600  -19.4413  -55.2203 H         1 UNK         0.3000 
    231 H231       -4.1266  -18.9530  -55.3310 H         1 UNK         0.0600 
    232 H232       -6.3501  -17.9515  -57.1682 H         1 UNK         0.0600 
    233 H233       -4.7813  -17.1867  -56.9312 H         1 UNK         0.0600 
    234 H234       -5.9180  -17.2683  -55.5998 H         1 UNK         0.0600 
    235 H235       -4.2525  -21.6304  -56.1260 H         1 UNK         0.3000 
    236 H236       -3.6285  -21.9926  -58.9278 H         1 UNK         0.0600 
    237 H237       -2.6929  -24.1694  -58.1174 H         1 UNK         0.0600 
    238 H238       -2.8652  -23.6340  -56.4492 H         1 UNK         0.0600 
    239 H239       -4.2939  -23.8808  -57.4530 H         1 UNK         0.0600 
    240 H240       -1.8659  -20.8189  -56.1552 H         1 UNK         0.3000 
    241 H241        0.7737  -20.8084  -57.3609 H         1 UNK         0.0600 
    242 H242       -1.9605  -18.8630  -58.1963 H         1 UNK         0.3800 
    243 H243       -1.0290  -17.5045  -58.7637 H         1 UNK         0.3800 
    244 H244        1.3169  -19.3125  -55.3663 H         1 UNK         0.0800 
    245 H245       -0.3452  -19.4378  -54.8627 H         1 UNK         0.0800 
    246 H246        3.0435  -22.2506  -54.1107 H         1 UNK         0.0800 
    247 H247        3.0623  -20.6316  -54.7430 H         1 UNK         0.0800 
@<TRIPOS>BOND
     1    1    2 1    
     2    1  127 1    
     3    1  128 1    
     4    1  129 1    
     5    2    3 2    
     6    2    4 am   BACKBONE|DICT|INTERRES
     7    4    5 1    
     8    4  130 1    
     9    5    6 1    
    10    5   65 1    
    11    5  131 1    
    12    6    7 1    
    13    6  132 1    
    14    6  133 1    
    15    7    8 1    
    16    8    9 1    
    17    8  134 1    
    18    8  135 1    
    19    9   10 ar   
    20    9   14 ar   
    21   10   11 ar   
    22   10  136 1    
    23   11   12 ar   
    24   11  126 1    
    25   12   13 ar   
    26   12  137 1    
    27   13   14 ar   
    28   13   15 1    
    29   14  138 1    
    30   15   16 1    
    31   15  139 1    
    32   15  140 1    
    33   16   17 1    
    34   17   18 1    
    35   17  141 1    
    36   17  142 1    
    37   18   19 1    
    38   18   67 1    
    39   18  143 1    
    40   19   20 am   BACKBONE|DICT|INTERRES
    41   19  144 1    
    42   20   21 2    
    43   20   22 1    
    44   22   23 1    
    45   22   24 1    
    46   22  145 1    
    47   23  146 1    
    48   23  147 1    
    49   23  148 1    
    50   24   25 am   BACKBONE|DICT|INTERRES
    51   24  149 1    
    52   25   26 2    
    53   25   27 1    
    54   27   28 1    
    55   27   29 1    
    56   27  150 1    
    57   28  151 1    
    58   28  152 1    
    59   28  153 1    
    60   29   30 am   BACKBONE|DICT|INTERRES
    61   29  154 1    
    62   30   31 2    
    63   30   32 1    
    64   32   33 1    
    65   32   34 1    
    66   32  155 1    
    67   33  156 1    
    68   33  157 1    
    69   33  158 1    
    70   34   35 am   BACKBONE|DICT|INTERRES
    71   34  159 1    
    72   35   36 2    
    73   35   37 1    
    74   37   38 1    
    75   37   39 1    
    76   37  160 1    
    77   38  161 1    
    78   38  162 1    
    79   38  163 1    
    80   39   40 am   BACKBONE|DICT|INTERRES
    81   39  164 1    
    82   40   41 2    
    83   40   42 1    
    84   42   43 1    
    85   42   44 1    
    86   42  165 1    
    87   43  166 1    
    88   43  167 1    
    89   43  168 1    
    90   44   45 am   BACKBONE|DICT|INTERRES
    91   44  169 1    
    92   45   46 2    
    93   45   47 1    
    94   47   48 1    
    95   47   49 1    
    96   47  170 1    
    97   48  171 1    
    98   48  172 1    
    99   48  173 1    
   100   49   50 am   BACKBONE|DICT|INTERRES
   101   49  174 1    
   102   50   51 2    
   103   50   52 1    
   104   52   53 1    
   105   52   54 1    
   106   52  175 1    
   107   53  176 1    
   108   53  177 1    
   109   53  178 1    
   110   54   55 am   BACKBONE|DICT|INTERRES
   111   54  179 1    
   112   55   56 2    
   113   55   57 1    
   114   57   58 1    
   115   57   59 1    
   116   57  180 1    
   117   58  181 1    
   118   58  182 1    
   119   58  183 1    
   120   59   60 am   BACKBONE|DICT|INTERRES
   121   59  184 1    
   122   60   61 2    
   123   60   62 1    
   124   62   63 1    
   125   62   64 1    
   126   62  185 1    
   127   63  186 1    
   128   63  187 1    
   129   63  188 1    
   130   64   65 am   BACKBONE|DICT|INTERRES
   131   64  189 1    
   132   65   66 2    
   133   67   68 2    
   134   67   69 am   BACKBONE|DICT|INTERRES
   135   69   70 1    
   136   69  190 1    
   137   70   71 1    
   138   70   72 1    
   139   70  191 1    
   140   71  192 1    
   141   71  193 1    
   142   71  194 1    
   143   72   73 2    
   144   72   74 am   BACKBONE|DICT|INTERRES
   145   74   75 1    
   146   74  195 1    
   147   75   76 1    
   148   75   77 1    
   149   75  196 1    
   150   76  197 1    
   151   76  198 1    
   152   76  199 1    
   153   77   78 2    
   154   77   79 am   BACKBONE|DICT|INTERRES
   155   79   80 1    
   156   79  200 1    
   157   80   81 1    
   158   80   82 1    
   159   80  201 1    
   160   81  202 1    
   161   81  203 1    
   162   81  204 1    
   163   82   83 2    
   164   82   84 am   BACKBONE|DICT|INTERRES
   165   84   85 1    
   166   84  205 1    
   167   85   86 1    
   168   85   87 1    
   169   85  206 1    
   170   86  207 1    
   171   86  208 1    
   172   86  209 1    
   173   87   88 2    
   174   87   89 am   BACKBONE|DICT|INTERRES
   175   89   90 1    
   176   89  210 1    
   177   90   91 1    
   178   90   92 1    
   179   90  211 1    
   180   91  212 1    
   181   91  213 1    
   182   91  214 1    
   183   92   93 2    
   184   92   94 am   BACKBONE|DICT|INTERRES
   185   94   95 1    
   186   94  215 1    
   187   95   96 1    
   188   95   97 1    
   189   95  216 1    
   190   96  217 1    
   191   96  218 1    
   192   96  219 1    
   193   97   98 2    
   194   97   99 am   BACKBONE|DICT|INTERRES
   195   99  100 1    
   196   99  220 1    
   197  100  101 1    
   198  100  102 1    
   199  100  221 1    
   200  101  222 1    
   201  101  223 1    
   202  101  224 1    
   203  102  103 2    
   204  102  104 am   BACKBONE|DICT|INTERRES
   205  104  105 1    
   206  104  225 1    
   207  105  106 1    
   208  105  107 1    
   209  105  226 1    
   210  106  227 1    
   211  106  228 1    
   212  106  229 1    
   213  107  108 2    
   214  107  109 am   BACKBONE|DICT|INTERRES
   215  109  110 1    
   216  109  230 1    
   217  110  111 1    
   218  110  112 1    
   219  110  231 1    
   220  111  232 1    
   221  111  233 1    
   222  111  234 1    
   223  112  113 2    
   224  112  114 am   BACKBONE|DICT|INTERRES
   225  114  115 1    
   226  114  235 1    
   227  115  116 1    
   228  115  117 1    
   229  115  236 1    
   230  116  237 1    
   231  116  238 1    
   232  116  239 1    
   233  117  118 2    
   234  117  119 am   BACKBONE|DICT|INTERRES
   235  119  120 1    
   236  119  240 1    
   237  120  121 1    
   238  120  124 1    
   239  120  241 1    
   240  121  122 am   BACKBONE|DICT|INTERRES
   241  121  123 2    
   242  122  242 1    
   243  122  243 1    
   244  124  125 1    
   245  124  244 1    
   246  124  245 1    
   247  125  126 1    
   248  126  246 1    
   249  126  247 1    
@<TRIPOS>SUBSTRUCTURE
     1 UNK         1 GROUP             0       ****    0 ROOT    
