@<TRIPOS>MOLECULE
3R540
247   249    1
SMALL
USER_CHARGES


@<TRIPOS>ATOM
      1 CA         -3.2384  -12.9048  -43.2197 C.3       0 UNK        -0.1800 
      2 C          -3.0349  -13.0651  -44.7192 C.2       0 UNK         0.5000 
      3 O          -2.0360  -13.6492  -45.1316 O.2       0 UNK        -0.5000 
      4 N          -3.9580  -12.5109  -45.5203 N.am      1 UNK        -0.5000 
      5 CA         -4.1008  -12.5992  -46.9878 C.3       1 UNK         0.1400 
      6 C6         -4.6971  -13.9605  -47.4606 C.3       23 UNK        -0.0398 
      7 S7         -3.5151  -15.3506  -47.6157 S.3       23 UNK        -0.2404 
      8 C8         -3.5561  -15.6966  -49.4047 C.3       23 UNK        -0.0205 
      9 C9         -2.2118  -16.2096  -49.8996 C.ar      23 UNK        -0.0193 
     10 C10        -1.3828  -15.3835  -50.6649 C.ar      23 UNK        -0.1150 
     11 C11        -0.1255  -15.8279  -51.0860 C.ar      23 UNK        -0.0193 
     12 C12         0.3017  -17.1105  -50.7308 C.ar      23 UNK        -0.1150 
     13 C13        -0.5129  -17.9443  -49.9577 C.ar      23 UNK        -0.0193 
     14 C14        -1.7787  -17.4961  -49.5658 C.ar      23 UNK        -0.1150 
     15 C15        -0.0072  -19.3117  -49.5192 C.3       23 UNK        -0.0205 
     16 S16         0.1404  -19.4223  -47.7067 S.3       23 UNK        -0.2404 
     17 C17        -1.3079  -20.4511  -47.2603 C.3       23 UNK        -0.0398 
     18 CA         -0.8678  -21.8285  -46.7082 C.3       11 UNK         0.1400 
     19 N          -0.0132  -21.6963  -45.5268 N.am      11 UNK        -0.5000 
     20 C           0.7522  -22.6672  -45.0151 C.2       10 UNK         0.5000 
     21 O           0.8370  -23.7963  -45.4948 O.2       10 UNK        -0.5000 
     22 CA          1.5208  -22.3178  -43.7283 C.3       10 UNK         0.1400 
     23 CB          2.8404  -21.6110  -44.0687 C.3       10 UNK        -0.1800 
     24 N           0.7337  -21.4665  -42.8344 N.am      10 UNK        -0.5000 
     25 C          -0.3646  -21.8700  -42.1789 C.2       9 UNK         0.5000 
     26 O          -0.7968  -23.0215  -42.2168 O.2       9 UNK        -0.5000 
     27 CA         -1.1449  -20.7895  -41.4063 C.3       9 UNK         0.1400 
     28 CB         -0.5989  -20.6411  -39.9800 C.3       9 UNK        -0.1800 
     29 N          -1.1364  -19.4927  -42.0947 N.am      9 UNK        -0.5000 
     30 C          -1.7428  -19.2891  -43.2751 C.2       8 UNK         0.5000 
     31 O          -2.3718  -20.1714  -43.8579 O.2       8 UNK        -0.5000 
     32 CA         -1.5862  -17.9312  -43.9780 C.3       8 UNK         0.1400 
     33 CB         -2.9478  -17.3455  -44.4080 C.3       8 UNK        -0.1800 
     34 N          -0.7554  -16.9659  -43.2546 N.am      8 UNK        -0.5000 
     35 C          -1.0992  -16.1677  -42.2345 C.2       7 UNK         0.5000 
     36 O          -2.2145  -16.1462  -41.7123 O.2       7 UNK        -0.5000 
     37 CA          0.0343  -15.2649  -41.6957 C.3       7 UNK         0.1400 
     38 CB         -0.3099  -14.6138  -40.3403 C.3       7 UNK        -0.1800 
     39 N           1.3319  -15.9540  -41.6176 N.am      7 UNK        -0.5000 
     40 C           1.5814  -17.1095  -40.9823 C.2       6 UNK         0.5000 
     41 O           0.7220  -17.7448  -40.3712 O.2       6 UNK        -0.5000 
     42 CA          3.0212  -17.6588  -41.0617 C.3       6 UNK         0.1400 
     43 CB          3.0902  -19.1718  -40.7715 C.3       6 UNK        -0.1800 
     44 N           3.7381  -17.3696  -42.3099 N.am      6 UNK        -0.5000 
     45 C           3.3629  -17.6467  -43.5671 C.2       5 UNK         0.5000 
     46 O           2.2341  -18.0215  -43.9015 O.2       5 UNK        -0.5000 
     47 CA          4.4799  -17.5196  -44.6126 C.3       5 UNK         0.1400 
     48 CB          5.3731  -18.7766  -44.6000 C.3       5 UNK        -0.1800 
     49 N           3.9203  -17.3115  -45.9434 N.am      5 UNK        -0.5000 
     50 C           4.6116  -16.8536  -46.9966 C.2       4 UNK         0.5000 
     51 O           5.8101  -16.5711  -46.9567 O.2       4 UNK        -0.5000 
     52 CA          3.8443  -16.6625  -48.3192 C.3       4 UNK         0.1400 
     53 CB          3.8879  -17.9508  -49.1556 C.3       4 UNK        -0.1800 
     54 N           2.4508  -16.2621  -48.1342 N.am      4 UNK        -0.5000 
     55 C           2.0450  -15.1119  -47.5809 C.2       3 UNK         0.5000 
     56 O           2.8056  -14.2358  -47.1613 O.2       3 UNK        -0.5000 
     57 CA          0.5231  -14.9826  -47.4109 C.3       3 UNK         0.1400 
     58 CB          0.0864  -15.8112  -46.1982 C.3       3 UNK        -0.1800 
     59 N           0.0172  -13.6199  -47.2474 N.am      3 UNK        -0.5000 
     60 C           0.2066  -12.5817  -48.0763 C.2       2 UNK         0.5000 
     61 O           0.8915  -12.6283  -49.0989 O.2       2 UNK        -0.5000 
     62 CA         -0.5245  -11.2738  -47.6930 C.3       2 UNK         0.1400 
     63 CB         -0.5430  -10.2231  -48.8238 C.3       2 UNK        -0.1800 
     64 N          -1.8743  -11.5342  -47.1789 N.am      2 UNK        -0.5000 
     65 C          -2.8871  -12.1262  -47.8308 C.2       1 UNK         0.5000 
     66 O          -2.8988  -12.3036  -49.0498 O.2       1 UNK        -0.5000 
     67 C          -2.0706  -22.7517  -46.4204 C.2       11 UNK         0.5000 
     68 O          -2.4093  -23.5869  -47.2592 O.2       11 UNK        -0.5000 
     69 N          -2.6554  -22.6322  -45.2199 N.am      12 UNK        -0.5000 
     70 CA         -3.7021  -23.5150  -44.7050 C.3       12 UNK         0.1400 
     71 CB         -4.2820  -22.9280  -43.4100 C.3       12 UNK        -0.1800 
     72 C          -3.2022  -24.9538  -44.4800 C.2       12 UNK         0.5000 
     73 O          -3.9078  -25.8977  -44.8350 O.2       12 UNK        -0.5000 
     74 N          -1.9781  -25.1044  -43.9506 N.am      13 UNK        -0.5000 
     75 CA         -1.2937  -26.3933  -43.7923 C.3       13 UNK         0.1400 
     76 CB         -0.0155  -26.2038  -42.9624 C.3       13 UNK        -0.1800 
     77 C          -0.9785  -27.0785  -45.1381 C.2       13 UNK         0.5000 
     78 O          -1.0053  -28.3066  -45.2166 O.2       13 UNK        -0.5000 
     79 N          -0.7487  -26.2721  -46.1831 N.am      14 UNK        -0.5000 
     80 CA         -0.6152  -26.6922  -47.5799 C.3       14 UNK         0.1400 
     81 CB          0.2420  -25.6572  -48.3293 C.3       14 UNK        -0.1800 
     82 C          -1.9739  -26.9156  -48.2849 C.2       14 UNK         0.5000 
     83 O          -1.9979  -27.0637  -49.5071 O.2       14 UNK        -0.5000 
     84 N          -3.0790  -26.9229  -47.5227 N.am      15 UNK        -0.5000 
     85 CA         -4.4630  -27.1672  -47.9438 C.3       15 UNK         0.1400 
     86 CB         -4.6245  -28.6023  -48.4882 C.3       15 UNK        -0.1800 
     87 C          -5.0220  -26.0962  -48.9028 C.2       15 UNK         0.5000 
     88 O          -5.9276  -26.3915  -49.6844 O.2       15 UNK        -0.5000 
     89 N          -4.4775  -24.8718  -48.8224 N.am      16 UNK        -0.5000 
     90 CA         -4.8113  -23.6984  -49.6348 C.3       16 UNK         0.1400 
     91 CB         -6.2382  -23.2007  -49.3259 C.3       16 UNK        -0.1800 
     92 C          -4.5555  -23.9038  -51.1430 C.2       16 UNK         0.5000 
     93 O          -5.2453  -23.3055  -51.9703 O.2       16 UNK        -0.5000 
     94 N          -3.5404  -24.7160  -51.4798 N.am      17 UNK        -0.5000 
     95 CA         -3.1343  -25.0613  -52.8491 C.3       17 UNK         0.1400 
     96 CB         -2.0077  -26.1033  -52.7853 C.3       17 UNK        -0.1800 
     97 C          -2.7085  -23.8578  -53.7173 C.2       17 UNK         0.5000 
     98 O          -2.7493  -23.9481  -54.9445 O.2       17 UNK        -0.5000 
     99 N          -2.3396  -22.7468  -53.0657 N.am      18 UNK        -0.5000 
    100 CA        -2.0611  -21.4488  -53.6798 C.3       18 UNK         0.1400 
    101 CB        -1.4024  -20.5515  -52.6231 C.3       18 UNK        -0.1800 
    102 C         -3.3094  -20.7439  -54.2514 C.2       18 UNK         0.5000 
    103 O         -3.1525  -19.7853  -55.0108 O.2       18 UNK        -0.5000 
    104 N         -4.5118  -21.1846  -53.8411 N.am      19 UNK        -0.5000 
    105 CA        -5.8403  -20.7051  -54.2505 C.3       19 UNK         0.1400 
    106 CB        -6.0841  -21.0268  -55.7393 C.3       19 UNK        -0.1800 
    107 C         -6.1073  -19.2187  -53.9234 C.2       19 UNK         0.5000 
    108 O         -6.9658  -18.5984  -54.5521 O.2       19 UNK        -0.5000 
    109 N         -5.3360  -18.6681  -52.9722 N.am      20 UNK        -0.5000 
    110 CA        -5.2276  -17.2479  -52.6113 C.3       20 UNK         0.1400 
    111 CB        -6.5413  -16.7253  -51.9957 C.3       20 UNK        -0.1800 
    112 C         -4.7020  -16.3478  -53.7550 C.2       20 UNK         0.5000 
    113 O         -4.8150  -15.1245  -53.6709 O.2       20 UNK        -0.5000 
    114 N         -4.1111  -16.9664  -54.7855 N.am      21 UNK        -0.5000 
    115 CA        -3.4867  -16.3239  -55.9414 C.3       21 UNK         0.1400 
    116 CB        -4.0427  -16.9854  -57.2140 C.3       21 UNK        -0.1800 
    117 C         -1.9506  -16.4425  -55.8829 C.2       21 UNK         0.5000 
    118 O         -1.2763  -16.0645  -56.8420 O.2       21 UNK        -0.5000 
    119 N         -1.4316  -16.9751  -54.7678 N.am      22 UNK        -0.5000 
    120 CA        -0.0109  -17.2405  -54.4902 C.3       22 UNK         0.1400 
    121 C          0.5934  -18.4071  -55.3304 C.2       22 UNK         0.5000 
    122 N         -0.2149  -19.2858  -55.9131 N.am      22 UNK        -0.7600 
    123 O          1.8097  -18.5382  -55.4370 O.2       22 UNK        -0.5000 
    124 C124        0.8824  -15.9675  -54.4956 C.3       23 UNK        -0.0398 
    125 S125        0.1935  -14.5646  -53.5476 S.3       23 UNK        -0.2404 
    126 C126        0.7935  -14.8934  -51.8615 C.3       23 UNK        -0.0205 
    127 H127       -3.4616  -13.8723  -42.7703 H         1 UNK         0.0600 
    128 H128       -4.0587  -12.2245  -42.9905 H         1 UNK         0.0600 
    129 H129       -2.3325  -12.5144  -42.7560 H         1 UNK         0.0600 
    130 H130       -4.7113  -12.0071  -45.0729 H         1 UNK         0.3000 
    131 H131       -4.8660  -11.8531  -47.2069 H         1 UNK         0.0600 
    132 H132       -5.4851  -14.2721  -46.7742 H         1 UNK         0.0800 
    133 H133       -5.2024  -13.8164  -48.4163 H         1 UNK         0.0800 
    134 H134       -3.8316  -14.7976  -49.9579 H         1 UNK         0.0800 
    135 H135       -4.3342  -16.4342  -49.6015 H         1 UNK         0.0800 
    136 H136       -1.7030  -14.3806  -50.9122 H         1 UNK         0.1150 
    137 H137        1.2799  -17.4499  -51.0394 H         1 UNK         0.1150 
    138 H138       -2.4099  -18.1299  -48.9594 H         1 UNK         0.1150 
    139 H139        0.9741  -19.5114  -49.9521 H         1 UNK         0.0800 
    140 H140       -0.6641  -20.0917  -49.8994 H         1 UNK         0.0800 
    141 H141       -1.9599  -20.5768  -48.1257 H         1 UNK         0.0800 
    142 H142       -1.8988  -19.9082  -46.5218 H         1 UNK         0.0800 
    143 H143       -0.2766  -22.3181  -47.4852 H         1 UNK         0.0600 
    144 H144       -0.0225  -20.7994  -45.0675 H         1 UNK         0.3000 
    145 H145        1.7513  -23.2487  -43.2062 H         1 UNK         0.0600 
    146 H146        3.4624  -22.2347  -44.7120 H         1 UNK         0.0600 
    147 H147        3.4187  -21.3934  -43.1707 H         1 UNK         0.0600 
    148 H148        2.6658  -20.6713  -44.5936 H         1 UNK         0.0600 
    149 H149        1.0079  -20.4973  -42.7665 H         1 UNK         0.3000 
    150 H150       -2.1831  -21.1198  -41.3321 H         1 UNK         0.0600 
    151 H151        0.4583  -20.3784  -39.9773 H         1 UNK         0.0600 
    152 H152       -0.7030  -21.5749  -39.4261 H         1 UNK         0.0600 
    153 H153       -1.1382  -19.8717  -39.4271 H         1 UNK         0.0600 
    154 H154       -0.6306  -18.7355  -41.6478 H         1 UNK         0.3000 
    155 H155       -1.0317  -18.1468  -44.8912 H         1 UNK         0.0600 
    156 H156       -3.6509  -17.2989  -43.5762 H         1 UNK         0.0600 
    157 H157       -3.4066  -17.9599  -45.1834 H         1 UNK         0.0600 
    158 H158       -2.8442  -16.3390  -44.8108 H         1 UNK         0.0600 
    159 H159        0.2165  -16.9541  -43.5401 H         1 UNK         0.3000 
    160 H160        0.1516  -14.4628  -42.4262 H         1 UNK         0.0600 
    161 H161       -0.4822  -15.3615  -39.5654 H         1 UNK         0.0600 
    162 H162       -1.2121  -14.0057  -40.4162 H         1 UNK         0.0600 
    163 H163        0.4934  -13.9593  -40.0021 H         1 UNK         0.0600 
    164 H164        2.0971  -15.5158  -42.1105 H         1 UNK         0.3000 
    165 H165        3.5733  -17.1497  -40.2705 H         1 UNK         0.0600 
    166 H166        2.7073  -19.4011  -39.7765 H         1 UNK         0.0600 
    167 H167        2.5066  -19.7436  -41.4913 H         1 UNK         0.0600 
    168 H168        4.1169  -19.5356  -40.8105 H         1 UNK         0.0600 
    169 H169        4.6803  -17.0295  -42.1749 H         1 UNK         0.3000 
    170 H170        5.0830  -16.6475  -44.3508 H         1 UNK         0.0600 
    171 H171        6.2572  -18.6439  -45.2232 H         1 UNK         0.0600 
    172 H172        5.7253  -19.0063  -43.5936 H         1 UNK         0.0600 
    173 H173        4.8381  -19.6516  -44.9684 H         1 UNK         0.0600 
    174 H174        2.9319  -17.5088  -46.0275 H         1 UNK         0.3000 
    175 H175        4.3471  -15.8722  -48.8804 H         1 UNK         0.0600 
    176 H176        3.4611  -17.7939  -50.1457 H         1 UNK         0.0600 
    177 H177        4.9149  -18.2893  -49.2989 H         1 UNK         0.0600 
    178 H178        3.3391  -18.7621  -48.6753 H         1 UNK         0.0600 
    179 H179        1.7524  -16.9327  -48.4217 H         1 UNK         0.3000 
    180 H180        0.0495  -15.3964  -48.2984 H         1 UNK         0.0600 
    181 H181        0.4892  -16.8233  -46.2315 H         1 UNK         0.0600 
    182 H182       -0.9970  -15.9011  -46.1642 H         1 UNK         0.0600 
    183 H183        0.4191  -15.3546  -45.2657 H         1 UNK         0.0600 
    184 H184       -0.6156  -13.4934  -46.4626 H         1 UNK         0.3000 
    185 H185        0.0389  -10.8472  -46.8621 H         1 UNK         0.0600 
    186 H186        0.4710   -9.9222  -49.0896 H         1 UNK         0.0600 
    187 H187       -1.0145  -10.6050  -49.7295 H         1 UNK         0.0600 
    188 H188       -1.0786   -9.3243  -48.5189 H         1 UNK         0.0600 
    189 H189       -1.9786  -11.4475  -46.1779 H         1 UNK         0.3000 
    190 H190       -2.3729  -21.8667  -44.6126 H         1 UNK         0.3000 
    191 H191       -4.5015  -23.5534  -45.4481 H         1 UNK         0.0600 
    192 H192       -4.6894  -21.9308  -43.5777 H         1 UNK         0.0600 
    193 H193       -5.0912  -23.5508  -43.0269 H         1 UNK         0.0600 
    194 H194       -3.5267  -22.8524  -42.6276 H         1 UNK         0.0600 
    195 H195       -1.4837  -24.2836  -43.6153 H         1 UNK         0.3000 
    196 H196       -1.9608  -27.0555  -43.2366 H         1 UNK         0.0600 
    197 H197        0.4875  -27.1574  -42.7978 H         1 UNK         0.0600 
    198 H198       -0.2401  -25.7819  -41.9827 H         1 UNK         0.0600 
    199 H199        0.6934  -25.5414  -43.4580 H         1 UNK         0.0600 
    200 H200       -0.6851  -25.2760  -46.0107 H         1 UNK         0.3000 
    201 H201       -0.0846  -27.6458  -47.6072 H         1 UNK         0.0600 
    202 H202        0.4508  -25.9823  -49.3492 H         1 UNK         0.0600 
    203 H203        1.2024  -25.5089  -47.8352 H         1 UNK         0.0600 
    204 H204       -0.2549  -24.6895  -48.3899 H         1 UNK         0.0600 
    205 H205       -2.9719  -26.7316  -46.5338 H         1 UNK         0.3000 
    206 H206       -5.0669  -27.0949  -47.0386 H         1 UNK         0.0600 
    207 H207       -4.2253  -29.3365  -47.7884 H         1 UNK         0.0600 
    208 H208       -5.6757  -28.8459  -48.6456 H         1 UNK         0.0600 
    209 H209       -4.1133  -28.7343  -49.4422 H         1 UNK         0.0600 
    210 H210       -3.7238  -24.7222  -48.1567 H         1 UNK         0.3000 
    211 H211       -4.1215  -22.9129  -49.3239 H         1 UNK         0.0600 
    212 H212       -6.3795  -23.0513  -48.2554 H         1 UNK         0.0600 
    213 H213       -6.4341  -22.2451  -49.8136 H         1 UNK         0.0600 
    214 H214       -6.9969  -23.9039  -49.6704 H         1 UNK         0.0600 
    215 H215       -3.0426  -25.1894  -50.7369 H         1 UNK         0.3000 
    216 H216       -3.9957  -25.5193  -53.3391 H         1 UNK         0.0600 
    217 H217       -1.1383  -25.7227  -52.2477 H         1 UNK         0.0600 
    218 H218       -1.6784  -26.3898  -53.7850 H         1 UNK         0.0600 
    219 H219       -2.3406  -27.0118  -52.2829 H         1 UNK         0.0600 
    220 H220       -2.3193  -22.7825  -52.0579 H         1 UNK         0.3000 
    221 H221       -1.3588  -21.5985  -54.5020 H         1 UNK         0.0600 
    222 H222       -2.0590  -20.3993  -51.7659 H         1 UNK         0.0600 
    223 H223       -0.4671  -20.9828  -52.2659 H         1 UNK         0.0600 
    224 H224       -1.1700  -19.5688  -53.0289 H         1 UNK         0.0600 
    225 H225       -4.5380  -21.9671  -53.1930 H         1 UNK         0.3000 
    226 H226       -6.5617  -21.2768  -53.6651 H         1 UNK         0.0600 
    227 H227       -5.8943  -22.0793  -55.9504 H         1 UNK         0.0600 
    228 H228       -7.1171  -20.8224  -56.0227 H         1 UNK         0.0600 
    229 H229       -5.4424  -20.4329  -56.3912 H         1 UNK         0.0600 
    230 H230       -4.6768  -19.2817  -52.5158 H         1 UNK         0.3000 
    231 H231       -4.4622  -17.2042  -51.8368 H         1 UNK         0.0600 
    232 H232       -7.3411  -16.6681  -52.7342 H         1 UNK         0.0600 
    233 H233       -6.4085  -15.7253  -51.5813 H         1 UNK         0.0600 
    234 H234       -6.8788  -17.3685  -51.1830 H         1 UNK         0.0600 
    235 H235       -4.0465  -17.9794  -54.7725 H         1 UNK         0.3000 
    236 H236       -3.7307  -15.2603  -55.9682 H         1 UNK         0.0600 
    237 H237       -3.7878  -18.0452  -57.2592 H         1 UNK         0.0600 
    238 H238       -5.1287  -16.9015  -57.2580 H         1 UNK         0.0600 
    239 H239       -3.6443  -16.5113  -58.1117 H         1 UNK         0.0600 
    240 H240       -2.0762  -17.2461  -54.0420 H         1 UNK         0.3000 
    241 H241        0.0064  -17.6168  -53.4693 H         1 UNK         0.0600 
    242 H242        0.1820  -20.0340  -56.4585 H         1 UNK         0.3800 
    243 H243       -1.2189  -19.2107  -55.8136 H         1 UNK         0.3800 
    244 H244        1.0383  -15.6261  -55.5199 H         1 UNK         0.0800 
    245 H245        1.8756  -16.1978  -54.1073 H         1 UNK         0.0800 
    246 H246        0.8488  -13.9427  -51.3321 H         1 UNK         0.0800 
    247 H247        1.8141  -15.2773  -51.8923 H         1 UNK         0.0800 
@<TRIPOS>BOND
     1    1    2 1    
     2    1  127 1    
     3    1  128 1    
     4    1  129 1    
     5    2    3 2    
     6    2    4 am   BACKBONE|DICT|INTERRES
     7    4    5 1    
     8    4  130 1    
     9    5    6 1    
    10    5   65 1    
    11    5  131 1    
    12    6    7 1    
    13    6  132 1    
    14    6  133 1    
    15    7    8 1    
    16    8    9 1    
    17    8  134 1    
    18    8  135 1    
    19    9   10 ar   
    20    9   14 ar   
    21   10   11 ar   
    22   10  136 1    
    23   11   12 ar   
    24   11  126 1    
    25   12   13 ar   
    26   12  137 1    
    27   13   14 ar   
    28   13   15 1    
    29   14  138 1    
    30   15   16 1    
    31   15  139 1    
    32   15  140 1    
    33   16   17 1    
    34   17   18 1    
    35   17  141 1    
    36   17  142 1    
    37   18   19 1    
    38   18   67 1    
    39   18  143 1    
    40   19   20 am   BACKBONE|DICT|INTERRES
    41   19  144 1    
    42   20   21 2    
    43   20   22 1    
    44   22   23 1    
    45   22   24 1    
    46   22  145 1    
    47   23  146 1    
    48   23  147 1    
    49   23  148 1    
    50   24   25 am   BACKBONE|DICT|INTERRES
    51   24  149 1    
    52   25   26 2    
    53   25   27 1    
    54   27   28 1    
    55   27   29 1    
    56   27  150 1    
    57   28  151 1    
    58   28  152 1    
    59   28  153 1    
    60   29   30 am   BACKBONE|DICT|INTERRES
    61   29  154 1    
    62   30   31 2    
    63   30   32 1    
    64   32   33 1    
    65   32   34 1    
    66   32  155 1    
    67   33  156 1    
    68   33  157 1    
    69   33  158 1    
    70   34   35 am   BACKBONE|DICT|INTERRES
    71   34  159 1    
    72   35   36 2    
    73   35   37 1    
    74   37   38 1    
    75   37   39 1    
    76   37  160 1    
    77   38  161 1    
    78   38  162 1    
    79   38  163 1    
    80   39   40 am   BACKBONE|DICT|INTERRES
    81   39  164 1    
    82   40   41 2    
    83   40   42 1    
    84   42   43 1    
    85   42   44 1    
    86   42  165 1    
    87   43  166 1    
    88   43  167 1    
    89   43  168 1    
    90   44   45 am   BACKBONE|DICT|INTERRES
    91   44  169 1    
    92   45   46 2    
    93   45   47 1    
    94   47   48 1    
    95   47   49 1    
    96   47  170 1    
    97   48  171 1    
    98   48  172 1    
    99   48  173 1    
   100   49   50 am   BACKBONE|DICT|INTERRES
   101   49  174 1    
   102   50   51 2    
   103   50   52 1    
   104   52   53 1    
   105   52   54 1    
   106   52  175 1    
   107   53  176 1    
   108   53  177 1    
   109   53  178 1    
   110   54   55 am   BACKBONE|DICT|INTERRES
   111   54  179 1    
   112   55   56 2    
   113   55   57 1    
   114   57   58 1    
   115   57   59 1    
   116   57  180 1    
   117   58  181 1    
   118   58  182 1    
   119   58  183 1    
   120   59   60 am   BACKBONE|DICT|INTERRES
   121   59  184 1    
   122   60   61 2    
   123   60   62 1    
   124   62   63 1    
   125   62   64 1    
   126   62  185 1    
   127   63  186 1    
   128   63  187 1    
   129   63  188 1    
   130   64   65 am   BACKBONE|DICT|INTERRES
   131   64  189 1    
   132   65   66 2    
   133   67   68 2    
   134   67   69 am   BACKBONE|DICT|INTERRES
   135   69   70 1    
   136   69  190 1    
   137   70   71 1    
   138   70   72 1    
   139   70  191 1    
   140   71  192 1    
   141   71  193 1    
   142   71  194 1    
   143   72   73 2    
   144   72   74 am   BACKBONE|DICT|INTERRES
   145   74   75 1    
   146   74  195 1    
   147   75   76 1    
   148   75   77 1    
   149   75  196 1    
   150   76  197 1    
   151   76  198 1    
   152   76  199 1    
   153   77   78 2    
   154   77   79 am   BACKBONE|DICT|INTERRES
   155   79   80 1    
   156   79  200 1    
   157   80   81 1    
   158   80   82 1    
   159   80  201 1    
   160   81  202 1    
   161   81  203 1    
   162   81  204 1    
   163   82   83 2    
   164   82   84 am   BACKBONE|DICT|INTERRES
   165   84   85 1    
   166   84  205 1    
   167   85   86 1    
   168   85   87 1    
   169   85  206 1    
   170   86  207 1    
   171   86  208 1    
   172   86  209 1    
   173   87   88 2    
   174   87   89 am   BACKBONE|DICT|INTERRES
   175   89   90 1    
   176   89  210 1    
   177   90   91 1    
   178   90   92 1    
   179   90  211 1    
   180   91  212 1    
   181   91  213 1    
   182   91  214 1    
   183   92   93 2    
   184   92   94 am   BACKBONE|DICT|INTERRES
   185   94   95 1    
   186   94  215 1    
   187   95   96 1    
   188   95   97 1    
   189   95  216 1    
   190   96  217 1    
   191   96  218 1    
   192   96  219 1    
   193   97   98 2    
   194   97   99 am   BACKBONE|DICT|INTERRES
   195   99  100 1    
   196   99  220 1    
   197  100  101 1    
   198  100  102 1    
   199  100  221 1    
   200  101  222 1    
   201  101  223 1    
   202  101  224 1    
   203  102  103 2    
   204  102  104 am   BACKBONE|DICT|INTERRES
   205  104  105 1    
   206  104  225 1    
   207  105  106 1    
   208  105  107 1    
   209  105  226 1    
   210  106  227 1    
   211  106  228 1    
   212  106  229 1    
   213  107  108 2    
   214  107  109 am   BACKBONE|DICT|INTERRES
   215  109  110 1    
   216  109  230 1    
   217  110  111 1    
   218  110  112 1    
   219  110  231 1    
   220  111  232 1    
   221  111  233 1    
   222  111  234 1    
   223  112  113 2    
   224  112  114 am   BACKBONE|DICT|INTERRES
   225  114  115 1    
   226  114  235 1    
   227  115  116 1    
   228  115  117 1    
   229  115  236 1    
   230  116  237 1    
   231  116  238 1    
   232  116  239 1    
   233  117  118 2    
   234  117  119 am   BACKBONE|DICT|INTERRES
   235  119  120 1    
   236  119  240 1    
   237  120  121 1    
   238  120  124 1    
   239  120  241 1    
   240  121  122 am   BACKBONE|DICT|INTERRES
   241  121  123 2    
   242  122  242 1    
   243  122  243 1    
   244  124  125 1    
   245  124  244 1    
   246  124  245 1    
   247  125  126 1    
   248  126  246 1    
   249  126  247 1    
@<TRIPOS>SUBSTRUCTURE
     1 UNK         1 GROUP             0       ****    0 ROOT    
