@<TRIPOS>MOLECULE
3R540
247   249    1
SMALL
USER_CHARGES


@<TRIPOS>ATOM
      1 CA          2.2344  -10.1432  -47.3851 C.3       0 UNK        -0.1800 
      2 C           1.0810  -11.1063  -47.6622 C.2       0 UNK         0.5000 
      3 O          -0.0348  -10.8501  -47.2149 O.2       0 UNK        -0.5000 
      4 N           1.2852  -12.2147  -48.3868 N.am      1 UNK        -0.5000 
      5 CA          2.5576  -12.7239  -48.9108 C.3       1 UNK         0.1400 
      6 C6          2.3306  -13.8616  -49.9421 C.3       23 UNK        -0.0398 
      7 S7          1.3509  -15.2813  -49.3231 S.3       23 UNK        -0.2404 
      8 C8         -0.0771  -15.2618  -50.4511 C.3       23 UNK        -0.0205 
      9 C9         -1.0055  -16.4348  -50.1774 C.ar      23 UNK        -0.0193 
     10 C10        -2.1639  -16.2621  -49.4131 C.ar      23 UNK        -0.1150 
     11 C11        -3.0105  -17.3449  -49.1532 C.ar      23 UNK        -0.0193 
     12 C12        -2.6837  -18.6079  -49.6533 C.ar      23 UNK        -0.1150 
     13 C13        -1.5272  -18.7929  -50.4170 C.ar      23 UNK        -0.0193 
     14 C14        -0.6991  -17.7003  -50.6858 C.ar      23 UNK        -0.1150 
     15 C15        -1.1714  -20.1777  -50.9394 C.3       23 UNK        -0.0205 
     16 S16         0.3539  -20.8579  -50.2120 S.3       23 UNK        -0.2404 
     17 C17         0.0863  -20.6307  -48.4207 C.3       23 UNK        -0.0398 
     18 CA         -0.2215  -21.9305  -47.6456 C.3       11 UNK         0.1400 
     19 N           0.0589  -21.7466  -46.2208 N.am      11 UNK        -0.5000 
     20 C           0.1279  -22.7211  -45.3076 C.2       10 UNK         0.5000 
     21 O          -0.0246  -23.9123  -45.5675 O.2       10 UNK        -0.5000 
     22 CA          0.3634  -22.2884  -43.8496 C.3       10 UNK         0.1400 
     23 CB          1.8477  -21.9847  -43.5994 C.3       10 UNK        -0.1800 
     24 N          -0.4514  -21.1339  -43.4683 N.am      10 UNK        -0.5000 
     25 C          -1.7920  -21.1429  -43.4284 C.2       9 UNK         0.5000 
     26 O          -2.4761  -22.1352  -43.6787 O.2       9 UNK        -0.5000 
     27 CA         -2.4885  -19.8134  -43.0922 C.3       9 UNK         0.1400 
     28 CB         -2.4630  -19.5572  -41.5783 C.3       9 UNK        -0.1800 
     29 N          -1.9050  -18.6731  -43.8000 N.am      9 UNK        -0.5000 
     30 C          -1.9057  -18.5297  -45.1340 C.2       8 UNK         0.5000 
     31 O          -2.4242  -19.3322  -45.9088 O.2       8 UNK        -0.5000 
     32 CA         -1.1505  -17.3174  -45.7043 C.3       8 UNK         0.1400 
     33 CB         -1.9607  -16.0268  -45.5181 C.3       8 UNK        -0.1800 
     34 N           0.1707  -17.1482  -45.1051 N.am      8 UNK        -0.5000 
     35 C           1.1534  -18.0571  -45.1360 C.2       7 UNK         0.5000 
     36 O           1.0670  -19.1451  -45.7019 O.2       7 UNK        -0.5000 
     37 CA          2.4319  -17.7150  -44.3589 C.3       7 UNK         0.1400 
     38 CB          3.3360  -16.7829  -45.1751 C.3       7 UNK        -0.1800 
     39 N           2.1358  -17.1131  -43.0597 N.am      7 UNK        -0.5000 
     40 C           1.6174  -17.7841  -42.0223 C.2       6 UNK         0.5000 
     41 O           1.3519  -18.9867  -42.0460 O.2       6 UNK        -0.5000 
     42 CA          1.3173  -16.9600  -40.7571 C.3       6 UNK         0.1400 
     43 CB          2.6072  -16.6809  -39.9704 C.3       6 UNK        -0.1800 
     44 N           0.6486  -15.6928  -41.0545 N.am      6 UNK        -0.5000 
     45 C          -0.5887  -15.5925  -41.5600 C.2       5 UNK         0.5000 
     46 O          -1.3012  -16.5600  -41.8251 O.2       5 UNK        -0.5000 
     47 CA         -1.1053  -14.1726  -41.8604 C.3       5 UNK         0.1400 
     48 CB         -1.7217  -13.5474  -40.6002 C.3       5 UNK        -0.1800 
     49 N          -0.0970  -13.2600  -42.4082 N.am      5 UNK        -0.5000 
     50 C           0.6612  -13.4923  -43.4886 C.2       4 UNK         0.5000 
     51 O           0.6571  -14.5553  -44.1090 O.2       4 UNK        -0.5000 
     52 CA          1.5830  -12.3640  -43.9765 C.3       4 UNK         0.1400 
     53 CB          1.4315  -11.0195  -43.2294 C.3       4 UNK        -0.1800 
     54 N           2.9738  -12.8119  -44.0106 N.am      4 UNK        -0.5000 
     55 C           3.7619  -13.1226  -42.9723 C.2       3 UNK         0.5000 
     56 O           3.3917  -13.0597  -41.7989 O.2       3 UNK        -0.5000 
     57 CA          5.1994  -13.6016  -43.2806 C.3       3 UNK         0.1400 
     58 CB          5.5399  -14.8767  -42.4886 C.3       3 UNK        -0.1800 
     59 N           5.4565  -13.8480  -44.7035 N.am      3 UNK        -0.5000 
     60 C           5.7253  -12.9168  -45.6296 C.2       2 UNK         0.5000 
     61 O           5.8027  -11.7124  -45.3846 O.2       2 UNK        -0.5000 
     62 CA          5.9120  -13.4039  -47.0858 C.3       2 UNK         0.1400 
     63 CB          6.1336  -14.9278  -47.2133 C.3       2 UNK        -0.1800 
     64 N           4.8182  -12.9872  -47.9743 N.am      2 UNK        -0.5000 
     65 C           3.5043  -13.1730  -47.7759 C.2       1 UNK         0.5000 
     66 O           3.0312  -13.6787  -46.7582 O.2       1 UNK        -0.5000 
     67 C          -1.6600  -22.4411  -47.8899 C.2       11 UNK         0.5000 
     68 O          -1.8604  -23.3419  -48.7062 O.2       11 UNK        -0.5000 
     69 N          -2.6388  -21.9050  -47.1478 N.am      12 UNK        -0.5000 
     70 CA         -4.0262  -22.3714  -47.1598 C.3       12 UNK         0.1400 
     71 CB         -4.9029  -21.4174  -46.3362 C.3       12 UNK        -0.1800 
     72 C          -4.1751  -23.8237  -46.6666 C.2       12 UNK         0.5000 
     73 O          -4.9512  -24.5815  -47.2478 O.2       12 UNK        -0.5000 
     74 N          -3.4225  -24.1853  -45.6200 N.am      13 UNK        -0.5000 
     75 CA         -3.4314  -25.5128  -45.0142 C.3       13 UNK         0.1400 
     76 CB         -2.9196  -25.4146  -43.5668 C.3       13 UNK        -0.1800 
     77 C          -2.6248  -26.5456  -45.8225 C.2       13 UNK         0.5000 
     78 O          -3.2008  -27.5104  -46.3260 O.2       13 UNK        -0.5000 
     79 N          -1.3017  -26.3539  -45.8956 N.am      14 UNK        -0.5000 
     80 CA         -0.3449  -27.3584  -46.3620 C.3       14 UNK         0.1400 
     81 CB          1.0395  -27.0614  -45.7648 C.3       14 UNK        -0.1800 
     82 C          -0.2611  -27.4516  -47.8915 C.2       14 UNK         0.5000 
     83 O          -0.1465  -28.5577  -48.4208 O.2       14 UNK        -0.5000 
     84 N          -0.3325  -26.3015  -48.5749 N.am      15 UNK        -0.5000 
     85 CA         -0.3230  -26.2207  -50.0391 C.3       15 UNK         0.1400 
     86 CB          0.4784  -24.9856  -50.4884 C.3       15 UNK        -0.1800 
     87 C          -1.7456  -26.2278  -50.6315 C.2       15 UNK         0.5000 
     88 O          -1.8870  -26.0968  -51.8472 O.2       15 UNK        -0.5000 
     89 N          -2.7713  -26.3675  -49.7756 N.am      16 UNK        -0.5000 
     90 CA         -4.2017  -26.4327  -50.0984 C.3       16 UNK         0.1400 
     91 CB         -4.5245  -27.7516  -50.8309 C.3       16 UNK        -0.1800 
     92 C          -4.7122  -25.1856  -50.8528 C.2       16 UNK         0.5000 
     93 O          -5.5587  -25.3045  -51.7396 O.2       16 UNK        -0.5000 
     94 N          -4.1571  -24.0176  -50.4972 N.am      17 UNK        -0.5000 
     95 CA         -4.3661  -22.7037  -51.1128 C.3       17 UNK         0.1400 
     96 CB         -5.8489  -22.2780  -51.0944 C.3       17 UNK        -0.1800 
     97 C          -3.7173  -22.5600  -52.5056 C.2       17 UNK         0.5000 
     98 O          -4.0346  -21.6082  -53.2182 O.2       17 UNK        -0.5000 
     99 N          -2.7964  -23.4703  -52.8597 N.am      18 UNK        -0.5000 
    100 CA        -2.0146  -23.5023  -54.0985 C.3       18 UNK         0.1400 
    101 CB        -0.9517  -22.3807  -54.0788 C.3       18 UNK        -0.1800 
    102 C         -2.9173  -23.5011  -55.3521 C.2       18 UNK         0.5000 
    103 O         -3.8714  -24.2794  -55.4121 O.2       18 UNK        -0.5000 
    104 N         -2.6362  -22.6172  -56.3173 N.am      19 UNK        -0.5000 
    105 CA        -3.4231  -22.4025  -57.5337 C.3       19 UNK         0.1400 
    106 CB        -2.4885  -21.8631  -58.6321 C.3       19 UNK        -0.1800 
    107 C         -4.6399  -21.4835  -57.2786 C.2       19 UNK         0.5000 
    108 O         -4.8449  -20.5156  -58.0135 O.2       19 UNK        -0.5000 
    109 N         -5.4149  -21.8017  -56.2313 N.am      20 UNK        -0.5000 
    110 CA        -6.5975  -21.0869  -55.7380 C.3       20 UNK         0.1400 
    111 CB        -7.7662  -21.2168  -56.7372 C.3       20 UNK        -0.1800 
    112 C         -6.2930  -19.6254  -55.3438 C.2       20 UNK         0.5000 
    113 O         -7.0013  -18.7036  -55.7558 O.2       20 UNK        -0.5000 
    114 N         -5.2282  -19.4437  -54.5543 N.am      21 UNK        -0.5000 
    115 CA        -4.8223  -18.1660  -53.9743 C.3       21 UNK         0.1400 
    116 CB        -3.3910  -18.3059  -53.4343 C.3       21 UNK        -0.1800 
    117 C         -5.7787  -17.7200  -52.8515 C.2       21 UNK         0.5000 
    118 O         -6.4724  -18.5548  -52.2666 O.2       21 UNK        -0.5000 
    119 N         -5.7835  -16.4071  -52.5882 N.am      22 UNK        -0.5000 
    120 CA        -6.5024  -15.6530  -51.5380 C.3       22 UNK         0.1400 
    121 C         -8.0490  -15.8248  -51.4060 C.2       22 UNK         0.5000 
    122 N         -8.6781  -16.8046  -52.0366 N.am      22 UNK        -0.7600 
    123 O         -8.6987  -15.0163  -50.7479 O.2       22 UNK        -0.5000 
    124 C124       -5.7757  -15.6731  -50.1639 C.3       23 UNK        -0.0398 
    125 S125       -5.7908  -17.2759  -49.2855 S.3       23 UNK        -0.2404 
    126 C126       -4.2620  -17.1646  -48.3059 C.3       23 UNK        -0.0205 
    127 H127        2.8911  -10.5424  -46.6119 H         1 UNK         0.0600 
    128 H128        1.8506   -9.1861  -47.0312 H         1 UNK         0.0600 
    129 H129        2.8214   -9.9467  -48.2815 H         1 UNK         0.0600 
    130 H130        0.5109  -12.8510  -48.5056 H         1 UNK         0.3000 
    131 H131        3.0441  -11.9057  -49.4442 H         1 UNK         0.0600 
    132 H132        1.8374  -13.4467  -50.8221 H         1 UNK         0.0800 
    133 H133        3.2867  -14.2426  -50.3057 H         1 UNK         0.0800 
    134 H134       -0.6130  -14.3173  -50.3458 H         1 UNK         0.0800 
    135 H135        0.2729  -15.3082  -51.4836 H         1 UNK         0.0800 
    136 H136       -2.4019  -15.2859  -49.0148 H         1 UNK         0.1150 
    137 H137       -3.3312  -19.4465  -49.4385 H         1 UNK         0.1150 
    138 H138        0.1988  -17.8411  -51.2710 H         1 UNK         0.1150 
    139 H139       -1.9781  -20.8786  -50.7449 H         1 UNK         0.0800 
    140 H140       -1.0582  -20.1312  -52.0226 H         1 UNK         0.0800 
    141 H141       -0.6629  -19.8690  -48.2077 H         1 UNK         0.0800 
    142 H142        1.0239  -20.2110  -48.0555 H         1 UNK         0.0800 
    143 H143        0.4607  -22.7054  -48.0016 H         1 UNK         0.0600 
    144 H144        0.2418  -20.7908  -45.9219 H         1 UNK         0.3000 
    145 H145        0.0773  -23.1241  -43.2075 H         1 UNK         0.0600 
    146 H146        2.0305  -21.7552  -42.5495 H         1 UNK         0.0600 
    147 H147        2.4705  -22.8418  -43.8586 H         1 UNK         0.0600 
    148 H148        2.1927  -21.1366  -44.1908 H         1 UNK         0.0600 
    149 H149        0.0442  -20.2827  -43.2298 H         1 UNK         0.3000 
    150 H150       -3.5316  -19.8990  -43.4036 H         1 UNK         0.0600 
    151 H151       -2.8858  -20.4005  -41.0307 H         1 UNK         0.0600 
    152 H152       -3.0493  -18.6755  -41.3192 H         1 UNK         0.0600 
    153 H153       -1.4468  -19.4022  -41.2133 H         1 UNK         0.0600 
    154 H154       -1.4822  -17.9517  -43.2233 H         1 UNK         0.3000 
    155 H155       -1.0120  -17.4854  -46.7745 H         1 UNK         0.0600 
    156 H156       -2.0319  -15.7483  -44.4675 H         1 UNK         0.0600 
    157 H157       -1.5039  -15.1954  -46.0555 H         1 UNK         0.0600 
    158 H158       -2.9777  -16.1405  -45.8893 H         1 UNK         0.0600 
    159 H159        0.3487  -16.2561  -44.6466 H         1 UNK         0.3000 
    160 H160        2.9747  -18.6479  -44.1923 H         1 UNK         0.0600 
    161 H161        2.9210  -15.7773  -45.2350 H         1 UNK         0.0600 
    162 H162        3.4589  -17.1484  -46.1957 H         1 UNK         0.0600 
    163 H163        4.3300  -16.7181  -44.7358 H         1 UNK         0.0600 
    164 H164        2.2314  -16.1108  -42.9885 H         1 UNK         0.3000 
    165 H165        0.6535  -17.5534  -40.1247 H         1 UNK         0.0600 
    166 H166        2.3910  -16.1844  -39.0243 H         1 UNK         0.0600 
    167 H167        3.1316  -17.6086  -39.7374 H         1 UNK         0.0600 
    168 H168        3.2942  -16.0463  -40.5315 H         1 UNK         0.0600 
    169 H169        1.1740  -14.8451  -40.8930 H         1 UNK         0.3000 
    170 H170       -1.8942  -14.2653  -42.6085 H         1 UNK         0.0600 
    171 H171       -0.9721  -13.3806  -39.8255 H         1 UNK         0.0600 
    172 H172       -2.1930  -12.5902  -40.8238 H         1 UNK         0.0600 
    173 H173       -2.4912  -14.1957  -40.1786 H         1 UNK         0.0600 
    174 H174       -0.0065  -12.3656  -41.9490 H         1 UNK         0.3000 
    175 H175        1.3011  -12.1902  -45.0138 H         1 UNK         0.0600 
    176 H176        2.0885  -10.2635  -43.6597 H         1 UNK         0.0600 
    177 H177        1.6716  -11.0989  -42.1690 H         1 UNK         0.0600 
    178 H178        0.4127  -10.6389  -43.3125 H         1 UNK         0.0600 
    179 H179        3.3179  -13.0188  -44.9435 H         1 UNK         0.3000 
    180 H180        5.8729  -12.8110  -42.9438 H         1 UNK         0.0600 
    181 H181        4.8445  -15.6872  -42.7045 H         1 UNK         0.0600 
    182 H182        5.4982  -14.6924  -41.4143 H         1 UNK         0.0600 
    183 H183        6.5475  -15.2268  -42.7138 H         1 UNK         0.0600 
    184 H184        5.3791  -14.8059  -45.0105 H         1 UNK         0.3000 
    185 H185        6.8145  -12.9118  -47.4515 H         1 UNK         0.0600 
    186 H186        6.9527  -15.2660  -46.5772 H         1 UNK         0.0600 
    187 H187        5.2428  -15.4971  -46.9490 H         1 UNK         0.0600 
    188 H188        6.3962  -15.1947  -48.2370 H         1 UNK         0.0600 
    189 H189        5.1148  -12.5253  -48.8227 H         1 UNK         0.3000 
    190 H190       -2.4282  -21.1238  -46.5313 H         1 UNK         0.3000 
    191 H191       -4.3829  -22.3358  -48.1890 H         1 UNK         0.0600 
    192 H192       -4.8777  -20.4078  -46.7469 H         1 UNK         0.0600 
    193 H193       -5.9439  -21.7427  -46.3382 H         1 UNK         0.0600 
    194 H194       -4.5761  -21.3646  -45.2976 H         1 UNK         0.0600 
    195 H195       -2.8461  -23.4829  -45.1681 H         1 UNK         0.3000 
    196 H196       -4.4641  -25.8656  -44.9704 H         1 UNK         0.0600 
    197 H197       -2.8926  -26.3963  -43.0922 H         1 UNK         0.0600 
    198 H198       -3.5706  -24.7804  -42.9647 H         1 UNK         0.0600 
    199 H199       -1.9139  -24.9955  -43.5167 H         1 UNK         0.0600 
    200 H200       -0.9029  -25.4803  -45.5553 H         1 UNK         0.3000 
    201 H201       -0.6637  -28.3340  -45.9883 H         1 UNK         0.0600 
    202 H202        1.0002  -27.0245  -44.6761 H         1 UNK         0.0600 
    203 H203        1.4375  -26.1096  -46.1182 H         1 UNK         0.0600 
    204 H204        1.7561  -27.8367  -46.0386 H         1 UNK         0.0600 
    205 H205       -0.4567  -25.4344  -48.0696 H         1 UNK         0.3000 
    206 H206        0.1871  -27.0947  -50.4492 H         1 UNK         0.0600 
    207 H207        1.4763  -24.9816  -50.0500 H         1 UNK         0.0600 
    208 H208        0.6028  -24.9771  -51.5719 H         1 UNK         0.0600 
    209 H209       -0.0087  -24.0516  -50.2178 H         1 UNK         0.0600 
    210 H210       -2.5448  -26.4474  -48.7945 H         1 UNK         0.3000 
    211 H211       -4.7308  -26.4516  -49.1452 H         1 UNK         0.0600 
    212 H212       -4.0717  -27.7851  -51.8224 H         1 UNK         0.0600 
    213 H213       -5.6005  -27.8761  -50.9579 H         1 UNK         0.0600 
    214 H214       -4.1643  -28.6128  -50.2681 H         1 UNK         0.0600 
    215 H215       -3.4344  -24.0402  -49.7834 H         1 UNK         0.3000 
    216 H216       -3.8402  -22.0035  -50.4674 H         1 UNK         0.0600 
    217 H217       -5.9521  -21.2234  -51.3543 H         1 UNK         0.0600 
    218 H218       -6.2875  -22.4109  -50.1055 H         1 UNK         0.0600 
    219 H219       -6.4458  -22.8443  -51.8093 H         1 UNK         0.0600 
    220 H220       -2.6456  -24.2652  -52.2483 H         1 UNK         0.3000 
    221 H221       -1.4886  -24.4578  -54.1043 H         1 UNK         0.0600 
    222 H222       -1.4028  -21.3883  -54.1139 H         1 UNK         0.0600 
    223 H223       -0.3474  -22.4358  -53.1729 H         1 UNK         0.0600 
    224 H224       -0.2656  -22.4688  -54.9219 H         1 UNK         0.0600 
    225 H225       -1.8634  -21.9840  -56.1721 H         1 UNK         0.3000 
    226 H226       -3.8154  -23.3616  -57.8782 H         1 UNK         0.0600 
    227 H227       -1.6595  -22.5471  -58.8150 H         1 UNK         0.0600 
    228 H228       -3.0208  -21.7435  -59.5766 H         1 UNK         0.0600 
    229 H229       -2.0699  -20.8923  -58.3638 H         1 UNK         0.0600 
    230 H230       -5.1312  -22.6075  -55.6850 H         1 UNK         0.3000 
    231 H231       -6.8953  -21.5912  -54.8174 H         1 UNK         0.0600 
    232 H232       -7.5556  -20.7066  -57.6776 H         1 UNK         0.0600 
    233 H233       -8.6793  -20.7834  -56.3275 H         1 UNK         0.0600 
    234 H234       -7.9772  -22.2621  -56.9627 H         1 UNK         0.0600 
    235 H235       -4.7444  -20.2655  -54.1952 H         1 UNK         0.3000 
    236 H236       -4.8284  -17.4116  -54.7637 H         1 UNK         0.0600 
    237 H237       -2.6981  -18.6134  -54.2175 H         1 UNK         0.0600 
    238 H238       -3.0261  -17.3630  -53.0251 H         1 UNK         0.0600 
    239 H239       -3.3443  -19.0467  -52.6364 H         1 UNK         0.0600 
    240 H240       -5.1938  -15.8276  -53.1678 H         1 UNK         0.3000 
    241 H241       -6.4110  -14.6249  -51.8909 H         1 UNK         0.0600 
    242 H242       -8.1211  -17.5438  -52.4511 H         1 UNK         0.3800 
    243 H243       -9.6779  -16.8997  -51.9569 H         1 UNK         0.3800 
    244 H244       -4.7416  -15.3627  -50.3127 H         1 UNK         0.0800 
    245 H245       -6.2082  -14.9235  -49.4992 H         1 UNK         0.0800 
    246 H246       -4.2480  -16.2047  -47.7894 H         1 UNK         0.0800 
    247 H247       -4.2814  -17.9329  -47.5316 H         1 UNK         0.0800 
@<TRIPOS>BOND
     1    1    2 1    
     2    1  127 1    
     3    1  128 1    
     4    1  129 1    
     5    2    3 2    
     6    2    4 am   BACKBONE|DICT|INTERRES
     7    4    5 1    
     8    4  130 1    
     9    5    6 1    
    10    5   65 1    
    11    5  131 1    
    12    6    7 1    
    13    6  132 1    
    14    6  133 1    
    15    7    8 1    
    16    8    9 1    
    17    8  134 1    
    18    8  135 1    
    19    9   10 ar   
    20    9   14 ar   
    21   10   11 ar   
    22   10  136 1    
    23   11   12 ar   
    24   11  126 1    
    25   12   13 ar   
    26   12  137 1    
    27   13   14 ar   
    28   13   15 1    
    29   14  138 1    
    30   15   16 1    
    31   15  139 1    
    32   15  140 1    
    33   16   17 1    
    34   17   18 1    
    35   17  141 1    
    36   17  142 1    
    37   18   19 1    
    38   18   67 1    
    39   18  143 1    
    40   19   20 am   BACKBONE|DICT|INTERRES
    41   19  144 1    
    42   20   21 2    
    43   20   22 1    
    44   22   23 1    
    45   22   24 1    
    46   22  145 1    
    47   23  146 1    
    48   23  147 1    
    49   23  148 1    
    50   24   25 am   BACKBONE|DICT|INTERRES
    51   24  149 1    
    52   25   26 2    
    53   25   27 1    
    54   27   28 1    
    55   27   29 1    
    56   27  150 1    
    57   28  151 1    
    58   28  152 1    
    59   28  153 1    
    60   29   30 am   BACKBONE|DICT|INTERRES
    61   29  154 1    
    62   30   31 2    
    63   30   32 1    
    64   32   33 1    
    65   32   34 1    
    66   32  155 1    
    67   33  156 1    
    68   33  157 1    
    69   33  158 1    
    70   34   35 am   BACKBONE|DICT|INTERRES
    71   34  159 1    
    72   35   36 2    
    73   35   37 1    
    74   37   38 1    
    75   37   39 1    
    76   37  160 1    
    77   38  161 1    
    78   38  162 1    
    79   38  163 1    
    80   39   40 am   BACKBONE|DICT|INTERRES
    81   39  164 1    
    82   40   41 2    
    83   40   42 1    
    84   42   43 1    
    85   42   44 1    
    86   42  165 1    
    87   43  166 1    
    88   43  167 1    
    89   43  168 1    
    90   44   45 am   BACKBONE|DICT|INTERRES
    91   44  169 1    
    92   45   46 2    
    93   45   47 1    
    94   47   48 1    
    95   47   49 1    
    96   47  170 1    
    97   48  171 1    
    98   48  172 1    
    99   48  173 1    
   100   49   50 am   BACKBONE|DICT|INTERRES
   101   49  174 1    
   102   50   51 2    
   103   50   52 1    
   104   52   53 1    
   105   52   54 1    
   106   52  175 1    
   107   53  176 1    
   108   53  177 1    
   109   53  178 1    
   110   54   55 am   BACKBONE|DICT|INTERRES
   111   54  179 1    
   112   55   56 2    
   113   55   57 1    
   114   57   58 1    
   115   57   59 1    
   116   57  180 1    
   117   58  181 1    
   118   58  182 1    
   119   58  183 1    
   120   59   60 am   BACKBONE|DICT|INTERRES
   121   59  184 1    
   122   60   61 2    
   123   60   62 1    
   124   62   63 1    
   125   62   64 1    
   126   62  185 1    
   127   63  186 1    
   128   63  187 1    
   129   63  188 1    
   130   64   65 am   BACKBONE|DICT|INTERRES
   131   64  189 1    
   132   65   66 2    
   133   67   68 2    
   134   67   69 am   BACKBONE|DICT|INTERRES
   135   69   70 1    
   136   69  190 1    
   137   70   71 1    
   138   70   72 1    
   139   70  191 1    
   140   71  192 1    
   141   71  193 1    
   142   71  194 1    
   143   72   73 2    
   144   72   74 am   BACKBONE|DICT|INTERRES
   145   74   75 1    
   146   74  195 1    
   147   75   76 1    
   148   75   77 1    
   149   75  196 1    
   150   76  197 1    
   151   76  198 1    
   152   76  199 1    
   153   77   78 2    
   154   77   79 am   BACKBONE|DICT|INTERRES
   155   79   80 1    
   156   79  200 1    
   157   80   81 1    
   158   80   82 1    
   159   80  201 1    
   160   81  202 1    
   161   81  203 1    
   162   81  204 1    
   163   82   83 2    
   164   82   84 am   BACKBONE|DICT|INTERRES
   165   84   85 1    
   166   84  205 1    
   167   85   86 1    
   168   85   87 1    
   169   85  206 1    
   170   86  207 1    
   171   86  208 1    
   172   86  209 1    
   173   87   88 2    
   174   87   89 am   BACKBONE|DICT|INTERRES
   175   89   90 1    
   176   89  210 1    
   177   90   91 1    
   178   90   92 1    
   179   90  211 1    
   180   91  212 1    
   181   91  213 1    
   182   91  214 1    
   183   92   93 2    
   184   92   94 am   BACKBONE|DICT|INTERRES
   185   94   95 1    
   186   94  215 1    
   187   95   96 1    
   188   95   97 1    
   189   95  216 1    
   190   96  217 1    
   191   96  218 1    
   192   96  219 1    
   193   97   98 2    
   194   97   99 am   BACKBONE|DICT|INTERRES
   195   99  100 1    
   196   99  220 1    
   197  100  101 1    
   198  100  102 1    
   199  100  221 1    
   200  101  222 1    
   201  101  223 1    
   202  101  224 1    
   203  102  103 2    
   204  102  104 am   BACKBONE|DICT|INTERRES
   205  104  105 1    
   206  104  225 1    
   207  105  106 1    
   208  105  107 1    
   209  105  226 1    
   210  106  227 1    
   211  106  228 1    
   212  106  229 1    
   213  107  108 2    
   214  107  109 am   BACKBONE|DICT|INTERRES
   215  109  110 1    
   216  109  230 1    
   217  110  111 1    
   218  110  112 1    
   219  110  231 1    
   220  111  232 1    
   221  111  233 1    
   222  111  234 1    
   223  112  113 2    
   224  112  114 am   BACKBONE|DICT|INTERRES
   225  114  115 1    
   226  114  235 1    
   227  115  116 1    
   228  115  117 1    
   229  115  236 1    
   230  116  237 1    
   231  116  238 1    
   232  116  239 1    
   233  117  118 2    
   234  117  119 am   BACKBONE|DICT|INTERRES
   235  119  120 1    
   236  119  240 1    
   237  120  121 1    
   238  120  124 1    
   239  120  241 1    
   240  121  122 am   BACKBONE|DICT|INTERRES
   241  121  123 2    
   242  122  242 1    
   243  122  243 1    
   244  124  125 1    
   245  124  244 1    
   246  124  245 1    
   247  125  126 1    
   248  126  246 1    
   249  126  247 1    
@<TRIPOS>SUBSTRUCTURE
     1 UNK         1 GROUP             0       ****    0 ROOT    
