@<TRIPOS>MOLECULE
3R540
247   249    1
SMALL
USER_CHARGES


@<TRIPOS>ATOM
      1 CA          1.6837  -10.5585  -51.9799 C.3       0 UNK        -0.1800 
      2 C           2.3010  -10.5944  -50.5888 C.2       0 UNK         0.5000 
      3 O           2.7661   -9.5658  -50.0965 O.2       0 UNK        -0.5000 
      4 N           2.3138  -11.7747  -49.9599 N.am      1 UNK        -0.5000 
      5 CA          2.7809  -11.9937  -48.5885 C.3       1 UNK         0.1400 
      6 C6          3.1824  -13.4729  -48.3455 C.3       23 UNK        -0.0398 
      7 S7          1.8822  -14.7001  -48.7304 S.3       23 UNK        -0.2404 
      8 C8          2.4982  -15.3797  -50.3015 C.3       23 UNK        -0.0205 
      9 C9          1.5999  -16.4967  -50.8060 C.ar      23 UNK        -0.0193 
     10 C10         0.5068  -16.2113  -51.6305 C.ar      23 UNK        -0.1150 
     11 C11        -0.3159  -17.2410  -52.0986 C.ar      23 UNK        -0.0193 
     12 C12        -0.0367  -18.5618  -51.7351 C.ar      23 UNK        -0.1150 
     13 C13         1.0379  -18.8566  -50.8927 C.ar      23 UNK        -0.0193 
     14 C14         1.8624  -17.8206  -50.4446 C.ar      23 UNK        -0.1150 
     15 C15         1.2822  -20.2901  -50.4410 C.3       23 UNK        -0.0205 
     16 S16         1.2216  -20.4592  -48.6273 S.3       23 UNK        -0.2404 
     17 C17        -0.4253  -19.7845  -48.2200 C.3       23 UNK        -0.0398 
     18 CA         -1.3447  -20.8283  -47.5507 C.3       11 UNK         0.1400 
     19 N          -0.7972  -21.3321  -46.2933 N.am      11 UNK        -0.5000 
     20 C          -1.1027  -22.5012  -45.7220 C.2       10 UNK         0.5000 
     21 O          -1.8521  -23.3313  -46.2428 O.2       10 UNK        -0.5000 
     22 CA         -0.4915  -22.7605  -44.3278 C.3       10 UNK         0.1400 
     23 CB         -0.3221  -24.2618  -44.0197 C.3       10 UNK        -0.1800 
     24 N           0.7510  -22.0110  -44.0931 N.am      10 UNK        -0.5000 
     25 C           1.9357  -22.1744  -44.7043 C.2       9 UNK         0.5000 
     26 O           2.1731  -23.0745  -45.5079 O.2       9 UNK        -0.5000 
     27 CA          3.0490  -21.1532  -44.3901 C.3       9 UNK         0.1400 
     28 CB          3.2926  -20.2421  -45.6031 C.3       9 UNK        -0.1800 
     29 N           2.7695  -20.3109  -43.2271 N.am      9 UNK        -0.5000 
     30 C           2.8621  -20.7059  -41.9511 C.2       8 UNK         0.5000 
     31 O           3.2419  -21.8253  -41.6061 O.2       8 UNK        -0.5000 
     32 CA          2.4207  -19.6870  -40.8824 C.3       8 UNK         0.1400 
     33 CB          3.5795  -18.7477  -40.5159 C.3       8 UNK        -0.1800 
     34 N           1.2567  -18.8930  -41.2875 N.am      8 UNK        -0.5000 
     35 C           0.0423  -19.4002  -41.5459 C.2       7 UNK         0.5000 
     36 O          -0.2313  -20.5977  -41.4660 O.2       7 UNK        -0.5000 
     37 CA         -1.0374  -18.4170  -42.0242 C.3       7 UNK         0.1400 
     38 CB         -1.6054  -17.6019  -40.8535 C.3       7 UNK        -0.1800 
     39 N          -0.5463  -17.5190  -43.0691 N.am      7 UNK        -0.5000 
     40 C          -0.2070  -17.9105  -44.3047 C.2       6 UNK         0.5000 
     41 O          -0.3659  -19.0583  -44.7190 O.2       6 UNK        -0.5000 
     42 CA          0.4285  -16.8602  -45.2330 C.3       6 UNK         0.1400 
     43 CB         -0.6558  -16.0490  -45.9557 C.3       6 UNK        -0.1800 
     44 N           1.3324  -15.9543  -44.5272 N.am      6 UNK        -0.5000 
     45 C           2.4584  -16.3323  -43.9066 C.2       5 UNK         0.5000 
     46 O           2.8782  -17.4885  -43.8913 O.2       5 UNK        -0.5000 
     47 CA          3.2060  -15.2455  -43.1177 C.3       5 UNK         0.1400 
     48 CB          4.0469  -14.3598  -44.0504 C.3       5 UNK        -0.1800 
     49 N           2.2861  -14.4167  -42.3389 N.am      5 UNK        -0.5000 
     50 C           1.5961  -14.8501  -41.2741 C.2       4 UNK         0.5000 
     51 O           1.6918  -15.9877  -40.8134 O.2       4 UNK        -0.5000 
     52 CA          0.6027  -13.8558  -40.6455 C.3       4 UNK         0.1400 
     53 CB          1.3255  -12.9025  -39.6824 C.3       4 UNK        -0.1800 
     54 N          -0.1215  -13.0751  -41.6501 N.am      4 UNK        -0.5000 
     55 C          -1.0134  -13.5910  -42.5078 C.2       3 UNK         0.5000 
     56 O          -1.3446  -14.7752  -42.5182 O.2       3 UNK        -0.5000 
     57 CA         -1.5949  -12.6331  -43.5645 C.3       3 UNK         0.1400 
     58 CB         -2.8119  -11.8835  -43.0027 C.3       3 UNK        -0.1800 
     59 N          -0.6201  -11.6661  -44.0800 N.am      3 UNK        -0.5000 
     60 C           0.5131  -11.9962  -44.7130 C.2       2 UNK         0.5000 
     61 O           0.8870  -13.1589  -44.8801 O.2       2 UNK        -0.5000 
     62 CA          1.4043  -10.8330  -45.1846 C.3       2 UNK         0.1400 
     63 CB          2.3305  -10.3835  -44.0434 C.3       2 UNK        -0.1800 
     64 N           2.2271  -11.2094  -46.3350 N.am      2 UNK        -0.5000 
     65 C           1.7488  -11.4895  -47.5547 C.2       1 UNK         0.5000 
     66 O           0.5601  -11.3677  -47.8666 O.2       1 UNK        -0.5000 
     67 C          -2.7415  -20.2330  -47.3084 C.2       11 UNK         0.5000 
     68 O          -3.6558  -20.5053  -48.0840 O.2       11 UNK        -0.5000 
     69 N          -2.9031  -19.4876  -46.2025 N.am      12 UNK        -0.5000 
     70 CA         -4.1861  -18.9156  -45.7718 C.3       12 UNK         0.1400 
     71 CB         -3.9465  -17.8713  -44.6718 C.3       12 UNK        -0.1800 
     72 C          -5.1862  -19.9873  -45.2933 C.2       12 UNK         0.5000 
     73 O          -6.3955  -19.7677  -45.3568 O.2       12 UNK        -0.5000 
     74 N          -4.6590  -21.1433  -44.8662 N.am      13 UNK        -0.5000 
     75 CA         -5.4141  -22.3593  -44.5587 C.3       13 UNK         0.1400 
     76 CB         -4.5526  -23.2480  -43.6458 C.3       13 UNK        -0.1800 
     77 C          -5.8429  -23.1375  -45.8230 C.2       13 UNK         0.5000 
     78 O          -6.5647  -24.1267  -45.6989 O.2       13 UNK        -0.5000 
     79 N          -5.3713  -22.6998  -47.0023 N.am      14 UNK        -0.5000 
     80 CA         -5.5818  -23.2614  -48.3405 C.3       14 UNK         0.1400 
     81 CB         -7.0794  -23.3092  -48.7044 C.3       14 UNK        -0.1800 
     82 C          -4.8758  -24.6102  -48.5830 C.2       14 UNK         0.5000 
     83 O          -5.0819  -25.2094  -49.6379 O.2       14 UNK        -0.5000 
     84 N          -4.0364  -25.0563  -47.6393 N.am      15 UNK        -0.5000 
     85 CA         -3.3087  -26.3200  -47.7117 C.3       15 UNK         0.1400 
     86 CB         -2.8794  -26.7499  -46.2997 C.3       15 UNK        -0.1800 
     87 C          -2.1050  -26.2101  -48.6576 C.2       15 UNK         0.5000 
     88 O          -2.0174  -26.9649  -49.6262 O.2       15 UNK        -0.5000 
     89 N          -1.2200  -25.2421  -48.3849 N.am      16 UNK        -0.5000 
     90 CA         -0.0122  -24.9959  -49.1776 C.3       16 UNK         0.1400 
     91 CB          1.0044  -24.2262  -48.3279 C.3       16 UNK        -0.1800 
     92 C          -0.3024  -24.2519  -50.4933 C.2       16 UNK         0.5000 
     93 O           0.4625  -24.3878  -51.4480 O.2       16 UNK        -0.5000 
     94 N          -1.4126  -23.5022  -50.5297 N.am      17 UNK        -0.5000 
     95 CA         -1.9122  -22.8213  -51.7256 C.3       17 UNK         0.1400 
     96 CB         -2.7188  -21.5857  -51.2951 C.3       17 UNK        -0.1800 
     97 C          -2.7692  -23.7385  -52.6212 C.2       17 UNK         0.5000 
     98 O          -3.1383  -23.3244  -53.7217 O.2       17 UNK        -0.5000 
     99 N          -3.1240  -24.9350  -52.1240 N.am      18 UNK        -0.5000 
    100 CA        -3.9485  -25.9701  -52.7671 C.3       18 UNK         0.1400 
    101 CB        -3.1710  -26.6049  -53.9381 C.3       18 UNK        -0.1800 
    102 C         -5.3551  -25.4900  -53.1968 C.2       18 UNK         0.5000 
    103 O         -5.9653  -26.0949  -54.0798 O.2       18 UNK        -0.5000 
    104 N         -5.8203  -24.3879  -52.5880 N.am      19 UNK        -0.5000 
    105 CA        -7.0125  -23.6038  -52.9251 C.3       19 UNK         0.1400 
    106 CB        -8.2913  -24.4017  -52.5941 C.3       19 UNK        -0.1800 
    107 C         -7.0073  -23.0615  -54.3752 C.2       19 UNK         0.5000 
    108 O         -8.0810  -22.8432  -54.9402 O.2       19 UNK        -0.5000 
    109 N         -5.8147  -22.8665  -54.9603 N.am      20 UNK        -0.5000 
    110 CA        -5.6437  -22.5392  -56.3770 C.3       20 UNK         0.1400 
    111 CB        -5.3470  -23.8298  -57.1588 C.3       20 UNK        -0.1800 
    112 C         -4.5507  -21.4918  -56.6363 C.2       20 UNK         0.5000 
    113 O         -4.7205  -20.6735  -57.5418 O.2       20 UNK        -0.5000 
    114 N         -3.4544  -21.5165  -55.8618 N.am      21 UNK        -0.5000 
    115 CA        -2.2578  -20.6927  -56.0843 C.3       21 UNK         0.1400 
    116 CB        -1.1704  -21.0845  -55.0726 C.3       21 UNK        -0.1800 
    117 C         -2.5065  -19.1746  -56.0226 C.2       21 UNK         0.5000 
    118 O         -1.8279  -18.4199  -56.7203 O.2       21 UNK        -0.5000 
    119 N         -3.4751  -18.7631  -55.1974 N.am      22 UNK        -0.5000 
    120 CA        -3.9122  -17.3667  -55.0461 C.3       22 UNK         0.1400 
    121 C         -5.0318  -16.9492  -56.0465 C.2       22 UNK         0.5000 
    122 N         -5.4755  -17.8057  -56.9604 N.am      22 UNK        -0.7600 
    123 O         -5.5025  -15.8158  -56.0032 O.2       22 UNK        -0.5000 
    124 C124       -4.3058  -17.0420  -53.5786 C.3       23 UNK        -0.0398 
    125 S125       -3.0757  -17.5004  -52.3008 S.3       23 UNK        -0.2404 
    126 C126       -1.4927  -16.9372  -53.0138 C.3       23 UNK        -0.0205 
    127 H127        1.3277  -11.5410  -52.2912 H         1 UNK         0.0600 
    128 H128        0.8390   -9.8698  -51.9976 H         1 UNK         0.0600 
    129 H129        2.4190  -10.2170  -52.7085 H         1 UNK         0.0600 
    130 H130        1.8648  -12.5706  -50.3882 H         1 UNK         0.3000 
    131 H131        3.6829  -11.3931  -48.4501 H         1 UNK         0.0600 
    132 H132        3.4865  -13.6214  -47.3081 H         1 UNK         0.0800 
    133 H133        4.0712  -13.7014  -48.9348 H         1 UNK         0.0800 
    134 H134        3.5128  -15.7562  -50.1617 H         1 UNK         0.0800 
    135 H135        2.5636  -14.5870  -51.0479 H         1 UNK         0.0800 
    136 H136        0.2996  -15.1872  -51.9076 H         1 UNK         0.1150 
    137 H137       -0.6752  -19.3566  -52.0935 H         1 UNK         0.1150 
    138 H138        2.6950  -18.0445  -49.7923 H         1 UNK         0.1150 
    139 H139        0.5529  -20.9710  -50.8821 H         1 UNK         0.0800 
    140 H140        2.2614  -20.6143  -50.7952 H         1 UNK         0.0800 
    141 H141       -0.8996  -19.3991  -49.1230 H         1 UNK         0.0800 
    142 H142       -0.2778  -18.9218  -47.5692 H         1 UNK         0.0800 
    143 H143       -1.4592  -21.6665  -48.2405 H         1 UNK         0.0600 
    144 H144       -0.2301  -20.6779  -45.7635 H         1 UNK         0.3000 
    145 H145       -1.2107  -22.3627  -43.6108 H         1 UNK         0.0600 
    146 H146        0.1605  -24.4148  -43.0545 H         1 UNK         0.0600 
    147 H147       -1.2905  -24.7606  -43.9783 H         1 UNK         0.0600 
    148 H148        0.2730  -24.7693  -44.7794 H         1 UNK         0.0600 
    149 H149        0.6712  -21.2501  -43.4301 H         1 UNK         0.3000 
    150 H150        3.9643  -21.7169  -44.1986 H         1 UNK         0.0600 
    151 H151        3.5338  -20.8259  -46.4923 H         1 UNK         0.0600 
    152 H152        4.1261  -19.5624  -45.4259 H         1 UNK         0.0600 
    153 H153        2.4130  -19.6396  -45.8334 H         1 UNK         0.0600 
    154 H154        2.5281  -19.3423  -43.4190 H         1 UNK         0.3000 
    155 H155        2.1428  -20.2480  -39.9878 H         1 UNK         0.0600 
    156 H156        3.8817  -18.1320  -41.3634 H         1 UNK         0.0600 
    157 H157        4.4538  -19.3129  -40.1910 H         1 UNK         0.0600 
    158 H158        3.3022  -18.0800  -39.7000 H         1 UNK         0.0600 
    159 H159        1.3933  -17.8884  -41.3483 H         1 UNK         0.3000 
    160 H160       -1.8494  -19.0145  -42.4406 H         1 UNK         0.0600 
    161 H161       -2.4399  -16.9800  -41.1779 H         1 UNK         0.0600 
    162 H162       -0.8532  -16.9476  -40.4128 H         1 UNK         0.0600 
    163 H163       -1.9759  -18.2567  -40.0640 H         1 UNK         0.0600 
    164 H164       -0.4763  -16.5354  -42.8285 H         1 UNK         0.3000 
    165 H165        1.0153  -17.3915  -45.9851 H         1 UNK         0.0600 
    166 H166       -0.2159  -15.3190  -46.6348 H         1 UNK         0.0600 
    167 H167       -1.3007  -16.6978  -46.5495 H         1 UNK         0.0600 
    168 H168       -1.2877  -15.5069  -45.2521 H         1 UNK         0.0600 
    169 H169        1.0858  -14.9668  -44.5308 H         1 UNK         0.3000 
    170 H170        3.8852  -15.7445  -42.4231 H         1 UNK         0.0600 
    171 H171        4.7611  -14.9603  -44.6153 H         1 UNK         0.0600 
    172 H172        3.4296  -13.8245  -44.7712 H         1 UNK         0.0600 
    173 H173        4.6173  -13.6228  -43.4852 H         1 UNK         0.0600 
    174 H174        2.0991  -13.4910  -42.6931 H         1 UNK         0.3000 
    175 H175       -0.1265  -14.4320  -40.0718 H         1 UNK         0.0600 
    176 H176        0.6192  -12.2462  -39.1736 H         1 UNK         0.0600 
    177 H177        1.8624  -13.4591  -38.9130 H         1 UNK         0.0600 
    178 H178        2.0519  -12.2763  -40.2020 H         1 UNK         0.0600 
    179 H179        0.0931  -12.0910  -41.7105 H         1 UNK         0.3000 
    180 H180       -1.9308  -13.2414  -44.4066 H         1 UNK         0.0600 
    181 H181       -2.5355  -11.2259  -42.1776 H         1 UNK         0.0600 
    182 H182       -3.5619  -12.5820  -42.6291 H         1 UNK         0.0600 
    183 H183       -3.2905  -11.2761  -43.7712 H         1 UNK         0.0600 
    184 H184       -0.8524  -10.6899  -43.9659 H         1 UNK         0.3000 
    185 H185        0.7663   -9.9959  -45.4758 H         1 UNK         0.0600 
    186 H186        2.9954  -11.1869  -43.7229 H         1 UNK         0.0600 
    187 H187        2.9486   -9.5384  -44.3471 H         1 UNK         0.0600 
    188 H188        1.7564  -10.0655  -43.1722 H         1 UNK         0.0600 
    189 H189        3.2099  -11.3439  -46.1505 H         1 UNK         0.3000 
    190 H190       -2.0999  -19.3289  -45.6026 H         1 UNK         0.3000 
    191 H191       -4.6338  -18.4079  -46.6289 H         1 UNK         0.0600 
    192 H192       -3.2611  -17.0921  -45.0021 H         1 UNK         0.0600 
    193 H193       -3.5375  -18.3236  -43.7703 H         1 UNK         0.0600 
    194 H194       -4.8800  -17.3811  -44.3926 H         1 UNK         0.0600 
    195 H195       -3.6543  -21.2216  -44.8443 H         1 UNK         0.3000 
    196 H196       -6.3212  -22.0844  -44.0165 H         1 UNK         0.0600 
    197 H197       -5.1066  -24.1310  -43.3247 H         1 UNK         0.0600 
    198 H198       -4.2477  -22.7140  -42.7456 H         1 UNK         0.0600 
    199 H199       -3.6525  -23.5961  -44.1525 H         1 UNK         0.0600 
    200 H200       -4.7875  -21.8721  -46.9969 H         1 UNK         0.3000 
    201 H201       -5.1122  -22.5586  -49.0278 H         1 UNK         0.0600 
    202 H202       -7.5592  -22.3462  -48.5301 H         1 UNK         0.0600 
    203 H203       -7.6158  -24.0631  -48.1280 H         1 UNK         0.0600 
    204 H204       -7.2161  -23.5512  -49.7581 H         1 UNK         0.0600 
    205 H205       -3.8576  -24.4736  -46.8333 H         1 UNK         0.3000 
    206 H206       -3.9782  -27.0881  -48.1053 H         1 UNK         0.0600 
    207 H207       -3.7446  -26.8812  -45.6497 H         1 UNK         0.0600 
    208 H208       -2.3458  -27.7007  -46.3274 H         1 UNK         0.0600 
    209 H209       -2.2207  -26.0182  -45.8325 H         1 UNK         0.0600 
    210 H210       -1.3811  -24.6399  -47.5816 H         1 UNK         0.3000 
    211 H211        0.4346  -25.9575  -49.4394 H         1 UNK         0.0600 
    212 H212        0.6102  -23.2654  -48.0024 H         1 UNK         0.0600 
    213 H213        1.9206  -24.0314  -48.8864 H         1 UNK         0.0600 
    214 H214        1.2796  -24.7927  -47.4384 H         1 UNK         0.0600 
    215 H215       -1.9834  -23.4570  -49.6994 H         1 UNK         0.3000 
    216 H216       -1.0651  -22.4819  -52.3244 H         1 UNK         0.0600 
    217 H217       -3.0789  -21.0264  -52.1596 H         1 UNK         0.0600 
    218 H218       -2.1106  -20.9024  -50.7037 H         1 UNK         0.0600 
    219 H219       -3.5891  -21.8579  -50.6988 H         1 UNK         0.0600 
    220 H220       -2.7911  -25.1787  -51.2018 H         1 UNK         0.3000 
    221 H221       -4.1092  -26.7421  -52.0131 H         1 UNK         0.0600 
    222 H222       -3.0301  -25.8992  -54.7577 H         1 UNK         0.0600 
    223 H223       -2.1871  -26.9474  -53.6173 H         1 UNK         0.0600 
    224 H224       -3.6988  -27.4711  -54.3386 H         1 UNK         0.0600 
    225 H225       -5.2503  -24.0191  -51.8408 H         1 UNK         0.3000 
    226 H226       -6.9921  -22.7274  -52.2761 H         1 UNK         0.0600 
    227 H227       -8.2624  -24.7948  -51.5781 H         1 UNK         0.0600 
    228 H228       -8.4282  -25.2438  -53.2729 H         1 UNK         0.0600 
    229 H229       -9.1780  -23.7716  -52.6718 H         1 UNK         0.0600 
    230 H230       -4.9713  -23.0649  -54.4321 H         1 UNK         0.3000 
    231 H231       -6.5669  -22.1115  -56.7736 H         1 UNK         0.0600 
    232 H232       -6.1697  -24.5399  -57.0716 H         1 UNK         0.0600 
    233 H233       -4.4440  -24.3204  -56.7929 H         1 UNK         0.0600 
    234 H234       -5.2055  -23.6239  -58.2205 H         1 UNK         0.0600 
    235 H235       -3.3747  -22.2186  -55.1299 H         1 UNK         0.3000 
    236 H236       -1.8880  -20.9219  -57.0857 H         1 UNK         0.0600 
    237 H237       -0.2434  -20.5430  -55.2655 H         1 UNK         0.0600 
    238 H238       -1.4760  -20.8524  -54.0528 H         1 UNK         0.0600 
    239 H239       -0.9419  -22.1491  -55.1255 H         1 UNK         0.0600 
    240 H240       -3.9868  -19.4549  -54.6706 H         1 UNK         0.3000 
    241 H241       -3.0758  -16.7145  -55.3007 H         1 UNK         0.0600 
    242 H242       -6.1958  -17.5106  -57.6005 H         1 UNK         0.3800 
    243 H243       -5.0884  -18.7390  -57.0448 H         1 UNK         0.3800 
    244 H244       -4.5027  -15.9740  -53.4721 H         1 UNK         0.0800 
    245 H245       -5.2404  -17.5448  -53.3249 H         1 UNK         0.0800 
    246 H246       -1.5568  -15.8687  -53.2248 H         1 UNK         0.0800 
    247 H247       -1.3071  -17.4358  -53.9640 H         1 UNK         0.0800 
@<TRIPOS>BOND
     1    1    2 1    
     2    1  127 1    
     3    1  128 1    
     4    1  129 1    
     5    2    3 2    
     6    2    4 am   BACKBONE|DICT|INTERRES
     7    4    5 1    
     8    4  130 1    
     9    5    6 1    
    10    5   65 1    
    11    5  131 1    
    12    6    7 1    
    13    6  132 1    
    14    6  133 1    
    15    7    8 1    
    16    8    9 1    
    17    8  134 1    
    18    8  135 1    
    19    9   10 ar   
    20    9   14 ar   
    21   10   11 ar   
    22   10  136 1    
    23   11   12 ar   
    24   11  126 1    
    25   12   13 ar   
    26   12  137 1    
    27   13   14 ar   
    28   13   15 1    
    29   14  138 1    
    30   15   16 1    
    31   15  139 1    
    32   15  140 1    
    33   16   17 1    
    34   17   18 1    
    35   17  141 1    
    36   17  142 1    
    37   18   19 1    
    38   18   67 1    
    39   18  143 1    
    40   19   20 am   BACKBONE|DICT|INTERRES
    41   19  144 1    
    42   20   21 2    
    43   20   22 1    
    44   22   23 1    
    45   22   24 1    
    46   22  145 1    
    47   23  146 1    
    48   23  147 1    
    49   23  148 1    
    50   24   25 am   BACKBONE|DICT|INTERRES
    51   24  149 1    
    52   25   26 2    
    53   25   27 1    
    54   27   28 1    
    55   27   29 1    
    56   27  150 1    
    57   28  151 1    
    58   28  152 1    
    59   28  153 1    
    60   29   30 am   BACKBONE|DICT|INTERRES
    61   29  154 1    
    62   30   31 2    
    63   30   32 1    
    64   32   33 1    
    65   32   34 1    
    66   32  155 1    
    67   33  156 1    
    68   33  157 1    
    69   33  158 1    
    70   34   35 am   BACKBONE|DICT|INTERRES
    71   34  159 1    
    72   35   36 2    
    73   35   37 1    
    74   37   38 1    
    75   37   39 1    
    76   37  160 1    
    77   38  161 1    
    78   38  162 1    
    79   38  163 1    
    80   39   40 am   BACKBONE|DICT|INTERRES
    81   39  164 1    
    82   40   41 2    
    83   40   42 1    
    84   42   43 1    
    85   42   44 1    
    86   42  165 1    
    87   43  166 1    
    88   43  167 1    
    89   43  168 1    
    90   44   45 am   BACKBONE|DICT|INTERRES
    91   44  169 1    
    92   45   46 2    
    93   45   47 1    
    94   47   48 1    
    95   47   49 1    
    96   47  170 1    
    97   48  171 1    
    98   48  172 1    
    99   48  173 1    
   100   49   50 am   BACKBONE|DICT|INTERRES
   101   49  174 1    
   102   50   51 2    
   103   50   52 1    
   104   52   53 1    
   105   52   54 1    
   106   52  175 1    
   107   53  176 1    
   108   53  177 1    
   109   53  178 1    
   110   54   55 am   BACKBONE|DICT|INTERRES
   111   54  179 1    
   112   55   56 2    
   113   55   57 1    
   114   57   58 1    
   115   57   59 1    
   116   57  180 1    
   117   58  181 1    
   118   58  182 1    
   119   58  183 1    
   120   59   60 am   BACKBONE|DICT|INTERRES
   121   59  184 1    
   122   60   61 2    
   123   60   62 1    
   124   62   63 1    
   125   62   64 1    
   126   62  185 1    
   127   63  186 1    
   128   63  187 1    
   129   63  188 1    
   130   64   65 am   BACKBONE|DICT|INTERRES
   131   64  189 1    
   132   65   66 2    
   133   67   68 2    
   134   67   69 am   BACKBONE|DICT|INTERRES
   135   69   70 1    
   136   69  190 1    
   137   70   71 1    
   138   70   72 1    
   139   70  191 1    
   140   71  192 1    
   141   71  193 1    
   142   71  194 1    
   143   72   73 2    
   144   72   74 am   BACKBONE|DICT|INTERRES
   145   74   75 1    
   146   74  195 1    
   147   75   76 1    
   148   75   77 1    
   149   75  196 1    
   150   76  197 1    
   151   76  198 1    
   152   76  199 1    
   153   77   78 2    
   154   77   79 am   BACKBONE|DICT|INTERRES
   155   79   80 1    
   156   79  200 1    
   157   80   81 1    
   158   80   82 1    
   159   80  201 1    
   160   81  202 1    
   161   81  203 1    
   162   81  204 1    
   163   82   83 2    
   164   82   84 am   BACKBONE|DICT|INTERRES
   165   84   85 1    
   166   84  205 1    
   167   85   86 1    
   168   85   87 1    
   169   85  206 1    
   170   86  207 1    
   171   86  208 1    
   172   86  209 1    
   173   87   88 2    
   174   87   89 am   BACKBONE|DICT|INTERRES
   175   89   90 1    
   176   89  210 1    
   177   90   91 1    
   178   90   92 1    
   179   90  211 1    
   180   91  212 1    
   181   91  213 1    
   182   91  214 1    
   183   92   93 2    
   184   92   94 am   BACKBONE|DICT|INTERRES
   185   94   95 1    
   186   94  215 1    
   187   95   96 1    
   188   95   97 1    
   189   95  216 1    
   190   96  217 1    
   191   96  218 1    
   192   96  219 1    
   193   97   98 2    
   194   97   99 am   BACKBONE|DICT|INTERRES
   195   99  100 1    
   196   99  220 1    
   197  100  101 1    
   198  100  102 1    
   199  100  221 1    
   200  101  222 1    
   201  101  223 1    
   202  101  224 1    
   203  102  103 2    
   204  102  104 am   BACKBONE|DICT|INTERRES
   205  104  105 1    
   206  104  225 1    
   207  105  106 1    
   208  105  107 1    
   209  105  226 1    
   210  106  227 1    
   211  106  228 1    
   212  106  229 1    
   213  107  108 2    
   214  107  109 am   BACKBONE|DICT|INTERRES
   215  109  110 1    
   216  109  230 1    
   217  110  111 1    
   218  110  112 1    
   219  110  231 1    
   220  111  232 1    
   221  111  233 1    
   222  111  234 1    
   223  112  113 2    
   224  112  114 am   BACKBONE|DICT|INTERRES
   225  114  115 1    
   226  114  235 1    
   227  115  116 1    
   228  115  117 1    
   229  115  236 1    
   230  116  237 1    
   231  116  238 1    
   232  116  239 1    
   233  117  118 2    
   234  117  119 am   BACKBONE|DICT|INTERRES
   235  119  120 1    
   236  119  240 1    
   237  120  121 1    
   238  120  124 1    
   239  120  241 1    
   240  121  122 am   BACKBONE|DICT|INTERRES
   241  121  123 2    
   242  122  242 1    
   243  122  243 1    
   244  124  125 1    
   245  124  244 1    
   246  124  245 1    
   247  125  126 1    
   248  126  246 1    
   249  126  247 1    
@<TRIPOS>SUBSTRUCTURE
     1 UNK         1 GROUP             0       ****    0 ROOT    
