@<TRIPOS>MOLECULE
3R540
247   249    1
SMALL
USER_CHARGES


@<TRIPOS>ATOM
      1 CA         -2.3394  -13.3634  -44.4629 C.3       0 UNK        -0.1800 
      2 C          -1.7019  -12.5408  -45.5731 C.2       0 UNK         0.5000 
      3 O          -1.5204  -11.3331  -45.4135 O.2       0 UNK        -0.5000 
      4 N          -1.3574  -13.1891  -46.6937 N.am      1 UNK        -0.5000 
      5 CA         -0.6511  -12.6005  -47.8378 C.3       1 UNK         0.1400 
      6 C6         -0.4850  -13.6052  -49.0033 C.3       23 UNK        -0.0398 
      7 S7         -2.0947  -14.0395  -49.7461 S.3       23 UNK        -0.2404 
      8 C8         -2.0877  -15.8606  -49.6848 C.3       23 UNK        -0.0205 
      9 C9         -1.0675  -16.4795  -50.6322 C.ar      23 UNK        -0.0193 
     10 C10        -1.1418  -16.2383  -52.0082 C.ar      23 UNK        -0.1150 
     11 C11        -0.2168  -16.8120  -52.8864 C.ar      23 UNK        -0.0193 
     12 C12         0.7678  -17.6636  -52.3764 C.ar      23 UNK        -0.1150 
     13 C13         0.8404  -17.9333  -51.0069 C.ar      23 UNK        -0.0193 
     14 C14        -0.0673  -17.3213  -50.1372 C.ar      23 UNK        -0.1150 
     15 C15         1.9079  -18.8795  -50.4772 C.3       23 UNK        -0.0205 
     16 S16         1.2564  -20.5643  -50.2339 S.3       23 UNK        -0.2404 
     17 C17         0.7119  -20.4645  -48.5004 C.3       23 UNK        -0.0398 
     18 CA          0.2404  -21.8210  -47.9199 C.3       11 UNK         0.1400 
     19 N           0.4880  -21.9025  -46.4753 N.am      11 UNK        -0.5000 
     20 C           0.2651  -22.9753  -45.7019 C.2       10 UNK         0.5000 
     21 O          -0.1266  -24.0594  -46.1302 O.2       10 UNK        -0.5000 
     22 CA          0.4544  -22.7874  -44.1846 C.3       10 UNK         0.1400 
     23 CB          1.9334  -22.9102  -43.7898 C.3       10 UNK        -0.1800 
     24 N          -0.0802  -21.5082  -43.7151 N.am      10 UNK        -0.5000 
     25 C          -1.3791  -21.1759  -43.7513 C.2       9 UNK         0.5000 
     26 O          -2.2705  -21.9489  -44.1017 O.2       9 UNK        -0.5000 
     27 CA         -1.7344  -19.7188  -43.4043 C.3       9 UNK         0.1400 
     28 CB         -1.8059  -19.5058  -41.8849 C.3       9 UNK        -0.1800 
     29 N          -0.7881  -18.7724  -43.9965 N.am      9 UNK        -0.5000 
     30 C          -0.6787  -18.5410  -45.3128 C.2       8 UNK         0.5000 
     31 O          -1.4042  -19.0584  -46.1599 O.2       8 UNK        -0.5000 
     32 CA          0.4586  -17.6101  -45.7664 C.3       8 UNK         0.1400 
     33 CB         -0.0252  -16.1552  -45.8132 C.3       8 UNK        -0.1800 
     34 N           1.6400  -17.7097  -44.9109 N.am      8 UNK        -0.5000 
     35 C           2.4298  -18.7905  -44.8373 C.2       7 UNK         0.5000 
     36 O           2.2535  -19.8077  -45.5056 O.2       7 UNK        -0.5000 
     37 CA          3.5639  -18.7510  -43.7993 C.3       7 UNK         0.1400 
     38 CB          4.7424  -17.9118  -44.3136 C.3       7 UNK        -0.1800 
     39 N           3.1093  -18.2228  -42.5126 N.am      7 UNK        -0.5000 
     40 C           2.2240  -18.8354  -41.7123 C.2       6 UNK         0.5000 
     41 O           1.7296  -19.9357  -41.9559 O.2       6 UNK        -0.5000 
     42 CA          1.7440  -18.0377  -40.4945 C.3       6 UNK         0.1400 
     43 CB          2.8595  -17.8387  -39.4540 C.3       6 UNK        -0.1800 
     44 N           1.2474  -16.7558  -40.9757 N.am      6 UNK        -0.5000 
     45 C           0.3204  -15.9802  -40.4146 C.2       5 UNK         0.5000 
     46 O          -0.1911  -16.2168  -39.3190 O.2       5 UNK        -0.5000 
     47 CA         -0.1143  -14.7441  -41.2406 C.3       5 UNK         0.1400 
     48 CB         -1.0416  -13.8016  -40.4529 C.3       5 UNK        -0.1800 
     49 N           0.9923  -13.9508  -41.7925 N.am      5 UNK        -0.5000 
     50 C           1.8444  -14.3021  -42.7650 C.2       4 UNK         0.5000 
     51 O           1.8505  -15.4163  -43.2928 O.2       4 UNK        -0.5000 
     52 CA          2.8412  -13.2231  -43.2242 C.3       4 UNK         0.1400 
     53 CB          3.7977  -13.7270  -44.3193 C.3       4 UNK        -0.1800 
     54 N           2.1334  -12.0469  -43.7244 N.am      4 UNK        -0.5000 
     55 C           1.6953  -11.0283  -42.9710 C.2       3 UNK         0.5000 
     56 O           1.7998  -11.0165  -41.7430 O.2       3 UNK        -0.5000 
     57 CA          0.9988   -9.8479  -43.6847 C.3       3 UNK         0.1400 
     58 CB          1.4077   -8.4813  -43.0972 C.3       3 UNK        -0.1800 
     59 N           1.1413   -9.8658  -45.1456 N.am      3 UNK        -0.5000 
     60 C           2.2617   -9.7193  -45.8728 C.2       2 UNK         0.5000 
     61 O           3.3589   -9.4397  -45.3880 O.2       2 UNK        -0.5000 
     62 CA          2.1351   -9.9499  -47.3982 C.3       2 UNK         0.1400 
     63 CB          3.4275  -10.5250  -48.0154 C.3       2 UNK        -0.1800 
     64 N           0.9728  -10.7664  -47.7808 N.am      2 UNK        -0.5000 
     65 C           0.7138  -12.0278  -47.4039 C.2       1 UNK         0.5000 
     66 O           1.4661  -12.7077  -46.7025 O.2       1 UNK        -0.5000 
     67 C          -1.2388  -22.0938  -48.2681 C.2       11 UNK         0.5000 
     68 O          -1.5191  -22.8670  -49.1838 O.2       11 UNK        -0.5000 
     69 N          -2.1540  -21.4859  -47.4979 N.am      12 UNK        -0.5000 
     70 CA         -3.5943  -21.7109  -47.5731 C.3       12 UNK         0.1400 
     71 CB         -4.3364  -20.7005  -46.6861 C.3       12 UNK        -0.1800 
     72 C          -3.9750  -23.1590  -47.2341 C.2       12 UNK         0.5000 
     73 O          -4.6620  -23.7971  -48.0303 O.2       12 UNK        -0.5000 
     74 N          -3.4913  -23.6709  -46.0945 N.am      13 UNK        -0.5000 
     75 CA         -3.7331  -25.0404  -45.6286 C.3       13 UNK         0.1400 
     76 CB         -3.0896  -25.2298  -44.2471 C.3       13 UNK        -0.1800 
     77 C          -3.2436  -26.1246  -46.6095 C.2       13 UNK         0.5000 
     78 O          -3.9114  -27.1467  -46.7703 O.2       13 UNK        -0.5000 
     79 N          -2.1112  -25.8638  -47.2744 N.am      14 UNK        -0.5000 
     80 CA         -1.5218  -26.7187  -48.3045 C.3       14 UNK         0.1400 
     81 CB         -0.0635  -26.2870  -48.5277 C.3       14 UNK        -0.1800 
     82 C          -2.2881  -26.7189  -49.6439 C.2       14 UNK         0.5000 
     83 O          -2.0284  -27.5947  -50.4707 O.2       14 UNK        -0.5000 
     84 N          -3.1953  -25.7558  -49.8535 N.am      15 UNK        -0.5000 
     85 CA         -3.9236  -25.5577  -51.1039 C.3       15 UNK         0.1400 
     86 CB         -3.1980  -24.5073  -51.9600 C.3       15 UNK        -0.1800 
     87 C          -5.3973  -25.2202  -50.8279 C.2       15 UNK         0.5000 
     88 O          -5.9038  -24.1981  -51.2979 O.2       15 UNK        -0.5000 
     89 N          -6.0529  -26.1051  -50.0615 N.am      16 UNK        -0.5000 
     90 CA         -7.5039  -26.2065  -49.8454 C.3       16 UNK         0.1400 
     91 CB         -8.1824  -26.7027  -51.1396 C.3       16 UNK        -0.1800 
     92 C          -8.1831  -24.9381  -49.2825 C.2       16 UNK         0.5000 
     93 O          -9.3548  -24.6931  -49.5731 O.2       16 UNK        -0.5000 
     94 N          -7.4312  -24.1466  -48.5051 N.am      17 UNK        -0.5000 
     95 CA         -7.7877  -22.8459  -47.9233 C.3       17 UNK         0.1400 
     96 CB         -9.0326  -22.9450  -47.0175 C.3       17 UNK        -0.1800 
     97 C          -7.8999  -21.7019  -48.9553 C.2       17 UNK         0.5000 
     98 O          -8.2391  -20.5817  -48.5722 O.2       17 UNK        -0.5000 
     99 N          -7.5934  -21.9787  -50.2299 N.am      18 UNK        -0.5000 
    100 CA        -7.6192  -21.0108  -51.3260 C.3       18 UNK         0.1400 
    101 CB        -8.0607  -21.7333  -52.6092 C.3       18 UNK        -0.1800 
    102 C         -6.2516  -20.3392  -51.5400 C.2       18 UNK         0.5000 
    103 O         -6.1997  -19.2709  -52.1493 O.2       18 UNK        -0.5000 
    104 N         -5.1764  -20.9881  -51.0630 N.am      19 UNK        -0.5000 
    105 CA        -3.7656  -20.6142  -51.2407 C.3       19 UNK         0.1400 
    106 CB        -3.4442  -19.2624  -50.5726 C.3       19 UNK        -0.1800 
    107 C         -3.3023  -20.6876  -52.7092 C.2       19 UNK         0.5000 
    108 O         -2.3385  -20.0260  -53.0910 O.2       19 UNK        -0.5000 
    109 N         -3.9633  -21.5435  -53.5005 N.am      20 UNK        -0.5000 
    110 CA        -3.7314  -21.7835  -54.9276 C.3       20 UNK         0.1400 
    111 CB        -4.9882  -22.4568  -55.5079 C.3       20 UNK        -0.1800 
    112 C         -2.4415  -22.5795  -55.2436 C.2       20 UNK         0.5000 
    113 O         -2.3841  -23.2763  -56.2580 O.2       20 UNK        -0.5000 
    114 N         -1.4281  -22.4706  -54.3761 N.am      21 UNK        -0.5000 
    115 CA        -0.0847  -23.0079  -54.5780 C.3       21 UNK         0.1400 
    116 CB         0.6304  -23.0839  -53.2206 C.3       21 UNK        -0.1800 
    117 C          0.7210  -22.1502  -55.5721 C.2       21 UNK         0.5000 
    118 O          1.5524  -22.6881  -56.3048 O.2       21 UNK        -0.5000 
    119 N          0.4506  -20.8385  -55.5863 N.am      22 UNK        -0.5000 
    120 CA         0.9626  -19.8818  -56.5741 C.3       22 UNK         0.1400 
    121 C          0.2723  -20.0170  -57.9621 C.2       22 UNK         0.5000 
    122 N          0.9454  -19.6181  -59.0334 N.am      22 UNK        -0.7600 
    123 O         -0.8714  -20.4519  -58.0806 O.2       22 UNK        -0.5000 
    124 C124        0.9130  -18.4267  -56.0387 C.3       23 UNK        -0.0398 
    125 S125       -0.7236  -17.8902  -55.4183 S.3       23 UNK        -0.2404 
    126 C126       -0.2611  -16.4712  -54.3722 C.3       23 UNK        -0.0205 
    127 H127       -3.2964  -12.9287  -44.1748 H         1 UNK         0.0600 
    128 H128       -1.6892  -13.3701  -43.5888 H         1 UNK         0.0600 
    129 H129       -2.5129  -14.3954  -44.7685 H         1 UNK         0.0600 
    130 H130       -1.5438  -14.1768  -46.7659 H         1 UNK         0.3000 
    131 H131       -1.2647  -11.7698  -48.1934 H         1 UNK         0.0600 
    132 H132        0.1308  -13.1783  -49.7972 H         1 UNK         0.0800 
    133 H133        0.0337  -14.5048  -48.6672 H         1 UNK         0.0800 
    134 H134       -3.0793  -16.2198  -49.9624 H         1 UNK         0.0800 
    135 H135       -1.9235  -16.1896  -48.6583 H         1 UNK         0.0800 
    136 H136       -1.9142  -15.5861  -52.3909 H         1 UNK         0.1150 
    137 H137        1.4827  -18.1203  -53.0430 H         1 UNK         0.1150 
    138 H138       -0.0069  -17.5131  -49.0767 H         1 UNK         0.1150 
    139 H139        2.7403  -18.9310  -51.1807 H         1 UNK         0.0800 
    140 H140        2.3271  -18.4917  -49.5477 H         1 UNK         0.0800 
    141 H141       -0.0577  -19.6988  -48.4027 H         1 UNK         0.0800 
    142 H142        1.5714  -20.1018  -47.9382 H         1 UNK         0.0800 
    143 H143        0.8344  -22.6186  -48.3713 H         1 UNK         0.0600 
    144 H144        0.8825  -21.0752  -46.0379 H         1 UNK         0.3000 
    145 H145       -0.0954  -23.5843  -43.6798 H         1 UNK         0.0600 
    146 H146        2.0593  -22.8357  -42.7095 H         1 UNK         0.0600 
    147 H147        2.3404  -23.8733  -44.1001 H         1 UNK         0.0600 
    148 H148        2.5433  -22.1330  -44.2499 H         1 UNK         0.0600 
    149 H149        0.5913  -20.8370  -43.3574 H         1 UNK         0.3000 
    150 H150       -2.7229  -19.5097  -43.8191 H         1 UNK         0.0600 
    151 H151       -0.8608  -19.7371  -41.3953 H         1 UNK         0.0600 
    152 H152       -2.0677  -18.4760  -41.6407 H         1 UNK         0.0600 
    153 H153       -2.5668  -20.1486  -41.4407 H         1 UNK         0.0600 
    154 H154       -0.1313  -18.3285  -43.3741 H         1 UNK         0.3000 
    155 H155        0.7492  -17.9031  -46.7766 H         1 UNK         0.0600 
    156 H156       -0.8770  -16.0553  -46.4850 H         1 UNK         0.0600 
    157 H157        0.7588  -15.4881  -46.1732 H         1 UNK         0.0600 
    158 H158       -0.3386  -15.8027  -44.8301 H         1 UNK         0.0600 
    159 H159        1.8438  -16.8996  -44.3290 H         1 UNK         0.3000 
    160 H160        3.9133  -19.7740  -43.6439 H         1 UNK         0.0600 
    161 H161        4.4527  -16.8759  -44.4906 H         1 UNK         0.0600 
    162 H162        5.1222  -18.3108  -45.2550 H         1 UNK         0.0600 
    163 H163        5.5691  -17.9139  -43.6030 H         1 UNK         0.0600 
    164 H164        3.4681  -17.3172  -42.2482 H         1 UNK         0.3000 
    165 H165        0.9237  -18.5905  -40.0319 H         1 UNK         0.0600 
    166 H166        2.4823  -17.3276  -38.5682 H         1 UNK         0.0600 
    167 H167        3.2637  -18.7978  -39.1281 H         1 UNK         0.0600 
    168 H168        3.6861  -17.2487  -39.8510 H         1 UNK         0.0600 
    169 H169        1.5832  -16.4586  -41.8896 H         1 UNK         0.3000 
    170 H170       -0.6870  -15.1336  -42.0845 H         1 UNK         0.0600 
    171 H171       -1.9277  -14.3276  -40.0952 H         1 UNK         0.0600 
    172 H172       -0.5361  -13.3770  -39.5848 H         1 UNK         0.0600 
    173 H173       -1.3883  -12.9761  -41.0749 H         1 UNK         0.0600 
    174 H174        1.0931  -13.0142  -41.4189 H         1 UNK         0.3000 
    175 H175        3.4468  -12.9443  -42.3595 H         1 UNK         0.0600 
    176 H176        3.2577  -14.0915  -45.1942 H         1 UNK         0.0600 
    177 H177        4.4713  -12.9359  -44.6492 H         1 UNK         0.0600 
    178 H178        4.4159  -14.5443  -43.9480 H         1 UNK         0.0600 
    179 H179        1.9542  -12.0310  -44.7222 H         1 UNK         0.3000 
    180 H180       -0.0668   -9.9765  -43.4911 H         1 UNK         0.0600 
    181 H181        2.4828   -8.3136  -43.1636 H         1 UNK         0.0600 
    182 H182        1.1345   -8.4121  -42.0436 H         1 UNK         0.0600 
    183 H183        0.9064   -7.6632  -43.6143 H         1 UNK         0.0600 
    184 H184        0.2954  -10.1323  -45.6365 H         1 UNK         0.3000 
    185 H185        1.9718   -8.9643  -47.8363 H         1 UNK         0.0600 
    186 H186        4.2668   -9.8431  -47.8744 H         1 UNK         0.0600 
    187 H187        3.7035  -11.4784  -47.5636 H         1 UNK         0.0600 
    188 H188        3.3168  -10.6816  -49.0883 H         1 UNK         0.0600 
    189 H189        0.2804  -10.2839  -48.3375 H         1 UNK         0.3000 
    190 H190       -1.8396  -20.8108  -46.8066 H         1 UNK         0.3000 
    191 H191       -3.9075  -21.5314  -48.5986 H         1 UNK         0.0600 
    192 H192       -4.0909  -20.8234  -45.6320 H         1 UNK         0.0600 
    193 H193       -5.4163  -20.8089  -46.7859 H         1 UNK         0.0600 
    194 H194       -4.0889  -19.6766  -46.9669 H         1 UNK         0.0600 
    195 H195       -2.9442  -23.0722  -45.4804 H         1 UNK         0.3000 
    196 H196       -4.8128  -25.1614  -45.5203 H         1 UNK         0.0600 
    197 H197       -3.2832  -26.2305  -43.8588 H         1 UNK         0.0600 
    198 H198       -3.4886  -24.5173  -43.5249 H         1 UNK         0.0600 
    199 H199       -2.0084  -25.0957  -44.2870 H         1 UNK         0.0600 
    200 H200       -1.5906  -25.0247  -47.0351 H         1 UNK         0.3000 
    201 H201       -1.5187  -27.7456  -47.9334 H         1 UNK         0.0600 
    202 H202        0.5162  -26.3659  -47.6080 H         1 UNK         0.0600 
    203 H203       -0.0009  -25.2551  -48.8757 H         1 UNK         0.0600 
    204 H204        0.4251  -26.9160  -49.2730 H         1 UNK         0.0600 
    205 H205       -3.3843  -25.0821  -49.1191 H         1 UNK         0.3000 
    206 H206       -3.9443  -26.4876  -51.6757 H         1 UNK         0.0600 
    207 H207       -2.1897  -24.8346  -52.2130 H         1 UNK         0.0600 
    208 H208       -3.7253  -24.3332  -52.8979 H         1 UNK         0.0600 
    209 H209       -3.1151  -23.5583  -51.4342 H         1 UNK         0.0600 
    210 H210       -5.5088  -26.8594  -49.6659 H         1 UNK         0.3000 
    211 H211       -7.6424  -26.9767  -49.0855 H         1 UNK         0.0600 
    212 H212       -8.1272  -25.9563  -51.9330 H         1 UNK         0.0600 
    213 H213       -9.2365  -26.9280  -50.9731 H         1 UNK         0.0600 
    214 H214       -7.7141  -27.6163  -51.5058 H         1 UNK         0.0600 
    215 H215       -6.4536  -24.3980  -48.3812 H         1 UNK         0.3000 
    216 H216       -6.9533  -22.5781  -47.2766 H         1 UNK         0.0600 
    217 H217       -9.1690  -22.0280  -46.4432 H         1 UNK         0.0600 
    218 H218       -8.9371  -23.7622  -46.3026 H         1 UNK         0.0600 
    219 H219       -9.9456  -23.1031  -47.5915 H         1 UNK         0.0600 
    220 H220       -7.2894  -22.9172  -50.4671 H         1 UNK         0.3000 
    221 H221       -8.3473  -20.2258  -51.1113 H         1 UNK         0.0600 
    222 H222       -7.3628  -22.5225  -52.8912 H         1 UNK         0.0600 
    223 H223       -9.0447  -22.1863  -52.4865 H         1 UNK         0.0600 
    224 H224       -8.1250  -21.0382  -53.4473 H         1 UNK         0.0600 
    225 H225       -5.3431  -21.8797  -50.6161 H         1 UNK         0.3000 
    226 H226       -3.1803  -21.3717  -50.7227 H         1 UNK         0.0600 
    227 H227       -3.8140  -19.2221  -49.5486 H         1 UNK         0.0600 
    228 H228       -2.3662  -19.1042  -50.5327 H         1 UNK         0.0600 
    229 H229       -3.8757  -18.4249  -51.1210 H         1 UNK         0.0600 
    230 H230       -4.7140  -22.0742  -53.0836 H         1 UNK         0.3000 
    231 H231       -3.6191  -20.8124  -55.4141 H         1 UNK         0.0600 
    232 H232       -5.8806  -21.8615  -55.3131 H         1 UNK         0.0600 
    233 H233       -5.1455  -23.4475  -55.0793 H         1 UNK         0.0600 
    234 H234       -4.9118  -22.5731  -56.5897 H         1 UNK         0.0600 
    235 H235       -1.5494  -21.8247  -53.6056 H         1 UNK         0.3000 
    236 H236       -0.1641  -24.0186  -54.9839 H         1 UNK         0.0600 
    237 H237        1.6284  -23.5105  -53.3281 H         1 UNK         0.0600 
    238 H238        0.7418  -22.0962  -52.7727 H         1 UNK         0.0600 
    239 H239        0.0820  -23.7101  -52.5166 H         1 UNK         0.0600 
    240 H240       -0.2728  -20.4840  -54.9762 H         1 UNK         0.3000 
    241 H241        2.0160  -20.1233  -56.7310 H         1 UNK         0.0600 
    242 H242        1.8844  -19.2558  -58.9678 H         1 UNK         0.3800 
    243 H243        0.5077  -19.6896  -59.9391 H         1 UNK         0.3800 
    244 H244        1.6420  -18.3302  -55.2357 H         1 UNK         0.0800 
    245 H245        1.2391  -17.7224  -56.8060 H         1 UNK         0.0800 
    246 H246       -0.9827  -15.6729  -54.5518 H         1 UNK         0.0800 
    247 H247        0.7053  -16.0716  -54.6823 H         1 UNK         0.0800 
@<TRIPOS>BOND
     1    1    2 1    
     2    1  127 1    
     3    1  128 1    
     4    1  129 1    
     5    2    3 2    
     6    2    4 am   BACKBONE|DICT|INTERRES
     7    4    5 1    
     8    4  130 1    
     9    5    6 1    
    10    5   65 1    
    11    5  131 1    
    12    6    7 1    
    13    6  132 1    
    14    6  133 1    
    15    7    8 1    
    16    8    9 1    
    17    8  134 1    
    18    8  135 1    
    19    9   10 ar   
    20    9   14 ar   
    21   10   11 ar   
    22   10  136 1    
    23   11   12 ar   
    24   11  126 1    
    25   12   13 ar   
    26   12  137 1    
    27   13   14 ar   
    28   13   15 1    
    29   14  138 1    
    30   15   16 1    
    31   15  139 1    
    32   15  140 1    
    33   16   17 1    
    34   17   18 1    
    35   17  141 1    
    36   17  142 1    
    37   18   19 1    
    38   18   67 1    
    39   18  143 1    
    40   19   20 am   BACKBONE|DICT|INTERRES
    41   19  144 1    
    42   20   21 2    
    43   20   22 1    
    44   22   23 1    
    45   22   24 1    
    46   22  145 1    
    47   23  146 1    
    48   23  147 1    
    49   23  148 1    
    50   24   25 am   BACKBONE|DICT|INTERRES
    51   24  149 1    
    52   25   26 2    
    53   25   27 1    
    54   27   28 1    
    55   27   29 1    
    56   27  150 1    
    57   28  151 1    
    58   28  152 1    
    59   28  153 1    
    60   29   30 am   BACKBONE|DICT|INTERRES
    61   29  154 1    
    62   30   31 2    
    63   30   32 1    
    64   32   33 1    
    65   32   34 1    
    66   32  155 1    
    67   33  156 1    
    68   33  157 1    
    69   33  158 1    
    70   34   35 am   BACKBONE|DICT|INTERRES
    71   34  159 1    
    72   35   36 2    
    73   35   37 1    
    74   37   38 1    
    75   37   39 1    
    76   37  160 1    
    77   38  161 1    
    78   38  162 1    
    79   38  163 1    
    80   39   40 am   BACKBONE|DICT|INTERRES
    81   39  164 1    
    82   40   41 2    
    83   40   42 1    
    84   42   43 1    
    85   42   44 1    
    86   42  165 1    
    87   43  166 1    
    88   43  167 1    
    89   43  168 1    
    90   44   45 am   BACKBONE|DICT|INTERRES
    91   44  169 1    
    92   45   46 2    
    93   45   47 1    
    94   47   48 1    
    95   47   49 1    
    96   47  170 1    
    97   48  171 1    
    98   48  172 1    
    99   48  173 1    
   100   49   50 am   BACKBONE|DICT|INTERRES
   101   49  174 1    
   102   50   51 2    
   103   50   52 1    
   104   52   53 1    
   105   52   54 1    
   106   52  175 1    
   107   53  176 1    
   108   53  177 1    
   109   53  178 1    
   110   54   55 am   BACKBONE|DICT|INTERRES
   111   54  179 1    
   112   55   56 2    
   113   55   57 1    
   114   57   58 1    
   115   57   59 1    
   116   57  180 1    
   117   58  181 1    
   118   58  182 1    
   119   58  183 1    
   120   59   60 am   BACKBONE|DICT|INTERRES
   121   59  184 1    
   122   60   61 2    
   123   60   62 1    
   124   62   63 1    
   125   62   64 1    
   126   62  185 1    
   127   63  186 1    
   128   63  187 1    
   129   63  188 1    
   130   64   65 am   BACKBONE|DICT|INTERRES
   131   64  189 1    
   132   65   66 2    
   133   67   68 2    
   134   67   69 am   BACKBONE|DICT|INTERRES
   135   69   70 1    
   136   69  190 1    
   137   70   71 1    
   138   70   72 1    
   139   70  191 1    
   140   71  192 1    
   141   71  193 1    
   142   71  194 1    
   143   72   73 2    
   144   72   74 am   BACKBONE|DICT|INTERRES
   145   74   75 1    
   146   74  195 1    
   147   75   76 1    
   148   75   77 1    
   149   75  196 1    
   150   76  197 1    
   151   76  198 1    
   152   76  199 1    
   153   77   78 2    
   154   77   79 am   BACKBONE|DICT|INTERRES
   155   79   80 1    
   156   79  200 1    
   157   80   81 1    
   158   80   82 1    
   159   80  201 1    
   160   81  202 1    
   161   81  203 1    
   162   81  204 1    
   163   82   83 2    
   164   82   84 am   BACKBONE|DICT|INTERRES
   165   84   85 1    
   166   84  205 1    
   167   85   86 1    
   168   85   87 1    
   169   85  206 1    
   170   86  207 1    
   171   86  208 1    
   172   86  209 1    
   173   87   88 2    
   174   87   89 am   BACKBONE|DICT|INTERRES
   175   89   90 1    
   176   89  210 1    
   177   90   91 1    
   178   90   92 1    
   179   90  211 1    
   180   91  212 1    
   181   91  213 1    
   182   91  214 1    
   183   92   93 2    
   184   92   94 am   BACKBONE|DICT|INTERRES
   185   94   95 1    
   186   94  215 1    
   187   95   96 1    
   188   95   97 1    
   189   95  216 1    
   190   96  217 1    
   191   96  218 1    
   192   96  219 1    
   193   97   98 2    
   194   97   99 am   BACKBONE|DICT|INTERRES
   195   99  100 1    
   196   99  220 1    
   197  100  101 1    
   198  100  102 1    
   199  100  221 1    
   200  101  222 1    
   201  101  223 1    
   202  101  224 1    
   203  102  103 2    
   204  102  104 am   BACKBONE|DICT|INTERRES
   205  104  105 1    
   206  104  225 1    
   207  105  106 1    
   208  105  107 1    
   209  105  226 1    
   210  106  227 1    
   211  106  228 1    
   212  106  229 1    
   213  107  108 2    
   214  107  109 am   BACKBONE|DICT|INTERRES
   215  109  110 1    
   216  109  230 1    
   217  110  111 1    
   218  110  112 1    
   219  110  231 1    
   220  111  232 1    
   221  111  233 1    
   222  111  234 1    
   223  112  113 2    
   224  112  114 am   BACKBONE|DICT|INTERRES
   225  114  115 1    
   226  114  235 1    
   227  115  116 1    
   228  115  117 1    
   229  115  236 1    
   230  116  237 1    
   231  116  238 1    
   232  116  239 1    
   233  117  118 2    
   234  117  119 am   BACKBONE|DICT|INTERRES
   235  119  120 1    
   236  119  240 1    
   237  120  121 1    
   238  120  124 1    
   239  120  241 1    
   240  121  122 am   BACKBONE|DICT|INTERRES
   241  121  123 2    
   242  122  242 1    
   243  122  243 1    
   244  124  125 1    
   245  124  244 1    
   246  124  245 1    
   247  125  126 1    
   248  126  246 1    
   249  126  247 1    
@<TRIPOS>SUBSTRUCTURE
     1 UNK         1 GROUP             0       ****    0 ROOT    
