@<TRIPOS>MOLECULE
3R540
247   249    1
SMALL
USER_CHARGES


@<TRIPOS>ATOM
      1 CA         -5.1928  -16.7639  -51.3126 C.3       0 UNK        -0.1800 
      2 C          -4.5049  -15.7147  -50.4501 C.2       0 UNK         0.5000 
      3 O          -5.1518  -14.7657  -50.0057 O.2       0 UNK        -0.5000 
      4 N          -3.1950  -15.8732  -50.2241 N.am      1 UNK        -0.5000 
      5 CA         -2.3844  -15.0131  -49.3571 C.3       1 UNK         0.1400 
      6 C6         -0.8668  -15.1730  -49.6390 C.3       23 UNK        -0.0398 
      7 S7         -0.2321  -16.8731  -49.4209 S.3       23 UNK        -0.2404 
      8 C8          0.7629  -17.0972  -50.9281 C.3       23 UNK        -0.0205 
      9 C9          1.3729  -18.4886  -50.9525 C.ar      23 UNK        -0.0193 
     10 C10         0.8024  -19.5000  -51.7272 C.ar      23 UNK        -0.1150 
     11 C11         1.3057  -20.8023  -51.6782 C.ar      23 UNK        -0.0193 
     12 C12         2.4095  -21.0866  -50.8668 C.ar      23 UNK        -0.1150 
     13 C13         3.0020  -20.0758  -50.1026 C.ar      23 UNK        -0.0193 
     14 C14         2.4861  -18.7775  -50.1612 C.ar      23 UNK        -0.1150 
     15 C15         4.1843  -20.3753  -49.1892 C.3       23 UNK        -0.0205 
     16 S16         3.7360  -21.3466  -47.7076 S.3       23 UNK        -0.2404 
     17 C17         2.2342  -20.5149  -47.0820 C.3       23 UNK        -0.0398 
     18 CA          1.0452  -21.5056  -47.0354 C.3       11 UNK         0.1400 
     19 N           0.9979  -22.2376  -45.7683 N.am      11 UNK        -0.5000 
     20 C           0.2676  -23.3371  -45.5439 C.2       10 UNK         0.5000 
     21 O          -0.4192  -23.8921  -46.4007 O.2       10 UNK        -0.5000 
     22 CA          0.2716  -23.8747  -44.1011 C.3       10 UNK         0.1400 
     23 CB          1.5166  -24.7369  -43.8451 C.3       10 UNK        -0.1800 
     24 N           0.2072  -22.8021  -43.1053 N.am      10 UNK        -0.5000 
     25 C          -0.8475  -21.9910  -42.9419 C.2       9 UNK         0.5000 
     26 O          -1.8874  -22.0867  -43.5907 O.2       9 UNK        -0.5000 
     27 CA         -0.7077  -20.8559  -41.9139 C.3       9 UNK         0.1400 
     28 CB         -1.1330  -21.3309  -40.5175 C.3       9 UNK        -0.1800 
     29 N           0.6368  -20.2836  -41.8382 N.am      9 UNK        -0.5000 
     30 C           1.2879  -19.6699  -42.8339 C.2       8 UNK         0.5000 
     31 O           0.8464  -19.5860  -43.9819 O.2       8 UNK        -0.5000 
     32 CA          2.6422  -19.0282  -42.4613 C.3       8 UNK         0.1400 
     33 CB          3.3114  -18.3100  -43.6461 C.3       8 UNK        -0.1800 
     34 N           2.5066  -18.0697  -41.3641 N.am      8 UNK        -0.5000 
     35 C           2.3805  -18.3639  -40.0633 C.2       7 UNK         0.5000 
     36 O           2.3329  -19.5178  -39.6314 O.2       7 UNK        -0.5000 
     37 CA          2.2841  -17.1594  -39.1039 C.3       7 UNK         0.1400 
     38 CB          2.4184  -17.5512  -37.6181 C.3       7 UNK        -0.1800 
     39 N           3.2274  -16.0929  -39.4524 N.am      7 UNK        -0.5000 
     40 C           4.5675  -16.1763  -39.5075 C.2       6 UNK         0.5000 
     41 O           5.2081  -17.1854  -39.2106 O.2       6 UNK        -0.5000 
     42 CA          5.3320  -14.9273  -39.9924 C.3       6 UNK         0.1400 
     43 CB          5.7536  -15.1048  -41.4599 C.3       6 UNK        -0.1800 
     44 N           4.5579  -13.6920  -39.8785 N.am      6 UNK        -0.5000 
     45 C           4.2231  -13.0861  -38.7305 C.2       5 UNK         0.5000 
     46 O           4.6268  -13.4458  -37.6242 O.2       5 UNK        -0.5000 
     47 CA          3.2510  -11.8922  -38.8367 C.3       5 UNK         0.1400 
     48 CB          4.0150  -10.5640  -38.7240 C.3       5 UNK        -0.1800 
     49 N           2.4654  -11.8857  -40.0768 N.am      5 UNK        -0.5000 
     50 C           1.5491  -12.8042  -40.4143 C.2       4 UNK         0.5000 
     51 O           1.2266  -13.7365  -39.6736 O.2       4 UNK        -0.5000 
     52 CA          0.9037  -12.6474  -41.8097 C.3       4 UNK         0.1400 
     53 CB          1.9306  -12.2606  -42.8976 C.3       4 UNK        -0.1800 
     54 N           0.1421  -13.8240  -42.2425 N.am      4 UNK        -0.5000 
     55 C           0.5956  -15.0720  -42.4426 C.2       3 UNK         0.5000 
     56 O           1.7571  -15.4322  -42.2408 O.2       3 UNK        -0.5000 
     57 CA         -0.4304  -16.0944  -42.9733 C.3       3 UNK         0.1400 
     58 CB         -1.0574  -16.8820  -41.8127 C.3       3 UNK        -0.1800 
     59 N          -1.5033  -15.4782  -43.7614 N.am      3 UNK        -0.5000 
     60 C          -1.3353  -14.9380  -44.9759 C.2       2 UNK         0.5000 
     61 O          -0.2587  -14.9229  -45.5775 O.2       2 UNK        -0.5000 
     62 CA         -2.5714  -14.2556  -45.5913 C.3       2 UNK         0.1400 
     63 CB         -2.7157  -12.8246  -45.0484 C.3       2 UNK        -0.1800 
     64 N          -2.4713  -14.1958  -47.0487 N.am      2 UNK        -0.5000 
     65 C          -2.7184  -15.2291  -47.8625 C.2       1 UNK         0.5000 
     66 O          -3.1700  -16.3093  -47.4731 O.2       1 UNK        -0.5000 
     67 C          -0.2976  -20.8121  -47.3238 C.2       11 UNK         0.5000 
     68 O          -0.7909  -20.9117  -48.4450 O.2       11 UNK        -0.5000 
     69 N          -0.8965  -20.1825  -46.3031 N.am      12 UNK        -0.5000 
     70 CA         -2.2211  -19.5639  -46.3896 C.3       12 UNK         0.1400 
     71 CB         -2.5193  -18.8095  -45.0865 C.3       12 UNK        -0.1800 
     72 C          -3.3344  -20.5817  -46.7106 C.2       12 UNK         0.5000 
     73 O          -4.1892  -20.3041  -47.5514 O.2       12 UNK        -0.5000 
     74 N          -3.2790  -21.7607  -46.0736 N.am      13 UNK        -0.5000 
     75 CA         -4.1698  -22.8907  -46.3375 C.3       13 UNK         0.1400 
     76 CB         -3.9538  -23.9850  -45.2819 C.3       13 UNK        -0.1800 
     77 C          -3.9980  -23.4573  -47.7573 C.2       13 UNK         0.5000 
     78 O          -4.9978  -23.6944  -48.4351 O.2       13 UNK        -0.5000 
     79 N          -2.7436  -23.6219  -48.2031 N.am      14 UNK        -0.5000 
     80 CA         -2.4022  -24.0484  -49.5618 C.3       14 UNK         0.1400 
     81 CB         -0.8882  -24.2795  -49.6784 C.3       14 UNK        -0.1800 
     82 C          -2.8853  -23.0534  -50.6309 C.2       14 UNK         0.5000 
     83 O          -3.4260  -23.4790  -51.6502 O.2       14 UNK        -0.5000 
     84 N          -2.7252  -21.7517  -50.3591 N.am      15 UNK        -0.5000 
     85 CA         -3.1857  -20.6593  -51.2133 C.3       15 UNK         0.1400 
     86 CB         -2.6131  -19.3337  -50.6944 C.3       15 UNK        -0.1800 
     87 C          -4.7173  -20.5622  -51.3153 C.2       15 UNK         0.5000 
     88 O          -5.2217  -20.1193  -52.3451 O.2       15 UNK        -0.5000 
     89 N          -5.4271  -20.9590  -50.2516 N.am      16 UNK        -0.5000 
     90 CA         -6.8844  -21.0493  -50.2273 C.3       16 UNK         0.1400 
     91 CB         -7.3768  -21.0390  -48.7722 C.3       16 UNK        -0.1800 
     92 C          -7.3886  -22.2969  -50.9741 C.2       16 UNK         0.5000 
     93 O          -8.3670  -22.2012  -51.7153 O.2       16 UNK        -0.5000 
     94 N          -6.7132  -23.4381  -50.7693 N.am      17 UNK        -0.5000 
     95 CA         -7.0154  -24.7200  -51.4083 C.3       17 UNK         0.1400 
     96 CB         -6.1925  -25.8345  -50.7430 C.3       17 UNK        -0.1800 
     97 C          -6.7765  -24.6857  -52.9276 C.2       17 UNK         0.5000 
     98 O          -7.6824  -25.0085  -53.6975 O.2       17 UNK        -0.5000 
     99 N          -5.5776  -24.2503  -53.3312 N.am      18 UNK        -0.5000 
    100 CA        -5.2197  -23.9478  -54.7116 C.3       18 UNK         0.1400 
    101 CB        -3.7577  -24.3590  -54.9553 C.3       18 UNK        -0.1800 
    102 C         -5.4596  -22.4462  -54.9230 C.2       18 UNK         0.5000 
    103 O         -4.5089  -21.6625  -54.8926 O.2       18 UNK        -0.5000 
    104 N         -6.7438  -22.0911  -55.0804 N.am      19 UNK        -0.5000 
    105 CA        -7.3424  -20.7492  -55.0147 C.3       19 UNK         0.1400 
    106 CB        -8.8426  -20.8773  -55.3224 C.3       19 UNK        -0.1800 
    107 C         -6.7121  -19.6429  -55.8875 C.2       19 UNK         0.5000 
    108 O         -6.9547  -18.4633  -55.6309 O.2       19 UNK        -0.5000 
    109 N         -5.8994  -20.0235  -56.8803 N.am      20 UNK        -0.5000 
    110 CA        -5.0519  -19.1303  -57.6757 C.3       20 UNK         0.1400 
    111 CB        -4.6265  -19.8820  -58.9481 C.3       20 UNK        -0.1800 
    112 C         -3.8115  -18.6057  -56.9110 C.2       20 UNK         0.5000 
    113 O         -3.0291  -17.8530  -57.4921 O.2       20 UNK        -0.5000 
    114 N         -3.6467  -19.0268  -55.6475 N.am      21 UNK        -0.5000 
    115 CA        -2.4838  -18.8679  -54.7739 C.3       21 UNK         0.1400 
    116 CB        -2.1054  -17.3884  -54.5510 C.3       21 UNK        -0.1800 
    117 C         -1.3235  -19.7593  -55.2542 C.2       21 UNK         0.5000 
    118 O         -0.1973  -19.2829  -55.3999 O.2       21 UNK        -0.5000 
    119 N         -1.6588  -21.0352  -55.5042 N.am      22 UNK        -0.5000 
    120 CA        -0.8175  -22.0974  -56.0834 C.3       22 UNK         0.1400 
    121 C         -0.0534  -21.6919  -57.3835 C.2       22 UNK         0.5000 
    122 N          1.1932  -22.1042  -57.5749 N.am      22 UNK        -0.7600 
    123 O         -0.6213  -21.0555  -58.2681 O.2       22 UNK        -0.5000 
    124 C124       -0.0103  -22.9103  -55.0254 C.3       23 UNK        -0.0398 
    125 S125        1.3150  -21.9972  -54.1618 S.3       23 UNK        -0.2404 
    126 C126        0.6277  -21.8969  -52.4830 C.3       23 UNK        -0.0205 
    127 H127       -6.0519  -16.3330  -51.8269 H         1 UNK         0.0600 
    128 H128       -4.5195  -17.1626  -52.0711 H         1 UNK         0.0600 
    129 H129       -5.5456  -17.5882  -50.6926 H         1 UNK         0.0600 
    130 H130       -2.7225  -16.6960  -50.5662 H         1 UNK         0.3000 
    131 H131       -2.6465  -13.9798  -49.5957 H         1 UNK         0.0600 
    132 H132       -0.2856  -14.5091  -48.9966 H         1 UNK         0.0800 
    133 H133       -0.6601  -14.8432  -50.6579 H         1 UNK         0.0800 
    134 H134        0.1382  -16.9373  -51.8078 H         1 UNK         0.0800 
    135 H135        1.5531  -16.3456  -50.9614 H         1 UNK         0.0800 
    136 H136       -0.0543  -19.2822  -52.3486 H         1 UNK         0.1150 
    137 H137        2.7981  -22.0940  -50.8179 H         1 UNK         0.1150 
    138 H138        2.9246  -17.9950  -49.5577 H         1 UNK         0.1150 
    139 H139        4.9426  -20.9214  -49.7519 H         1 UNK         0.0800 
    140 H140        4.6594  -19.4480  -48.8652 H         1 UNK         0.0800 
    141 H141        2.0093  -19.6410  -47.6912 H         1 UNK         0.0800 
    142 H142        2.4429  -20.1137  -46.0919 H         1 UNK         0.0800 
    143 H143        1.1730  -22.2397  -47.8346 H         1 UNK         0.0600 
    144 H144        1.4895  -21.8208  -44.9921 H         1 UNK         0.3000 
    145 H145       -0.6116  -24.5054  -43.9786 H         1 UNK         0.0600 
    146 H146        1.4890  -25.1836  -42.8510 H         1 UNK         0.0600 
    147 H147        1.5796  -25.5535  -44.5656 H         1 UNK         0.0600 
    148 H148        2.4357  -24.1553  -43.9269 H         1 UNK         0.0600 
    149 H149        1.0226  -22.6565  -42.5285 H         1 UNK         0.3000 
    150 H150       -1.3854  -20.0574  -42.2192 H         1 UNK         0.0600 
    151 H151       -2.1429  -21.7430  -40.5351 H         1 UNK         0.0600 
    152 H152       -1.1315  -20.5065  -39.8040 H         1 UNK         0.0600 
    153 H153       -0.4673  -22.1061  -40.1360 H         1 UNK         0.0600 
    154 H154        1.0837  -20.2838  -40.9260 H         1 UNK         0.3000 
    155 H155        3.3070  -19.8325  -42.1403 H         1 UNK         0.0600 
    156 H156        2.6660  -17.5389  -44.0692 H         1 UNK         0.0600 
    157 H157        3.5584  -19.0124  -44.4409 H         1 UNK         0.0600 
    158 H158        4.2433  -17.8330  -43.3417 H         1 UNK         0.0600 
    159 H159        2.4688  -17.0901  -41.6356 H         1 UNK         0.3000 
    160 H160        1.2875  -16.7382  -39.2436 H         1 UNK         0.0600 
    161 H161        2.3346  -16.6771  -36.9721 H         1 UNK         0.0600 
    162 H162        3.3738  -18.0329  -37.4087 H         1 UNK         0.0600 
    163 H163        1.6312  -18.2470  -37.3256 H         1 UNK         0.0600 
    164 H164        2.7934  -15.2190  -39.7271 H         1 UNK         0.3000 
    165 H165        6.2315  -14.8290  -39.3812 H         1 UNK         0.0600 
    166 H166        6.3483  -14.2594  -41.8059 H         1 UNK         0.0600 
    167 H167        6.3612  -16.0018  -41.5868 H         1 UNK         0.0600 
    168 H168        4.8879  -15.2002  -42.1174 H         1 UNK         0.0600 
    169 H169        4.1840  -13.3169  -40.7372 H         1 UNK         0.3000 
    170 H170        2.5563  -11.9615  -37.9971 H         1 UNK         0.0600 
    171 H171        4.5887  -10.5204  -37.7972 H         1 UNK         0.0600 
    172 H172        4.7150  -10.4309  -39.5498 H         1 UNK         0.0600 
    173 H173        3.3320   -9.7143  -38.7210 H         1 UNK         0.0600 
    174 H174        2.6686  -11.1414  -40.7284 H         1 UNK         0.3000 
    175 H175        0.1815  -11.8343  -41.7241 H         1 UNK         0.0600 
    176 H176        2.3591  -11.2748  -42.7159 H         1 UNK         0.0600 
    177 H177        2.7533  -12.9747  -42.9512 H         1 UNK         0.0600 
    178 H178        1.4620  -12.2234  -43.8814 H         1 UNK         0.0600 
    179 H179       -0.8408  -13.6633  -42.4039 H         1 UNK         0.3000 
    180 H180        0.1060  -16.7966  -43.6151 H         1 UNK         0.0600 
    181 H181       -1.6035  -16.2289  -41.1310 H         1 UNK         0.0600 
    182 H182       -0.2961  -17.3984  -41.2293 H         1 UNK         0.0600 
    183 H183       -1.7506  -17.6385  -42.1798 H         1 UNK         0.0600 
    184 H184       -2.4170  -15.4488  -43.3321 H         1 UNK         0.3000 
    185 H185       -3.4622  -14.8254  -45.3173 H         1 UNK         0.0600 
    186 H186       -2.8408  -12.8254  -43.9650 H         1 UNK         0.0600 
    187 H187       -1.8395  -12.2161  -45.2767 H         1 UNK         0.0600 
    188 H188       -3.5887  -12.3282  -45.4727 H         1 UNK         0.0600 
    189 H189       -2.0690  -13.3524  -47.4303 H         1 UNK         0.3000 
    190 H190       -0.4090  -20.1112  -45.4152 H         1 UNK         0.3000 
    191 H191       -2.1892  -18.8380  -47.2049 H         1 UNK         0.0600 
    192 H192       -2.6122  -19.4863  -44.2377 H         1 UNK         0.0600 
    193 H193       -3.4520  -18.2502  -45.1675 H         1 UNK         0.0600 
    194 H194       -1.7287  -18.0949  -44.8623 H         1 UNK         0.0600 
    195 H195       -2.5842  -21.8926  -45.3434 H         1 UNK         0.3000 
    196 H196       -5.1973  -22.5323  -46.2467 H         1 UNK         0.0600 
    197 H197       -2.9291  -24.3572  -45.2899 H         1 UNK         0.0600 
    198 H198       -4.6144  -24.8346  -45.4587 H         1 UNK         0.0600 
    199 H199       -4.1654  -23.6117  -44.2799 H         1 UNK         0.0600 
    200 H200       -1.9672  -23.4466  -47.5727 H         1 UNK         0.3000 
    201 H201       -2.9038  -25.0007  -49.7444 H         1 UNK         0.0600 
    202 H202       -0.5477  -25.0298  -48.9649 H         1 UNK         0.0600 
    203 H203       -0.3235  -23.3648  -49.4973 H         1 UNK         0.0600 
    204 H204       -0.6249  -24.6359  -50.6748 H         1 UNK         0.0600 
    205 H205       -2.2093  -21.4858  -49.5226 H         1 UNK         0.3000 
    206 H206       -2.7912  -20.8499  -52.2121 H         1 UNK         0.0600 
    207 H207       -1.5540  -19.4201  -50.4667 H         1 UNK         0.0600 
    208 H208       -2.7212  -18.5465  -51.4385 H         1 UNK         0.0600 
    209 H209       -3.1121  -19.0057  -49.7814 H         1 UNK         0.0600 
    210 H210       -4.9332  -21.2339  -49.4110 H         1 UNK         0.3000 
    211 H211       -7.2968  -20.1695  -50.7261 H         1 UNK         0.0600 
    212 H212       -6.9969  -21.8910  -48.2084 H         1 UNK         0.0600 
    213 H213       -8.4660  -21.0757  -48.7292 H         1 UNK         0.0600 
    214 H214       -7.0603  -20.1317  -48.2572 H         1 UNK         0.0600 
    215 H215       -5.9526  -23.4378  -50.0954 H         1 UNK         0.3000 
    216 H216       -8.0727  -24.9358  -51.2417 H         1 UNK         0.0600 
    217 H217       -6.4060  -26.8028  -51.1973 H         1 UNK         0.0600 
    218 H218       -6.4258  -25.9144  -49.6811 H         1 UNK         0.0600 
    219 H219       -5.1208  -25.6562  -50.8351 H         1 UNK         0.0600 
    220 H220       -4.8919  -23.9688  -52.6320 H         1 UNK         0.3000 
    221 H221       -5.8476  -24.5063  -55.4089 H         1 UNK         0.0600 
    222 H222       -3.0693  -23.8172  -54.3068 H         1 UNK         0.0600 
    223 H223       -3.6147  -25.4242  -54.7741 H         1 UNK         0.0600 
    224 H224       -3.4690  -24.1630  -55.9879 H         1 UNK         0.0600 
    225 H225       -7.4165  -22.8456  -55.0755 H         1 UNK         0.3000 
    226 H226       -7.2462  -20.4171  -53.9802 H         1 UNK         0.0600 
    227 H227       -9.3330  -21.5491  -54.6173 H         1 UNK         0.0600 
    228 H228       -9.3452  -19.9119  -55.2478 H         1 UNK         0.0600 
    229 H229       -9.0136  -21.2605  -56.3291 H         1 UNK         0.0600 
    230 H230       -5.7453  -21.0135  -57.0026 H         1 UNK         0.3000 
    231 H231       -5.6431  -18.2614  -57.9717 H         1 UNK         0.0600 
    232 H232       -5.4929  -20.2271  -59.5126 H         1 UNK         0.0600 
    233 H233       -4.0089  -20.7499  -58.7127 H         1 UNK         0.0600 
    234 H234       -4.0463  -19.2380  -59.6102 H         1 UNK         0.0600 
    235 H235       -4.3253  -19.6996  -55.3057 H         1 UNK         0.3000 
    236 H236       -2.7933  -19.2609  -53.8080 H         1 UNK         0.0600 
    237 H237       -1.3437  -17.2995  -53.7763 H         1 UNK         0.0600 
    238 H238       -1.7031  -16.9260  -55.4522 H         1 UNK         0.0600 
    239 H239       -2.9676  -16.8049  -54.2281 H         1 UNK         0.0600 
    240 H240       -2.6300  -21.2925  -55.3548 H         1 UNK         0.3000 
    241 H241       -1.5518  -22.8044  -56.4688 H         1 UNK         0.0600 
    242 H242        1.6659  -21.8573  -58.4304 H         1 UNK         0.3800 
    243 H243        1.6947  -22.5999  -56.8544 H         1 UNK         0.3800 
    244 H244       -0.7009  -23.3149  -54.2850 H         1 UNK         0.0800 
    245 H245        0.4360  -23.7894  -55.4922 H         1 UNK         0.0800 
    246 H246       -0.4437  -21.6975  -52.5337 H         1 UNK         0.0800 
    247 H247        0.7400  -22.8612  -51.9860 H         1 UNK         0.0800 
@<TRIPOS>BOND
     1    1    2 1    
     2    1  127 1    
     3    1  128 1    
     4    1  129 1    
     5    2    3 2    
     6    2    4 am   BACKBONE|DICT|INTERRES
     7    4    5 1    
     8    4  130 1    
     9    5    6 1    
    10    5   65 1    
    11    5  131 1    
    12    6    7 1    
    13    6  132 1    
    14    6  133 1    
    15    7    8 1    
    16    8    9 1    
    17    8  134 1    
    18    8  135 1    
    19    9   10 ar   
    20    9   14 ar   
    21   10   11 ar   
    22   10  136 1    
    23   11   12 ar   
    24   11  126 1    
    25   12   13 ar   
    26   12  137 1    
    27   13   14 ar   
    28   13   15 1    
    29   14  138 1    
    30   15   16 1    
    31   15  139 1    
    32   15  140 1    
    33   16   17 1    
    34   17   18 1    
    35   17  141 1    
    36   17  142 1    
    37   18   19 1    
    38   18   67 1    
    39   18  143 1    
    40   19   20 am   BACKBONE|DICT|INTERRES
    41   19  144 1    
    42   20   21 2    
    43   20   22 1    
    44   22   23 1    
    45   22   24 1    
    46   22  145 1    
    47   23  146 1    
    48   23  147 1    
    49   23  148 1    
    50   24   25 am   BACKBONE|DICT|INTERRES
    51   24  149 1    
    52   25   26 2    
    53   25   27 1    
    54   27   28 1    
    55   27   29 1    
    56   27  150 1    
    57   28  151 1    
    58   28  152 1    
    59   28  153 1    
    60   29   30 am   BACKBONE|DICT|INTERRES
    61   29  154 1    
    62   30   31 2    
    63   30   32 1    
    64   32   33 1    
    65   32   34 1    
    66   32  155 1    
    67   33  156 1    
    68   33  157 1    
    69   33  158 1    
    70   34   35 am   BACKBONE|DICT|INTERRES
    71   34  159 1    
    72   35   36 2    
    73   35   37 1    
    74   37   38 1    
    75   37   39 1    
    76   37  160 1    
    77   38  161 1    
    78   38  162 1    
    79   38  163 1    
    80   39   40 am   BACKBONE|DICT|INTERRES
    81   39  164 1    
    82   40   41 2    
    83   40   42 1    
    84   42   43 1    
    85   42   44 1    
    86   42  165 1    
    87   43  166 1    
    88   43  167 1    
    89   43  168 1    
    90   44   45 am   BACKBONE|DICT|INTERRES
    91   44  169 1    
    92   45   46 2    
    93   45   47 1    
    94   47   48 1    
    95   47   49 1    
    96   47  170 1    
    97   48  171 1    
    98   48  172 1    
    99   48  173 1    
   100   49   50 am   BACKBONE|DICT|INTERRES
   101   49  174 1    
   102   50   51 2    
   103   50   52 1    
   104   52   53 1    
   105   52   54 1    
   106   52  175 1    
   107   53  176 1    
   108   53  177 1    
   109   53  178 1    
   110   54   55 am   BACKBONE|DICT|INTERRES
   111   54  179 1    
   112   55   56 2    
   113   55   57 1    
   114   57   58 1    
   115   57   59 1    
   116   57  180 1    
   117   58  181 1    
   118   58  182 1    
   119   58  183 1    
   120   59   60 am   BACKBONE|DICT|INTERRES
   121   59  184 1    
   122   60   61 2    
   123   60   62 1    
   124   62   63 1    
   125   62   64 1    
   126   62  185 1    
   127   63  186 1    
   128   63  187 1    
   129   63  188 1    
   130   64   65 am   BACKBONE|DICT|INTERRES
   131   64  189 1    
   132   65   66 2    
   133   67   68 2    
   134   67   69 am   BACKBONE|DICT|INTERRES
   135   69   70 1    
   136   69  190 1    
   137   70   71 1    
   138   70   72 1    
   139   70  191 1    
   140   71  192 1    
   141   71  193 1    
   142   71  194 1    
   143   72   73 2    
   144   72   74 am   BACKBONE|DICT|INTERRES
   145   74   75 1    
   146   74  195 1    
   147   75   76 1    
   148   75   77 1    
   149   75  196 1    
   150   76  197 1    
   151   76  198 1    
   152   76  199 1    
   153   77   78 2    
   154   77   79 am   BACKBONE|DICT|INTERRES
   155   79   80 1    
   156   79  200 1    
   157   80   81 1    
   158   80   82 1    
   159   80  201 1    
   160   81  202 1    
   161   81  203 1    
   162   81  204 1    
   163   82   83 2    
   164   82   84 am   BACKBONE|DICT|INTERRES
   165   84   85 1    
   166   84  205 1    
   167   85   86 1    
   168   85   87 1    
   169   85  206 1    
   170   86  207 1    
   171   86  208 1    
   172   86  209 1    
   173   87   88 2    
   174   87   89 am   BACKBONE|DICT|INTERRES
   175   89   90 1    
   176   89  210 1    
   177   90   91 1    
   178   90   92 1    
   179   90  211 1    
   180   91  212 1    
   181   91  213 1    
   182   91  214 1    
   183   92   93 2    
   184   92   94 am   BACKBONE|DICT|INTERRES
   185   94   95 1    
   186   94  215 1    
   187   95   96 1    
   188   95   97 1    
   189   95  216 1    
   190   96  217 1    
   191   96  218 1    
   192   96  219 1    
   193   97   98 2    
   194   97   99 am   BACKBONE|DICT|INTERRES
   195   99  100 1    
   196   99  220 1    
   197  100  101 1    
   198  100  102 1    
   199  100  221 1    
   200  101  222 1    
   201  101  223 1    
   202  101  224 1    
   203  102  103 2    
   204  102  104 am   BACKBONE|DICT|INTERRES
   205  104  105 1    
   206  104  225 1    
   207  105  106 1    
   208  105  107 1    
   209  105  226 1    
   210  106  227 1    
   211  106  228 1    
   212  106  229 1    
   213  107  108 2    
   214  107  109 am   BACKBONE|DICT|INTERRES
   215  109  110 1    
   216  109  230 1    
   217  110  111 1    
   218  110  112 1    
   219  110  231 1    
   220  111  232 1    
   221  111  233 1    
   222  111  234 1    
   223  112  113 2    
   224  112  114 am   BACKBONE|DICT|INTERRES
   225  114  115 1    
   226  114  235 1    
   227  115  116 1    
   228  115  117 1    
   229  115  236 1    
   230  116  237 1    
   231  116  238 1    
   232  116  239 1    
   233  117  118 2    
   234  117  119 am   BACKBONE|DICT|INTERRES
   235  119  120 1    
   236  119  240 1    
   237  120  121 1    
   238  120  124 1    
   239  120  241 1    
   240  121  122 am   BACKBONE|DICT|INTERRES
   241  121  123 2    
   242  122  242 1    
   243  122  243 1    
   244  124  125 1    
   245  124  244 1    
   246  124  245 1    
   247  125  126 1    
   248  126  246 1    
   249  126  247 1    
@<TRIPOS>SUBSTRUCTURE
     1 UNK         1 GROUP             0       ****    0 ROOT    
