@<TRIPOS>MOLECULE
3R540
247   249    1
SMALL
USER_CHARGES


@<TRIPOS>ATOM
      1 CA         -0.2292   -8.0360  -44.7579 C.3       0 UNK        -0.1800 
      2 C           0.1710   -9.3144  -45.4810 C.2       0 UNK         0.5000 
      3 O           0.8519  -10.1528  -44.8911 O.2       0 UNK        -0.5000 
      4 N          -0.2656   -9.4580  -46.7417 N.am      1 UNK        -0.5000 
      5 CA          0.0198  -10.5553  -47.6766 C.3       1 UNK         0.1400 
      6 C6         -0.2487  -11.9597  -47.0759 C.3       23 UNK        -0.0398 
      7 S7         -0.5566  -13.2489  -48.3262 S.3       23 UNK        -0.2404 
      8 C8         -0.3391  -14.7249  -47.2867 C.3       23 UNK        -0.0205 
      9 C9         -1.0746  -15.9266  -47.8525 C.ar      23 UNK        -0.0193 
     10 C10        -2.4634  -16.0028  -47.7358 C.ar      23 UNK        -0.1150 
     11 C11        -3.1546  -17.1204  -48.2054 C.ar      23 UNK        -0.0193 
     12 C12        -2.4442  -18.1644  -48.8046 C.ar      23 UNK        -0.1150 
     13 C13        -1.0475  -18.1113  -48.9212 C.ar      23 UNK        -0.0193 
     14 C14        -0.3756  -16.9789  -48.4496 C.ar      23 UNK        -0.1150 
     15 C15        -0.2143  -19.2458  -49.5275 C.3       23 UNK        -0.0205 
     16 S16        -1.0644  -20.8508  -49.7444 S.3       23 UNK        -0.2404 
     17 C17        -1.5812  -21.2226  -48.0390 C.3       23 UNK        -0.0398 
     18 CA         -1.0752  -22.5976  -47.5235 C.3       11 UNK         0.1400 
     19 N          -0.1420  -22.4421  -46.4013 N.am      11 UNK        -0.5000 
     20 C           0.4650  -23.4334  -45.7336 C.2       10 UNK         0.5000 
     21 O           0.3580  -24.6227  -46.0221 O.2       10 UNK        -0.5000 
     22 CA          1.2707  -23.0335  -44.4857 C.3       10 UNK         0.1400 
     23 CB          2.6503  -22.4740  -44.8648 C.3       10 UNK        -0.1800 
     24 N           0.5467  -22.0673  -43.6595 N.am      10 UNK        -0.5000 
     25 C          -0.5963  -22.3372  -43.0116 C.2       9 UNK         0.5000 
     26 O          -1.1314  -23.4460  -42.9978 O.2       9 UNK        -0.5000 
     27 CA         -1.2801  -21.1569  -42.3000 C.3       9 UNK         0.1400 
     28 CB         -0.6645  -20.9260  -40.9122 C.3       9 UNK        -0.1800 
     29 N          -1.2029  -19.9206  -43.0776 N.am      9 UNK        -0.5000 
     30 C          -1.8228  -19.7191  -44.2495 C.2       8 UNK         0.5000 
     31 O          -2.5546  -20.5475  -44.7917 O.2       8 UNK        -0.5000 
     32 CA         -1.5218  -18.3883  -44.9604 C.3       8 UNK         0.1400 
     33 CB         -2.4190  -17.2681  -44.4147 C.3       8 UNK        -0.1800 
     34 N          -0.1141  -17.9997  -44.8457 N.am      8 UNK        -0.5000 
     35 C           0.9064  -18.7073  -45.3557 C.2       7 UNK         0.5000 
     36 O           0.7564  -19.7514  -45.9881 O.2       7 UNK        -0.5000 
     37 CA          2.3365  -18.2031  -45.0985 C.3       7 UNK         0.1400 
     38 CB          2.9071  -17.5437  -46.3610 C.3       7 UNK        -0.1800 
     39 N           2.4299  -17.2784  -43.9683 N.am      7 UNK        -0.5000 
     40 C           2.3068  -17.6486  -42.6841 C.2       6 UNK         0.5000 
     41 O           2.1073  -18.8125  -42.3330 O.2       6 UNK        -0.5000 
     42 CA          2.3889  -16.5420  -41.6119 C.3       6 UNK         0.1400 
     43 CB          3.8172  -16.4411  -41.0560 C.3       6 UNK        -0.1800 
     44 N           1.9716  -15.2227  -42.0906 N.am      6 UNK        -0.5000 
     45 C           0.7404  -14.9152  -42.5210 C.2       5 UNK         0.5000 
     46 O          -0.2008  -15.7077  -42.5076 O.2       5 UNK        -0.5000 
     47 CA          0.5343  -13.5060  -43.1126 C.3       5 UNK         0.1400 
     48 CB         -0.0392  -12.5553  -42.0519 C.3       5 UNK        -0.1800 
     49 N           1.7309  -12.8944  -43.7050 N.am      5 UNK        -0.5000 
     50 C           2.4702  -13.4245  -44.6876 C.2       4 UNK         0.5000 
     51 O           2.2909  -14.5622  -45.1227 O.2       4 UNK        -0.5000 
     52 CA          3.5752  -12.5244  -45.2715 C.3       4 UNK         0.1400 
     53 CB          4.8822  -12.6377  -44.4629 C.3       4 UNK        -0.1800 
     54 N           3.7765  -12.7652  -46.7059 N.am      4 UNK        -0.5000 
     55 C           4.3429  -13.8188  -47.3184 C.2       3 UNK         0.5000 
     56 O           4.9823  -14.6955  -46.7368 O.2       3 UNK        -0.5000 
     57 CA          4.1575  -13.9303  -48.8479 C.3       3 UNK         0.1400 
     58 CB          3.4751  -15.2569  -49.2219 C.3       3 UNK        -0.1800 
     59 N           3.3597  -12.8370  -49.4064 N.am      3 UNK        -0.5000 
     60 C           3.8535  -11.6885  -49.8855 C.2       2 UNK         0.5000 
     61 O           5.0560  -11.4348  -49.9585 O.2       2 UNK        -0.5000 
     62 CA          2.8221  -10.6328  -50.3329 C.3       2 UNK         0.1400 
     63 CB          2.5226  -10.7762  -51.8328 C.3       2 UNK        -0.1800 
     64 N           1.5603  -10.6880  -49.5843 N.am      2 UNK        -0.5000 
     65 C           1.4401  -10.4402  -48.2726 C.2       1 UNK         0.5000 
     66 O           2.4013  -10.1651  -47.5524 O.2       1 UNK        -0.5000 
     67 C          -2.2746  -23.4930  -47.1542 C.2       11 UNK         0.5000 
     68 O          -2.6149  -24.4135  -47.9039 O.2       11 UNK        -0.5000 
     69 N          -2.8889  -23.1930  -46.0003 N.am      12 UNK        -0.5000 
     70 CA         -4.0247  -23.9191  -45.4425 C.3       12 UNK         0.1400 
     71 CB         -4.5498  -23.1944  -44.1947 C.3       12 UNK        -0.1800 
     72 C          -3.6883  -25.3870  -45.1345 C.2       12 UNK         0.5000 
     73 O          -4.4365  -26.2769  -45.5402 O.2       12 UNK        -0.5000 
     74 N          -2.5498  -25.6085  -44.4641 N.am      13 UNK        -0.5000 
     75 CA         -2.0309  -26.9332  -44.1274 C.3       13 UNK         0.1400 
     76 CB         -0.8394  -26.7822  -43.1693 C.3       13 UNK        -0.1800 
     77 C          -1.6311  -27.7622  -45.3622 C.2       13 UNK         0.5000 
     78 O          -1.8757  -28.9693  -45.3819 O.2       13 UNK        -0.5000 
     79 N          -1.0201  -27.1078  -46.3591 N.am      14 UNK        -0.5000 
     80 CA         -0.5338  -27.7349  -47.5847 C.3       14 UNK         0.1400 
     81 CB          0.4065  -26.7737  -48.3299 C.3       14 UNK        -0.1800 
     82 C          -1.6616  -28.2112  -48.5125 C.2       14 UNK         0.5000 
     83 O          -1.6456  -29.3729  -48.9239 O.2       14 UNK        -0.5000 
     84 N          -2.5949  -27.3121  -48.8559 N.am      15 UNK        -0.5000 
     85 CA         -3.5828  -27.5614  -49.9092 C.3       15 UNK         0.1400 
     86 CB         -2.9162  -27.4035  -51.2947 C.3       15 UNK        -0.1800 
     87 C          -4.8398  -26.6865  -49.7781 C.2       15 UNK         0.5000 
     88 O          -5.4709  -26.3963  -50.7938 O.2       15 UNK        -0.5000 
     89 N          -5.1897  -26.2485  -48.5583 N.am      16 UNK        -0.5000 
     90 CA         -6.3495  -25.3887  -48.2622 C.3       16 UNK         0.1400 
     91 CB         -7.6671  -26.1589  -48.4935 C.3       16 UNK        -0.1800 
     92 C          -6.3165  -24.0305  -49.0076 C.2       16 UNK         0.5000 
     93 O          -7.3699  -23.4729  -49.3177 O.2       16 UNK        -0.5000 
     94 N          -5.0994  -23.5485  -49.3062 N.am      17 UNK        -0.5000 
     95 CA         -4.7623  -22.3694  -50.1134 C.3       17 UNK         0.1400 
     96 CB         -5.2971  -21.0778  -49.4627 C.3       17 UNK        -0.1800 
     97 C          -5.1427  -22.4698  -51.6096 C.2       17 UNK         0.5000 
     98 O          -5.0836  -21.4571  -52.3130 O.2       17 UNK        -0.5000 
     99 N          -5.4953  -23.6715  -52.0942 N.am      18 UNK        -0.5000 
    100 CA        -5.8010  -23.9379  -53.5016 C.3       18 UNK         0.1400 
    101 CB        -6.3745  -25.3548  -53.6480 C.3       18 UNK        -0.1800 
    102 C         -4.5624  -23.7650  -54.3988 C.2       18 UNK         0.5000 
    103 O         -3.4342  -23.9564  -53.9376 O.2       18 UNK        -0.5000 
    104 N         -4.8013  -23.3791  -55.6591 N.am      19 UNK        -0.5000 
    105 CA        -3.8353  -23.0393  -56.7158 C.3       19 UNK         0.1400 
    106 CB        -2.8927  -24.2161  -57.0340 C.3       19 UNK        -0.1800 
    107 C         -3.0460  -21.7390  -56.4557 C.2       19 UNK         0.5000 
    108 O         -2.8471  -20.9625  -57.3906 O.2       19 UNK        -0.5000 
    109 N         -2.6379  -21.5057  -55.2018 N.am      20 UNK        -0.5000 
    110 CA        -2.0200  -20.2689  -54.7272 C.3       20 UNK         0.1400 
    111 CB        -1.4654  -20.4881  -53.3116 C.3       20 UNK        -0.1800 
    112 C         -3.0099  -19.0911  -54.7494 C.2       20 UNK         0.5000 
    113 O         -2.6648  -18.0203  -55.2486 O.2       20 UNK        -0.5000 
    114 N         -4.2232  -19.3281  -54.2241 N.am      21 UNK        -0.5000 
    115 CA        -5.3767  -18.4187  -54.1913 C.3       21 UNK         0.1400 
    116 CB        -5.8709  -18.1145  -55.6212 C.3       21 UNK        -0.1800 
    117 C         -5.1727  -17.1391  -53.3476 C.2       21 UNK         0.5000 
    118 O         -5.9531  -16.1945  -53.4830 O.2       21 UNK        -0.5000 
    119 N         -4.1639  -17.1547  -52.4666 N.am      22 UNK        -0.5000 
    120 CA        -3.7898  -16.0971  -51.5111 C.3       22 UNK         0.1400 
    121 C         -3.2042  -14.8077  -52.1605 C.2       22 UNK         0.5000 
    122 N         -2.6545  -13.9035  -51.3597 N.am      22 UNK        -0.7600 
    123 O         -3.2144  -14.6123  -53.3736 O.2       22 UNK        -0.5000 
    124 C124       -4.9175  -15.7740  -50.4857 C.3       23 UNK        -0.0398 
    125 S125       -5.5480  -17.2635  -49.6337 S.3       23 UNK        -0.2404 
    126 C126       -4.6660  -17.2039  -48.0422 C.3       23 UNK        -0.0205 
    127 H127       -0.8450   -7.3896  -45.3836 H         1 UNK         0.0600 
    128 H128        0.6603   -7.4786  -44.4645 H         1 UNK         0.0600 
    129 H129       -0.7943   -8.2766  -43.8574 H         1 UNK         0.0600 
    130 H130       -0.8092   -8.7052  -47.1403 H         1 UNK         0.3000 
    131 H131       -0.6895  -10.4033  -48.4920 H         1 UNK         0.0600 
    132 H132       -1.1303  -11.9242  -46.4343 H         1 UNK         0.0800 
    133 H133        0.5749  -12.2704  -46.4349 H         1 UNK         0.0800 
    134 H134        0.7251  -14.9345  -47.1860 H         1 UNK         0.0800 
    135 H135       -0.7092  -14.5308  -46.2789 H         1 UNK         0.0800 
    136 H136       -3.0024  -15.1931  -47.2641 H         1 UNK         0.1150 
    137 H137       -2.9949  -19.0153  -49.1733 H         1 UNK         0.1150 
    138 H138        0.7004  -16.9279  -48.5308 H         1 UNK         0.1150 
    139 H139        0.1549  -18.9201  -50.5005 H         1 UNK         0.0800 
    140 H140        0.6649  -19.4149  -48.9031 H         1 UNK         0.0800 
    141 H141       -2.6685  -21.1373  -48.0172 H         1 UNK         0.0800 
    142 H142       -1.2469  -20.4212  -47.3841 H         1 UNK         0.0800 
    143 H143       -0.5290  -23.1132  -48.3160 H         1 UNK         0.0600 
    144 H144        0.0589  -21.4859  -46.1186 H         1 UNK         0.3000 
    145 H145        1.4262  -23.9340  -43.8875 H         1 UNK         0.0600 
    146 H146        3.2282  -22.2139  -43.9779 H         1 UNK         0.0600 
    147 H147        3.2263  -23.2131  -45.4229 H         1 UNK         0.0600 
    148 H148        2.5744  -21.5839  -45.4885 H         1 UNK         0.0600 
    149 H149        0.9060  -21.1242  -43.6347 H         1 UNK         0.3000 
    150 H150       -2.3341  -21.4104  -42.1691 H         1 UNK         0.0600 
    151 H151       -0.7264  -21.8289  -40.3034 H         1 UNK         0.0600 
    152 H152       -1.1888  -20.1355  -40.3750 H         1 UNK         0.0600 
    153 H153        0.3876  -20.6456  -40.9784 H         1 UNK         0.0600 
    154 H154       -0.5941  -19.1964  -42.7235 H         1 UNK         0.3000 
    155 H155       -1.7450  -18.5163  -46.0196 H         1 UNK         0.0600 
    156 H156       -3.4690  -17.4796  -44.6204 H         1 UNK         0.0600 
    157 H157       -2.1835  -16.3089  -44.8748 H         1 UNK         0.0600 
    158 H158       -2.3129  -17.1542  -43.3355 H         1 UNK         0.0600 
    159 H159        0.0873  -17.1665  -44.3087 H         1 UNK         0.3000 
    160 H160        2.9519  -19.0763  -44.8725 H         1 UNK         0.0600 
    161 H161        2.3244  -16.6730  -46.6574 H         1 UNK         0.0600 
    162 H162        2.9051  -18.2388  -47.2015 H         1 UNK         0.0600 
    163 H163        3.9367  -17.2212  -46.2072 H         1 UNK         0.0600 
    164 H164        2.5389  -16.2952  -44.2012 H         1 UNK         0.3000 
    165 H165        1.7221  -16.8278  -40.7958 H         1 UNK         0.0600 
    166 H166        3.8730  -15.7230  -40.2376 H         1 UNK         0.0600 
    167 H167        4.1538  -17.4028  -40.6662 H         1 UNK         0.0600 
    168 H168        4.5266  -16.1317  -41.8247 H         1 UNK         0.0600 
    169 H169        2.6869  -14.5137  -42.1534 H         1 UNK         0.3000 
    170 H170       -0.2030  -13.6029  -43.9119 H         1 UNK         0.0600 
    171 H171       -0.9489  -12.9638  -41.6097 H         1 UNK         0.0600 
    172 H172        0.6712  -12.3816  -41.2427 H         1 UNK         0.0600 
    173 H173       -0.2968  -11.5891  -42.4869 H         1 UNK         0.0600 
    174 H174        1.9100  -11.9360  -43.4376 H         1 UNK         0.3000 
    175 H175        3.2318  -11.4915  -45.2002 H         1 UNK         0.0600 
    176 H176        5.2253  -13.6691  -44.3781 H         1 UNK         0.0600 
    177 H177        5.6810  -12.0518  -44.9175 H         1 UNK         0.0600 
    178 H178        4.7414  -12.2633  -43.4485 H         1 UNK         0.0600 
    179 H179        3.3242  -12.0803  -47.2985 H         1 UNK         0.3000 
    180 H180        5.1539  -13.9265  -49.2947 H         1 UNK         0.0600 
    181 H181        2.4711  -15.3208  -48.8039 H         1 UNK         0.0600 
    182 H182        4.0419  -16.1121  -48.8518 H         1 UNK         0.0600 
    183 H183        3.3945  -15.3674  -50.3033 H         1 UNK         0.0600 
    184 H184        2.3570  -12.9564  -49.3890 H         1 UNK         0.3000 
    185 H185        3.2672   -9.6496  -50.1662 H         1 UNK         0.0600 
    186 H186        3.4388  -10.7159  -52.4217 H         1 UNK         0.0600 
    187 H187        2.0491  -11.7324  -52.0594 H         1 UNK         0.0600 
    188 H188        1.8617   -9.9823  -52.1814 H         1 UNK         0.0600 
    189 H189        0.7352  -10.9257  -50.1166 H         1 UNK         0.3000 
    190 H190       -2.5753  -22.3807  -45.4764 H         1 UNK         0.3000 
    191 H191       -4.8139  -23.8969  -46.1914 H         1 UNK         0.0600 
    192 H192       -4.8592  -22.1764  -44.4322 H         1 UNK         0.0600 
    193 H193       -5.4174  -23.7095  -43.7806 H         1 UNK         0.0600 
    194 H194       -3.7957  -23.1389  -43.4100 H         1 UNK         0.0600 
    195 H195       -2.0031  -24.8131  -44.1466 H         1 UNK         0.3000 
    196 H196       -2.8200  -27.4775  -43.6045 H         1 UNK         0.0600 
    197 H197       -0.4382  -27.7560  -42.8858 H         1 UNK         0.0600 
    198 H198       -1.1338  -26.2715  -42.2523 H         1 UNK         0.0600 
    199 H199       -0.0289  -26.2108  -43.6236 H         1 UNK         0.0600 
    200 H200       -0.7933  -26.1245  -46.2358 H         1 UNK         0.3000 
    201 H201        0.0509  -28.6126  -47.3007 H         1 UNK         0.0600 
    202 H202        1.2874  -26.5434  -47.7307 H         1 UNK         0.0600 
    203 H203       -0.0877  -25.8325  -48.5740 H         1 UNK         0.0600 
    204 H204        0.7576  -27.2133  -49.2643 H         1 UNK         0.0600 
    205 H205       -2.5475  -26.3687  -48.4808 H         1 UNK         0.3000 
    206 H206       -3.9407  -28.5890  -49.8189 H         1 UNK         0.0600 
    207 H207       -2.0610  -28.0692  -51.4095 H         1 UNK         0.0600 
    208 H208       -3.6108  -27.6432  -52.1008 H         1 UNK         0.0600 
    209 H209       -2.5685  -26.3819  -51.4539 H         1 UNK         0.0600 
    210 H210       -4.6340  -26.5226  -47.7566 H         1 UNK         0.3000 
    211 H211       -6.3090  -25.1606  -47.1990 H         1 UNK         0.0600 
    212 H212       -7.8397  -26.3639  -49.5504 H         1 UNK         0.0600 
    213 H213       -8.5225  -25.5891  -48.1290 H         1 UNK         0.0600 
    214 H214       -7.6650  -27.1110  -47.9628 H         1 UNK         0.0600 
    215 H215       -4.3006  -24.0859  -48.9845 H         1 UNK         0.3000 
    216 H216       -3.6740  -22.3146  -50.0996 H         1 UNK         0.0600 
    217 H217       -4.8885  -20.1983  -49.9598 H         1 UNK         0.0600 
    218 H218       -5.0227  -21.0146  -48.4101 H         1 UNK         0.0600 
    219 H219       -6.3829  -21.0086  -49.5300 H         1 UNK         0.0600 
    220 H220       -5.4879  -24.4783  -51.4794 H         1 UNK         0.3000 
    221 H221       -6.5639  -23.2219  -53.8145 H         1 UNK         0.0600 
    222 H222       -5.6265  -26.1156  -53.4217 H         1 UNK         0.0600 
    223 H223       -7.2243  -25.5101  -52.9829 H         1 UNK         0.0600 
    224 H224       -6.7210  -25.5328  -54.6666 H         1 UNK         0.0600 
    225 H225       -5.7666  -23.2368  -55.9230 H         1 UNK         0.3000 
    226 H226       -4.4367  -22.8598  -57.6085 H         1 UNK         0.0600 
    227 H227       -3.4548  -25.1236  -57.2538 H         1 UNK         0.0600 
    228 H228       -2.2794  -23.9937  -57.9080 H         1 UNK         0.0600 
    229 H229       -2.2124  -24.4329  -56.2103 H         1 UNK         0.0600 
    230 H230       -2.8216  -22.2285  -54.5123 H         1 UNK         0.3000 
    231 H231       -1.1866  -20.0255  -55.3895 H         1 UNK         0.0600 
    232 H232       -2.2498  -20.7791  -52.6117 H         1 UNK         0.0600 
    233 H233       -1.0016  -19.5791  -52.9263 H         1 UNK         0.0600 
    234 H234       -0.7054  -21.2694  -53.3020 H         1 UNK         0.0600 
    235 H235       -4.3852  -20.2257  -53.7766 H         1 UNK         0.3000 
    236 H236       -6.1683  -18.9749  -53.6871 H         1 UNK         0.0600 
    237 H237       -6.0240  -19.0322  -56.1891 H         1 UNK         0.0600 
    238 H238       -6.8233  -17.5837  -55.6029 H         1 UNK         0.0600 
    239 H239       -5.1626  -17.4936  -56.1703 H         1 UNK         0.0600 
    240 H240       -3.5833  -17.9788  -52.4493 H         1 UNK         0.3000 
    241 H241       -2.9517  -16.5232  -50.9619 H         1 UNK         0.0600 
    242 H242       -2.2661  -13.0689  -51.7696 H         1 UNK         0.3800 
    243 H243       -2.5759  -14.0460  -50.3648 H         1 UNK         0.3800 
    244 H244       -4.5716  -15.0625  -49.7351 H         1 UNK         0.0800 
    245 H245       -5.7575  -15.2892  -50.9845 H         1 UNK         0.0800 
    246 H246       -5.0421  -16.3595  -47.4626 H         1 UNK         0.0800 
    247 H247       -4.9106  -18.1002  -47.4707 H         1 UNK         0.0800 
@<TRIPOS>BOND
     1    1    2 1    
     2    1  127 1    
     3    1  128 1    
     4    1  129 1    
     5    2    3 2    
     6    2    4 am   BACKBONE|DICT|INTERRES
     7    4    5 1    
     8    4  130 1    
     9    5    6 1    
    10    5   65 1    
    11    5  131 1    
    12    6    7 1    
    13    6  132 1    
    14    6  133 1    
    15    7    8 1    
    16    8    9 1    
    17    8  134 1    
    18    8  135 1    
    19    9   10 ar   
    20    9   14 ar   
    21   10   11 ar   
    22   10  136 1    
    23   11   12 ar   
    24   11  126 1    
    25   12   13 ar   
    26   12  137 1    
    27   13   14 ar   
    28   13   15 1    
    29   14  138 1    
    30   15   16 1    
    31   15  139 1    
    32   15  140 1    
    33   16   17 1    
    34   17   18 1    
    35   17  141 1    
    36   17  142 1    
    37   18   19 1    
    38   18   67 1    
    39   18  143 1    
    40   19   20 am   BACKBONE|DICT|INTERRES
    41   19  144 1    
    42   20   21 2    
    43   20   22 1    
    44   22   23 1    
    45   22   24 1    
    46   22  145 1    
    47   23  146 1    
    48   23  147 1    
    49   23  148 1    
    50   24   25 am   BACKBONE|DICT|INTERRES
    51   24  149 1    
    52   25   26 2    
    53   25   27 1    
    54   27   28 1    
    55   27   29 1    
    56   27  150 1    
    57   28  151 1    
    58   28  152 1    
    59   28  153 1    
    60   29   30 am   BACKBONE|DICT|INTERRES
    61   29  154 1    
    62   30   31 2    
    63   30   32 1    
    64   32   33 1    
    65   32   34 1    
    66   32  155 1    
    67   33  156 1    
    68   33  157 1    
    69   33  158 1    
    70   34   35 am   BACKBONE|DICT|INTERRES
    71   34  159 1    
    72   35   36 2    
    73   35   37 1    
    74   37   38 1    
    75   37   39 1    
    76   37  160 1    
    77   38  161 1    
    78   38  162 1    
    79   38  163 1    
    80   39   40 am   BACKBONE|DICT|INTERRES
    81   39  164 1    
    82   40   41 2    
    83   40   42 1    
    84   42   43 1    
    85   42   44 1    
    86   42  165 1    
    87   43  166 1    
    88   43  167 1    
    89   43  168 1    
    90   44   45 am   BACKBONE|DICT|INTERRES
    91   44  169 1    
    92   45   46 2    
    93   45   47 1    
    94   47   48 1    
    95   47   49 1    
    96   47  170 1    
    97   48  171 1    
    98   48  172 1    
    99   48  173 1    
   100   49   50 am   BACKBONE|DICT|INTERRES
   101   49  174 1    
   102   50   51 2    
   103   50   52 1    
   104   52   53 1    
   105   52   54 1    
   106   52  175 1    
   107   53  176 1    
   108   53  177 1    
   109   53  178 1    
   110   54   55 am   BACKBONE|DICT|INTERRES
   111   54  179 1    
   112   55   56 2    
   113   55   57 1    
   114   57   58 1    
   115   57   59 1    
   116   57  180 1    
   117   58  181 1    
   118   58  182 1    
   119   58  183 1    
   120   59   60 am   BACKBONE|DICT|INTERRES
   121   59  184 1    
   122   60   61 2    
   123   60   62 1    
   124   62   63 1    
   125   62   64 1    
   126   62  185 1    
   127   63  186 1    
   128   63  187 1    
   129   63  188 1    
   130   64   65 am   BACKBONE|DICT|INTERRES
   131   64  189 1    
   132   65   66 2    
   133   67   68 2    
   134   67   69 am   BACKBONE|DICT|INTERRES
   135   69   70 1    
   136   69  190 1    
   137   70   71 1    
   138   70   72 1    
   139   70  191 1    
   140   71  192 1    
   141   71  193 1    
   142   71  194 1    
   143   72   73 2    
   144   72   74 am   BACKBONE|DICT|INTERRES
   145   74   75 1    
   146   74  195 1    
   147   75   76 1    
   148   75   77 1    
   149   75  196 1    
   150   76  197 1    
   151   76  198 1    
   152   76  199 1    
   153   77   78 2    
   154   77   79 am   BACKBONE|DICT|INTERRES
   155   79   80 1    
   156   79  200 1    
   157   80   81 1    
   158   80   82 1    
   159   80  201 1    
   160   81  202 1    
   161   81  203 1    
   162   81  204 1    
   163   82   83 2    
   164   82   84 am   BACKBONE|DICT|INTERRES
   165   84   85 1    
   166   84  205 1    
   167   85   86 1    
   168   85   87 1    
   169   85  206 1    
   170   86  207 1    
   171   86  208 1    
   172   86  209 1    
   173   87   88 2    
   174   87   89 am   BACKBONE|DICT|INTERRES
   175   89   90 1    
   176   89  210 1    
   177   90   91 1    
   178   90   92 1    
   179   90  211 1    
   180   91  212 1    
   181   91  213 1    
   182   91  214 1    
   183   92   93 2    
   184   92   94 am   BACKBONE|DICT|INTERRES
   185   94   95 1    
   186   94  215 1    
   187   95   96 1    
   188   95   97 1    
   189   95  216 1    
   190   96  217 1    
   191   96  218 1    
   192   96  219 1    
   193   97   98 2    
   194   97   99 am   BACKBONE|DICT|INTERRES
   195   99  100 1    
   196   99  220 1    
   197  100  101 1    
   198  100  102 1    
   199  100  221 1    
   200  101  222 1    
   201  101  223 1    
   202  101  224 1    
   203  102  103 2    
   204  102  104 am   BACKBONE|DICT|INTERRES
   205  104  105 1    
   206  104  225 1    
   207  105  106 1    
   208  105  107 1    
   209  105  226 1    
   210  106  227 1    
   211  106  228 1    
   212  106  229 1    
   213  107  108 2    
   214  107  109 am   BACKBONE|DICT|INTERRES
   215  109  110 1    
   216  109  230 1    
   217  110  111 1    
   218  110  112 1    
   219  110  231 1    
   220  111  232 1    
   221  111  233 1    
   222  111  234 1    
   223  112  113 2    
   224  112  114 am   BACKBONE|DICT|INTERRES
   225  114  115 1    
   226  114  235 1    
   227  115  116 1    
   228  115  117 1    
   229  115  236 1    
   230  116  237 1    
   231  116  238 1    
   232  116  239 1    
   233  117  118 2    
   234  117  119 am   BACKBONE|DICT|INTERRES
   235  119  120 1    
   236  119  240 1    
   237  120  121 1    
   238  120  124 1    
   239  120  241 1    
   240  121  122 am   BACKBONE|DICT|INTERRES
   241  121  123 2    
   242  122  242 1    
   243  122  243 1    
   244  124  125 1    
   245  124  244 1    
   246  124  245 1    
   247  125  126 1    
   248  126  246 1    
   249  126  247 1    
@<TRIPOS>SUBSTRUCTURE
     1 UNK         1 GROUP             0       ****    0 ROOT    
