@<TRIPOS>MOLECULE
3R540
247   249    1
SMALL
USER_CHARGES


@<TRIPOS>ATOM
      1 CA         -2.9345  -12.6228  -48.1488 C.3       0 UNK        -0.1800 
      2 C          -1.5093  -12.9528  -48.5682 C.2       0 UNK         0.5000 
      3 O          -0.6694  -12.0566  -48.6426 O.2       0 UNK        -0.5000 
      4 N          -1.2364  -14.2403  -48.8205 N.am      1 UNK        -0.5000 
      5 CA          0.0385  -14.7973  -49.3022 C.3       1 UNK         0.1400 
      6 C6         -0.1065  -16.3231  -49.5120 C.3       23 UNK        -0.0398 
      7 S7          1.2139  -17.0869  -50.5087 S.3       23 UNK        -0.2404 
      8 C8          0.3472  -18.5966  -51.0391 C.3       23 UNK        -0.0205 
      9 C9          1.2721  -19.6478  -51.6414 C.ar      23 UNK        -0.0193 
     10 C10         0.9242  -20.2457  -52.8545 C.ar      23 UNK        -0.1150 
     11 C11         1.7236  -21.2413  -53.4192 C.ar      23 UNK        -0.0193 
     12 C12         2.9043  -21.6187  -52.7728 C.ar      23 UNK        -0.1150 
     13 C13         3.2717  -21.0292  -51.5577 C.ar      23 UNK        -0.0193 
     14 C14         2.4423  -20.0563  -50.9880 C.ar      23 UNK        -0.1150 
     15 C15         4.5915  -21.4116  -50.8992 C.3       23 UNK        -0.0205 
     16 S16         4.5242  -23.0304  -50.0613 S.3       23 UNK        -0.2404 
     17 C17         4.3149  -22.5778  -48.3028 C.3       23 UNK        -0.0398 
     18 CA          3.1163  -23.2998  -47.6387 C.3       11 UNK         0.1400 
     19 N           3.2442  -23.3668  -46.1790 N.am      11 UNK        -0.5000 
     20 C           2.4440  -24.0945  -45.3854 C.2       10 UNK         0.5000 
     21 O           1.5289  -24.8075  -45.7986 O.2       10 UNK        -0.5000 
     22 CA          2.6814  -23.9800  -43.8694 C.3       10 UNK         0.1400 
     23 CB          3.8157  -24.9175  -43.4288 C.3       10 UNK        -0.1800 
     24 N           2.9615  -22.6211  -43.3939 N.am      10 UNK        -0.5000 
     25 C           2.1488  -21.5675  -43.5511 C.2       9 UNK         0.5000 
     26 O           1.1428  -21.5732  -44.2603 O.2       9 UNK        -0.5000 
     27 CA          2.5065  -20.2915  -42.7710 C.3       9 UNK         0.1400 
     28 CB          2.8819  -19.1461  -43.7248 C.3       9 UNK        -0.1800 
     29 N           1.3871  -19.8666  -41.9323 N.am      9 UNK        -0.5000 
     30 C           0.8955  -20.5535  -40.8914 C.2       8 UNK         0.5000 
     31 O           1.3770  -21.6100  -40.4798 O.2       8 UNK        -0.5000 
     32 CA         -0.3335  -19.9625  -40.1829 C.3       8 UNK         0.1400 
     33 CB          0.0954  -18.8688  -39.1910 C.3       8 UNK        -0.1800 
     34 N          -1.2928  -19.3950  -41.1310 N.am      8 UNK        -0.5000 
     35 C          -2.4337  -19.9844  -41.5154 C.2       7 UNK         0.5000 
     36 O          -2.7713  -21.1122  -41.1537 O.2       7 UNK        -0.5000 
     37 CA         -3.3863  -19.1773  -42.4232 C.3       7 UNK         0.1400 
     38 CB         -4.5908  -18.6720  -41.6132 C.3       7 UNK        -0.1800 
     39 N          -2.7371  -18.0263  -43.0515 N.am      7 UNK        -0.5000 
     40 C          -2.0700  -18.0774  -44.2111 C.2       6 UNK         0.5000 
     41 O          -2.0251  -19.0786  -44.9222 O.2       6 UNK        -0.5000 
     42 CA         -1.3135  -16.8040  -44.6496 C.3       6 UNK         0.1400 
     43 CB         -2.1140  -16.0516  -45.7229 C.3       6 UNK        -0.1800 
     44 N          -0.9826  -15.8808  -43.5549 N.am      6 UNK        -0.5000 
     45 C          -0.2013  -16.1877  -42.5066 C.2       5 UNK         0.5000 
     46 O           0.3088  -17.2976  -42.3629 O.2       5 UNK        -0.5000 
     47 CA          0.0395  -15.1216  -41.4210 C.3       5 UNK         0.1400 
     48 CB          1.5427  -14.9080  -41.1796 C.3       5 UNK        -0.1800 
     49 N          -0.5990  -13.8387  -41.7171 N.am      5 UNK        -0.5000 
     50 C          -1.8777  -13.5450  -41.4379 C.2       4 UNK         0.5000 
     51 O          -2.6508  -14.3386  -40.9003 O.2       4 UNK        -0.5000 
     52 CA         -2.3933  -12.1453  -41.8345 C.3       4 UNK         0.1400 
     53 CB         -2.4381  -11.2231  -40.6066 C.3       4 UNK        -0.1800 
     54 N          -1.6051  -11.4960  -42.8847 N.am      4 UNK        -0.5000 
     55 C          -1.5144  -11.9263  -44.1493 C.2       3 UNK         0.5000 
     56 O          -2.1134  -12.9181  -44.5703 O.2       3 UNK        -0.5000 
     57 CA         -0.5646  -11.1644  -45.0992 C.3       3 UNK         0.1400 
     58 CB          0.2040   -9.9966  -44.4401 C.3       3 UNK        -0.1800 
     59 N           0.3636  -12.0912  -45.7527 N.am      3 UNK        -0.5000 
     60 C           1.2158  -12.9333  -45.1454 C.2       2 UNK         0.5000 
     61 O           1.4016  -12.9505  -43.9283 O.2       2 UNK        -0.5000 
     62 CA          1.9287  -13.9531  -46.0518 C.3       2 UNK         0.1400 
     63 CB          2.4788  -15.1699  -45.2836 C.3       2 UNK        -0.1800 
     64 N           0.9953  -14.4107  -47.0787 N.am      2 UNK        -0.5000 
     65 C           1.2436  -14.4582  -48.3919 C.2       1 UNK         0.5000 
     66 O           2.3409  -14.2077  -48.8921 O.2       1 UNK        -0.5000 
     67 C           1.7772  -22.6622  -48.0478 C.2       11 UNK         0.5000 
     68 O           1.0473  -23.2400  -48.8501 O.2       11 UNK        -0.5000 
     69 N           1.4595  -21.5102  -47.4420 N.am      12 UNK        -0.5000 
     70 CA          0.2282  -20.7701  -47.6944 C.3       12 UNK         0.1400 
     71 CB          0.3326  -19.3695  -47.0798 C.3       12 UNK        -0.1800 
     72 C          -1.0275  -21.5141  -47.2119 C.2       12 UNK         0.5000 
     73 O          -2.0292  -21.5245  -47.9256 O.2       12 UNK        -0.5000 
     74 N          -0.9391  -22.1698  -46.0481 N.am      13 UNK        -0.5000 
     75 CA         -1.9967  -23.0071  -45.4859 C.3       13 UNK         0.1400 
     76 CB         -1.5945  -23.4659  -44.0763 C.3       13 UNK        -0.1800 
     77 C          -2.3369  -24.2098  -46.3865 C.2       13 UNK         0.5000 
     78 O          -3.5168  -24.4859  -46.6062 O.2       13 UNK        -0.5000 
     79 N          -1.3041  -24.8722  -46.9280 N.am      14 UNK        -0.5000 
     80 CA         -1.4396  -25.9648  -47.8933 C.3       14 UNK         0.1400 
     81 CB         -0.0895  -26.6824  -48.0427 C.3       14 UNK        -0.1800 
     82 C          -1.9566  -25.4904  -49.2655 C.2       14 UNK         0.5000 
     83 O          -2.7485  -26.1938  -49.8935 O.2       14 UNK        -0.5000 
     84 N          -1.5084  -24.3059  -49.6998 N.am      15 UNK        -0.5000 
     85 CA         -1.8572  -23.6865  -50.9783 C.3       15 UNK         0.1400 
     86 CB         -0.8335  -22.5901  -51.2915 C.3       15 UNK        -0.1800 
     87 C          -3.2717  -23.0848  -51.0413 C.2       15 UNK         0.5000 
     88 O          -3.6888  -22.7114  -52.1356 O.2       15 UNK        -0.5000 
     89 N          -3.9599  -22.9753  -49.8957 N.am      16 UNK        -0.5000 
     90 CA         -5.2492  -22.3012  -49.7010 C.3       16 UNK         0.1400 
     91 CB         -6.3653  -22.9311  -50.5609 C.3       16 UNK        -0.1800 
     92 C          -5.1339  -20.7695  -49.8583 C.2       16 UNK         0.5000 
     93 O          -5.9657  -20.1361  -50.5154 O.2       16 UNK        -0.5000 
     94 N          -4.0959  -20.2134  -49.2160 N.am      17 UNK        -0.5000 
     95 CA         -3.7486  -18.7975  -49.1023 C.3       17 UNK         0.1400 
     96 CB         -4.7487  -18.0820  -48.1666 C.3       17 UNK        -0.1800 
     97 C          -3.5732  -18.1204  -50.4758 C.2       17 UNK         0.5000 
     98 O          -3.0723  -18.7511  -51.4060 O.2       17 UNK        -0.5000 
     99 N          -3.9694  -16.8461  -50.5790 N.am      18 UNK        -0.5000 
    100 CA        -4.0307  -16.1065  -51.8411 C.3       18 UNK         0.1400 
    101 CB        -3.8587  -14.6079  -51.5460 C.3       18 UNK        -0.1800 
    102 C         -5.3483  -16.3607  -52.6029 C.2       18 UNK         0.5000 
    103 O         -5.4318  -16.0320  -53.7862 O.2       18 UNK        -0.5000 
    104 N         -6.3570  -16.9149  -51.9129 N.am      19 UNK        -0.5000 
    105 CA        -7.7157  -17.1205  -52.4146 C.3       19 UNK         0.1400 
    106 CB        -8.6310  -17.5012  -51.2405 C.3       19 UNK        -0.1800 
    107 C         -7.8093  -18.1712  -53.5338 C.2       19 UNK         0.5000 
    108 O         -8.5751  -17.9772  -54.4791 O.2       19 UNK        -0.5000 
    109 N         -7.0330  -19.2541  -53.4128 N.am      20 UNK        -0.5000 
    110 CA        -7.0035  -20.3598  -54.3708 C.3       20 UNK         0.1400 
    111 CB        -8.0555  -21.4148  -53.9766 C.3       20 UNK        -0.1800 
    112 C         -5.5812  -20.9289  -54.5102 C.2       20 UNK         0.5000 
    113 O         -5.4294  -22.1380  -54.6832 O.2       20 UNK        -0.5000 
    114 N         -4.5878  -20.0284  -54.4367 N.am      21 UNK        -0.5000 
    115 CA        -3.1325  -20.2269  -54.4232 C.3       21 UNK         0.1400 
    116 CB        -2.4714  -18.8828  -54.7823 C.3       21 UNK        -0.1800 
    117 C         -2.5999  -21.3603  -55.3251 C.2       21 UNK         0.5000 
    118 O         -2.3050  -21.1269  -56.4993 O.2       21 UNK        -0.5000 
    119 N         -2.4920  -22.5617  -54.7461 N.am      22 UNK        -0.5000 
    120 CA        -2.0412  -23.8098  -55.3878 C.3       22 UNK         0.1400 
    121 C         -2.9891  -24.3368  -56.5107 C.2       22 UNK         0.5000 
    122 N         -4.2577  -23.9479  -56.5392 N.am      22 UNK        -0.7600 
    123 O         -2.5855  -25.1354  -57.3525 O.2       22 UNK        -0.5000 
    124 C124       -0.5447  -23.7760  -55.8196 C.3       23 UNK        -0.0398 
    125 S125        0.5802  -23.5535  -54.3986 S.3       23 UNK        -0.2404 
    126 C126        1.2961  -21.9104  -54.7177 C.3       23 UNK        -0.0205 
    127 H127       -3.3921  -11.9513  -48.8751 H         1 UNK         0.0600 
    128 H128       -2.9370  -12.1291  -47.1775 H         1 UNK         0.0600 
    129 H129       -3.5541  -13.5166  -48.0742 H         1 UNK         0.0600 
    130 H130       -1.9865  -14.9072  -48.7253 H         1 UNK         0.3000 
    131 H131        0.2290  -14.3356  -50.2733 H         1 UNK         0.0600 
    132 H132       -0.1717  -16.8399  -48.5543 H         1 UNK         0.0800 
    133 H133       -1.0465  -16.5213  -50.0278 H         1 UNK         0.0800 
    134 H134       -0.4167  -18.3063  -51.7623 H         1 UNK         0.0800 
    135 H135       -0.1878  -19.0299  -50.1969 H         1 UNK         0.0800 
    136 H136        0.0089  -19.9565  -53.3478 H         1 UNK         0.1150 
    137 H137        3.5342  -22.3796  -53.2120 H         1 UNK         0.1150 
    138 H138        2.7152  -19.6027  -50.0456 H         1 UNK         0.1150 
    139 H139        5.3621  -21.4611  -51.6698 H         1 UNK         0.0800 
    140 H140        4.9204  -20.6339  -50.2088 H         1 UNK         0.0800 
    141 H141        4.2414  -21.4955  -48.1849 H         1 UNK         0.0800 
    142 H142        5.2395  -22.8660  -47.8009 H         1 UNK         0.0800 
    143 H143        3.1061  -24.3330  -47.9939 H         1 UNK         0.0600 
    144 H144        3.9636  -22.8031  -45.7508 H         1 UNK         0.3000 
    145 H145        1.7646  -24.3083  -43.3755 H         1 UNK         0.0600 
    146 H146        3.9124  -24.9369  -42.3431 H         1 UNK         0.0600 
    147 H147        3.6255  -25.9413  -43.7541 H         1 UNK         0.0600 
    148 H148        4.7761  -24.6132  -43.8467 H         1 UNK         0.0600 
    149 H149        3.7676  -22.5215  -42.7941 H         1 UNK         0.3000 
    150 H150        3.3610  -20.4941  -42.1222 H         1 UNK         0.0600 
    151 H151        3.6985  -19.4357  -44.3869 H         1 UNK         0.0600 
    152 H152        3.2072  -18.2653  -43.1706 H         1 UNK         0.0600 
    153 H153        2.0389  -18.8479  -44.3482 H         1 UNK         0.0600 
    154 H154        0.9450  -18.9873  -42.1886 H         1 UNK         0.3000 
    155 H155       -0.8025  -20.7645  -39.6087 H         1 UNK         0.0600 
    156 H156        0.5874  -18.0348  -39.6926 H         1 UNK         0.0600 
    157 H157        0.7937  -19.2647  -38.4525 H         1 UNK         0.0600 
    158 H158       -0.7624  -18.4729  -38.6472 H         1 UNK         0.0600 
    159 H159       -1.0366  -18.5072  -41.5451 H         1 UNK         0.3000 
    160 H160       -3.7582  -19.8554  -43.1945 H         1 UNK         0.0600 
    161 H161       -4.2845  -17.9900  -40.8187 H         1 UNK         0.0600 
    162 H162       -5.1253  -19.5007  -41.1470 H         1 UNK         0.0600 
    163 H163       -5.3019  -18.1467  -42.2511 H         1 UNK         0.0600 
    164 H164       -2.7510  -17.1565  -42.5388 H         1 UNK         0.3000 
    165 H165       -0.3715  -17.1300  -45.0946 H         1 UNK         0.0600 
    166 H166       -1.5777  -15.1718  -46.0735 H         1 UNK         0.0600 
    167 H167       -2.3018  -16.6884  -46.5880 H         1 UNK         0.0600 
    168 H168       -3.0800  -15.7184  -45.3413 H         1 UNK         0.0600 
    169 H169       -1.3737  -14.9492  -43.6120 H         1 UNK         0.3000 
    170 H170       -0.3824  -15.5174  -40.4948 H         1 UNK         0.0600 
    171 H171        2.0135  -15.8250  -40.8227 H         1 UNK         0.0600 
    172 H172        2.0645  -14.6121  -42.0887 H         1 UNK         0.0600 
    173 H173        1.7180  -14.1409  -40.4252 H         1 UNK         0.0600 
    174 H174       -0.0316  -13.1635  -42.2162 H         1 UNK         0.3000 
    175 H175       -3.4125  -12.2686  -42.2068 H         1 UNK         0.0600 
    176 H176       -1.4416  -11.0463  -40.1999 H         1 UNK         0.0600 
    177 H177       -2.8774  -10.2566  -40.8541 H         1 UNK         0.0600 
    178 H178       -3.0444  -11.6593  -39.8114 H         1 UNK         0.0600 
    179 H179       -1.0640  -10.6892  -42.6097 H         1 UNK         0.3000 
    180 H180       -1.1917  -10.7456  -45.8873 H         1 UNK         0.0600 
    181 H181        0.8407  -10.3292  -43.6195 H         1 UNK         0.0600 
    182 H182       -0.4807   -9.2429  -44.0496 H         1 UNK         0.0600 
    183 H183        0.8435   -9.4962  -45.1674 H         1 UNK         0.0600 
    184 H184        0.2650  -12.1546  -46.7601 H         1 UNK         0.3000 
    185 H185        2.7688  -13.4241  -46.5061 H         1 UNK         0.0600 
    186 H186        1.6863  -15.7212  -44.7795 H         1 UNK         0.0600 
    187 H187        2.9882  -15.8606  -45.9556 H         1 UNK         0.0600 
    188 H188        3.2010  -14.8638  -44.5259 H         1 UNK         0.0600 
    189 H189        0.0516  -14.5825  -46.7649 H         1 UNK         0.3000 
    190 H190        2.0684  -21.1472  -46.7244 H         1 UNK         0.3000 
    191 H191        0.1387  -20.6607  -48.7736 H         1 UNK         0.0600 
    192 H192       -0.5775  -18.7988  -47.2635 H         1 UNK         0.0600 
    193 H193        1.1656  -18.8092  -47.5049 H         1 UNK         0.0600 
    194 H194        0.4734  -19.4206  -46.0005 H         1 UNK         0.0600 
    195 H195       -0.0984  -22.0543  -45.4850 H         1 UNK         0.3000 
    196 H196       -2.8933  -22.3898  -45.3989 H         1 UNK         0.0600 
    197 H197       -2.3797  -24.0717  -43.6227 H         1 UNK         0.0600 
    198 H198       -1.4216  -22.6123  -43.4199 H         1 UNK         0.0600 
    199 H199       -0.6830  -24.0639  -44.0927 H         1 UNK         0.0600 
    200 H200       -0.3586  -24.6016  -46.6778 H         1 UNK         0.3000 
    201 H201       -2.1614  -26.6814  -47.4958 H         1 UNK         0.0600 
    202 H202        0.2468  -27.0906  -47.0895 H         1 UNK         0.0600 
    203 H203        0.6859  -26.0082  -48.4087 H         1 UNK         0.0600 
    204 H204       -0.1630  -27.5131  -48.7456 H         1 UNK         0.0600 
    205 H205       -0.7969  -23.8268  -49.1554 H         1 UNK         0.3000 
    206 H206       -1.7901  -24.4471  -51.7589 H         1 UNK         0.0600 
    207 H207        0.1781  -22.9917  -51.3496 H         1 UNK         0.0600 
    208 H208       -1.0479  -22.1209  -52.2510 H         1 UNK         0.0600 
    209 H209       -0.8441  -21.8032  -50.5386 H         1 UNK         0.0600 
    210 H210       -3.4946  -23.2822  -49.0518 H         1 UNK         0.3000 
    211 H211       -5.5165  -22.4722  -48.6573 H         1 UNK         0.0600 
    212 H212       -6.2025  -22.7668  -51.6256 H         1 UNK         0.0600 
    213 H213       -7.3366  -22.5023  -50.3122 H         1 UNK         0.0600 
    214 H214       -6.4315  -24.0061  -50.3943 H         1 UNK         0.0600 
    215 H215       -3.4320  -20.8384  -48.7599 H         1 UNK         0.3000 
    216 H216       -2.7682  -18.7665  -48.6255 H         1 UNK         0.0600 
    217 H217       -4.4334  -17.0638  -47.9376 H         1 UNK         0.0600 
    218 H218       -4.8263  -18.6055  -47.2132 H         1 UNK         0.0600 
    219 H219       -5.7492  -18.0365  -48.5988 H         1 UNK         0.0600 
    220 H220       -4.3707  -16.3939  -49.7707 H         1 UNK         0.3000 
    221 H221       -3.2080  -16.4149  -52.4887 H         1 UNK         0.0600 
    222 H222       -4.6224  -14.2384  -50.8607 H         1 UNK         0.0600 
    223 H223       -2.8826  -14.4045  -51.1078 H         1 UNK         0.0600 
    224 H224       -3.9261  -14.0180  -52.4611 H         1 UNK         0.0600 
    225 H225       -6.1874  -17.1983  -50.9602 H         1 UNK         0.3000 
    226 H226       -8.0671  -16.1711  -52.8243 H         1 UNK         0.0600 
    227 H227       -8.3091  -18.4280  -50.7633 H         1 UNK         0.0600 
    228 H228       -8.6452  -16.7194  -50.4809 H         1 UNK         0.0600 
    229 H229       -9.6587  -17.6450  -51.5768 H         1 UNK         0.0600 
    230 H230       -6.4596  -19.3629  -52.5824 H         1 UNK         0.3000 
    231 H231       -7.2602  -19.9874  -55.3647 H         1 UNK         0.0600 
    232 H232       -7.8647  -21.8169  -52.9823 H         1 UNK         0.0600 
    233 H233       -8.0633  -22.2502  -54.6777 H         1 UNK         0.0600 
    234 H234       -9.0585  -20.9882  -53.9753 H         1 UNK         0.0600 
    235 H235       -4.8766  -19.0690  -54.3173 H         1 UNK         0.3000 
    236 H236       -2.8507  -20.4683  -53.3974 H         1 UNK         0.0600 
    237 H237       -2.6839  -18.1244  -54.0307 H         1 UNK         0.0600 
    238 H238       -1.3876  -18.9753  -54.8499 H         1 UNK         0.0600 
    239 H239       -2.8241  -18.5075  -55.7437 H         1 UNK         0.0600 
    240 H240       -2.8703  -22.6613  -53.8061 H         1 UNK         0.3000 
    241 H241       -2.1242  -24.5673  -54.6078 H         1 UNK         0.0600 
    242 H242       -4.8706  -24.2984  -57.2573 H         1 UNK         0.3800 
    243 H243       -4.6187  -23.3034  -55.8364 H         1 UNK         0.3800 
    244 H244       -0.2616  -24.7188  -56.2898 H         1 UNK         0.0800 
    245 H245       -0.3718  -23.0059  -56.5719 H         1 UNK         0.0800 
    246 H246        0.5686  -21.2842  -55.2364 H         1 UNK         0.0800 
    247 H247        2.1517  -22.0107  -55.3869 H         1 UNK         0.0800 
@<TRIPOS>BOND
     1    1    2 1    
     2    1  127 1    
     3    1  128 1    
     4    1  129 1    
     5    2    3 2    
     6    2    4 am   BACKBONE|DICT|INTERRES
     7    4    5 1    
     8    4  130 1    
     9    5    6 1    
    10    5   65 1    
    11    5  131 1    
    12    6    7 1    
    13    6  132 1    
    14    6  133 1    
    15    7    8 1    
    16    8    9 1    
    17    8  134 1    
    18    8  135 1    
    19    9   10 ar   
    20    9   14 ar   
    21   10   11 ar   
    22   10  136 1    
    23   11   12 ar   
    24   11  126 1    
    25   12   13 ar   
    26   12  137 1    
    27   13   14 ar   
    28   13   15 1    
    29   14  138 1    
    30   15   16 1    
    31   15  139 1    
    32   15  140 1    
    33   16   17 1    
    34   17   18 1    
    35   17  141 1    
    36   17  142 1    
    37   18   19 1    
    38   18   67 1    
    39   18  143 1    
    40   19   20 am   BACKBONE|DICT|INTERRES
    41   19  144 1    
    42   20   21 2    
    43   20   22 1    
    44   22   23 1    
    45   22   24 1    
    46   22  145 1    
    47   23  146 1    
    48   23  147 1    
    49   23  148 1    
    50   24   25 am   BACKBONE|DICT|INTERRES
    51   24  149 1    
    52   25   26 2    
    53   25   27 1    
    54   27   28 1    
    55   27   29 1    
    56   27  150 1    
    57   28  151 1    
    58   28  152 1    
    59   28  153 1    
    60   29   30 am   BACKBONE|DICT|INTERRES
    61   29  154 1    
    62   30   31 2    
    63   30   32 1    
    64   32   33 1    
    65   32   34 1    
    66   32  155 1    
    67   33  156 1    
    68   33  157 1    
    69   33  158 1    
    70   34   35 am   BACKBONE|DICT|INTERRES
    71   34  159 1    
    72   35   36 2    
    73   35   37 1    
    74   37   38 1    
    75   37   39 1    
    76   37  160 1    
    77   38  161 1    
    78   38  162 1    
    79   38  163 1    
    80   39   40 am   BACKBONE|DICT|INTERRES
    81   39  164 1    
    82   40   41 2    
    83   40   42 1    
    84   42   43 1    
    85   42   44 1    
    86   42  165 1    
    87   43  166 1    
    88   43  167 1    
    89   43  168 1    
    90   44   45 am   BACKBONE|DICT|INTERRES
    91   44  169 1    
    92   45   46 2    
    93   45   47 1    
    94   47   48 1    
    95   47   49 1    
    96   47  170 1    
    97   48  171 1    
    98   48  172 1    
    99   48  173 1    
   100   49   50 am   BACKBONE|DICT|INTERRES
   101   49  174 1    
   102   50   51 2    
   103   50   52 1    
   104   52   53 1    
   105   52   54 1    
   106   52  175 1    
   107   53  176 1    
   108   53  177 1    
   109   53  178 1    
   110   54   55 am   BACKBONE|DICT|INTERRES
   111   54  179 1    
   112   55   56 2    
   113   55   57 1    
   114   57   58 1    
   115   57   59 1    
   116   57  180 1    
   117   58  181 1    
   118   58  182 1    
   119   58  183 1    
   120   59   60 am   BACKBONE|DICT|INTERRES
   121   59  184 1    
   122   60   61 2    
   123   60   62 1    
   124   62   63 1    
   125   62   64 1    
   126   62  185 1    
   127   63  186 1    
   128   63  187 1    
   129   63  188 1    
   130   64   65 am   BACKBONE|DICT|INTERRES
   131   64  189 1    
   132   65   66 2    
   133   67   68 2    
   134   67   69 am   BACKBONE|DICT|INTERRES
   135   69   70 1    
   136   69  190 1    
   137   70   71 1    
   138   70   72 1    
   139   70  191 1    
   140   71  192 1    
   141   71  193 1    
   142   71  194 1    
   143   72   73 2    
   144   72   74 am   BACKBONE|DICT|INTERRES
   145   74   75 1    
   146   74  195 1    
   147   75   76 1    
   148   75   77 1    
   149   75  196 1    
   150   76  197 1    
   151   76  198 1    
   152   76  199 1    
   153   77   78 2    
   154   77   79 am   BACKBONE|DICT|INTERRES
   155   79   80 1    
   156   79  200 1    
   157   80   81 1    
   158   80   82 1    
   159   80  201 1    
   160   81  202 1    
   161   81  203 1    
   162   81  204 1    
   163   82   83 2    
   164   82   84 am   BACKBONE|DICT|INTERRES
   165   84   85 1    
   166   84  205 1    
   167   85   86 1    
   168   85   87 1    
   169   85  206 1    
   170   86  207 1    
   171   86  208 1    
   172   86  209 1    
   173   87   88 2    
   174   87   89 am   BACKBONE|DICT|INTERRES
   175   89   90 1    
   176   89  210 1    
   177   90   91 1    
   178   90   92 1    
   179   90  211 1    
   180   91  212 1    
   181   91  213 1    
   182   91  214 1    
   183   92   93 2    
   184   92   94 am   BACKBONE|DICT|INTERRES
   185   94   95 1    
   186   94  215 1    
   187   95   96 1    
   188   95   97 1    
   189   95  216 1    
   190   96  217 1    
   191   96  218 1    
   192   96  219 1    
   193   97   98 2    
   194   97   99 am   BACKBONE|DICT|INTERRES
   195   99  100 1    
   196   99  220 1    
   197  100  101 1    
   198  100  102 1    
   199  100  221 1    
   200  101  222 1    
   201  101  223 1    
   202  101  224 1    
   203  102  103 2    
   204  102  104 am   BACKBONE|DICT|INTERRES
   205  104  105 1    
   206  104  225 1    
   207  105  106 1    
   208  105  107 1    
   209  105  226 1    
   210  106  227 1    
   211  106  228 1    
   212  106  229 1    
   213  107  108 2    
   214  107  109 am   BACKBONE|DICT|INTERRES
   215  109  110 1    
   216  109  230 1    
   217  110  111 1    
   218  110  112 1    
   219  110  231 1    
   220  111  232 1    
   221  111  233 1    
   222  111  234 1    
   223  112  113 2    
   224  112  114 am   BACKBONE|DICT|INTERRES
   225  114  115 1    
   226  114  235 1    
   227  115  116 1    
   228  115  117 1    
   229  115  236 1    
   230  116  237 1    
   231  116  238 1    
   232  116  239 1    
   233  117  118 2    
   234  117  119 am   BACKBONE|DICT|INTERRES
   235  119  120 1    
   236  119  240 1    
   237  120  121 1    
   238  120  124 1    
   239  120  241 1    
   240  121  122 am   BACKBONE|DICT|INTERRES
   241  121  123 2    
   242  122  242 1    
   243  122  243 1    
   244  124  125 1    
   245  124  244 1    
   246  124  245 1    
   247  125  126 1    
   248  126  246 1    
   249  126  247 1    
@<TRIPOS>SUBSTRUCTURE
     1 UNK         1 GROUP             0       ****    0 ROOT    
