@<TRIPOS>MOLECULE
3R540
247   249    1
SMALL
USER_CHARGES


@<TRIPOS>ATOM
      1 CA          5.0036  -12.6954  -45.4598 C.3       0 UNK        -0.1800 
      2 C           3.5010  -12.7284  -45.2267 C.2       0 UNK         0.5000 
      3 O           3.0515  -12.4782  -44.1095 O.2       0 UNK        -0.5000 
      4 N           2.7240  -13.0177  -46.2792 N.am      1 UNK        -0.5000 
      5 CA          1.2610  -13.1775  -46.2591 C.3       1 UNK         0.1400 
      6 C6          0.7000  -13.5676  -47.6492 C.3       23 UNK        -0.0398 
      7 S7          1.5428  -14.9933  -48.4174 S.3       23 UNK        -0.2404 
      8 C8          0.3960  -16.3478  -48.0306 C.3       23 UNK        -0.0205 
      9 C9          0.6239  -17.5323  -48.9548 C.ar      23 UNK        -0.0193 
     10 C10        -0.1784  -17.7054  -50.0855 C.ar      23 UNK        -0.1150 
     11 C11         0.0120  -18.8015  -50.9319 C.ar      23 UNK        -0.0193 
     12 C12         1.0095  -19.7350  -50.6360 C.ar      23 UNK        -0.1150 
     13 C13         1.8229  -19.5681  -49.5105 C.ar      23 UNK        -0.0193 
     14 C14         1.6319  -18.4594  -48.6815 C.ar      23 UNK        -0.1150 
     15 C15         2.8961  -20.5922  -49.1804 C.3       23 UNK        -0.0205 
     16 S16         2.1923  -21.9484  -48.2026 S.3       23 UNK        -0.2404 
     17 C17         3.6270  -23.0535  -48.0069 C.3       23 UNK        -0.0398 
     18 CA          3.5299  -24.0083  -46.7890 C.3       11 UNK         0.1400 
     19 N           3.5509  -23.2799  -45.5123 N.am      11 UNK        -0.5000 
     20 C           4.1826  -23.7084  -44.4102 C.2       10 UNK         0.5000 
     21 O           4.8414  -24.7480  -44.3624 O.2       10 UNK        -0.5000 
     22 CA          4.0500  -22.8480  -43.1391 C.3       10 UNK         0.1400 
     23 CB          5.0914  -21.7186  -43.1438 C.3       10 UNK        -0.1800 
     24 N           2.7159  -22.2783  -42.9442 N.am      10 UNK        -0.5000 
     25 C           1.5935  -22.9851  -42.7470 C.2       9 UNK         0.5000 
     26 O           1.5556  -24.2150  -42.7131 O.2       9 UNK        -0.5000 
     27 CA          0.2822  -22.1857  -42.6073 C.3       9 UNK         0.1400 
     28 CB          0.0710  -21.7368  -41.1545 C.3       9 UNK        -0.1800 
     29 N           0.2197  -21.0242  -43.4974 N.am      9 UNK        -0.5000 
     30 C           0.2646  -21.1039  -44.8349 C.2       8 UNK         0.5000 
     31 O           0.3580  -22.1650  -45.4478 O.2       8 UNK        -0.5000 
     32 CA          0.2633  -19.7805  -45.6123 C.3       8 UNK         0.1400 
     33 CB         -1.1646  -19.2401  -45.7916 C.3       8 UNK        -0.1800 
     34 N           1.1089  -18.7806  -44.9603 N.am      8 UNK        -0.5000 
     35 C           2.4506  -18.8057  -44.9810 C.2       7 UNK         0.5000 
     36 O           3.1118  -19.6365  -45.6029 O.2       7 UNK        -0.5000 
     37 CA          3.1792  -17.7405  -44.1403 C.3       7 UNK         0.1400 
     38 CB          3.2857  -16.4208  -44.9184 C.3       7 UNK        -0.1800 
     39 N           2.5297  -17.4902  -42.8535 N.am      7 UNK        -0.5000 
     40 C           2.3929  -18.4032  -41.8799 C.2       6 UNK         0.5000 
     41 O           2.8649  -19.5374  -41.9380 O.2       6 UNK        -0.5000 
     42 CA          1.5401  -18.0051  -40.6589 C.3       6 UNK         0.1400 
     43 CB          2.4303  -17.4243  -39.5506 C.3       6 UNK        -0.1800 
     44 N           0.4793  -17.0456  -40.9693 N.am      6 UNK        -0.5000 
     45 C          -0.4850  -17.1994  -41.8892 C.2       5 UNK         0.5000 
     46 O          -0.6280  -18.2272  -42.5521 O.2       5 UNK        -0.5000 
     47 CA         -1.4179  -15.9950  -42.1399 C.3       5 UNK         0.1400 
     48 CB         -2.8422  -16.3079  -41.6571 C.3       5 UNK        -0.1800 
     49 N          -0.9581  -14.7555  -41.5018 N.am      5 UNK        -0.5000 
     50 C           0.1210  -14.0523  -41.8717 C.2       4 UNK         0.5000 
     51 O           0.8317  -14.3428  -42.8358 O.2       4 UNK        -0.5000 
     52 CA          0.5155  -12.9022  -40.9372 C.3       4 UNK         0.1400 
     53 CB          1.3485  -13.4446  -39.7579 C.3       4 UNK        -0.1800 
     54 N           1.2741  -11.8857  -41.6599 N.am      4 UNK        -0.5000 
     55 C           1.4590  -10.6322  -41.2234 C.2       3 UNK         0.5000 
     56 O           0.9995  -10.2026  -40.1640 O.2       3 UNK        -0.5000 
     57 CA          2.2736   -9.6877  -42.1201 C.3       3 UNK         0.1400 
     58 CB          3.7819   -9.9421  -41.9670 C.3       3 UNK        -0.1800 
     59 N           1.8846   -9.8212  -43.5218 N.am      3 UNK        -0.5000 
     60 C           0.8524   -9.1727  -44.0803 C.2       2 UNK         0.5000 
     61 O           0.1464   -8.3658  -43.4738 O.2       2 UNK        -0.5000 
     62 CA          0.5577   -9.4523  -45.5667 C.3       2 UNK         0.1400 
     63 CB          1.1543   -8.3445  -46.4488 C.3       2 UNK        -0.1800 
     64 N           1.0724  -10.7432  -46.0203 N.am      2 UNK        -0.5000 
     65 C           0.5140  -11.9290  -45.7409 C.2       1 UNK         0.5000 
     66 O          -0.5341  -12.0594  -45.1078 O.2       1 UNK        -0.5000 
     67 C           2.3330  -24.9857  -46.8936 C.2       11 UNK         0.5000 
     68 O           2.2443  -25.7213  -47.8779 O.2       11 UNK        -0.5000 
     69 N           1.4460  -24.9774  -45.8865 N.am      12 UNK        -0.5000 
     70 CA          0.1928  -25.7305  -45.7783 C.3       12 UNK         0.1400 
     71 CB          0.4534  -27.2513  -45.7440 C.3       12 UNK        -0.1800 
     72 C          -0.8638  -25.3115  -46.8248 C.2       12 UNK         0.5000 
     73 O          -1.6435  -26.1471  -47.2871 O.2       12 UNK        -0.5000 
     74 N          -0.8873  -24.0167  -47.1596 N.am      13 UNK        -0.5000 
     75 CA         -1.9250  -23.3732  -47.9592 C.3       13 UNK         0.1400 
     76 CB         -1.3058  -22.1854  -48.7145 C.3       13 UNK        -0.1800 
     77 C          -3.0755  -22.8948  -47.0559 C.2       13 UNK         0.5000 
     78 O          -2.8996  -22.7333  -45.8457 O.2       13 UNK        -0.5000 
     79 N          -4.2299  -22.6400  -47.6766 N.am      14 UNK        -0.5000 
     80 CA         -5.4120  -22.0497  -47.0480 C.3       14 UNK         0.1400 
     81 CB         -6.6568  -22.7558  -47.6112 C.3       14 UNK        -0.1800 
     82 C          -5.4981  -20.5304  -47.3005 C.2       14 UNK         0.5000 
     83 O          -6.3991  -19.8861  -46.7625 O.2       14 UNK        -0.5000 
     84 N          -4.5894  -19.9990  -48.1349 N.am      15 UNK        -0.5000 
     85 CA         -4.5768  -18.6463  -48.7024 C.3       15 UNK         0.1400 
     86 CB         -4.4418  -17.5684  -47.6059 C.3       15 UNK        -0.1800 
     87 C          -5.7672  -18.4124  -49.6599 C.2       15 UNK         0.5000 
     88 O          -6.3038  -17.3044  -49.7253 O.2       15 UNK        -0.5000 
     89 N          -6.1668  -19.4748  -50.3734 N.am      16 UNK        -0.5000 
     90 CA         -7.2475  -19.4766  -51.3586 C.3       16 UNK         0.1400 
     91 CB         -7.8898  -20.8773  -51.3800 C.3       16 UNK        -0.1800 
     92 C          -6.7471  -19.0439  -52.7537 C.2       16 UNK         0.5000 
     93 O          -5.6378  -18.5237  -52.8910 O.2       16 UNK        -0.5000 
     94 N          -7.5839  -19.2603  -53.7754 N.am      17 UNK        -0.5000 
     95 CA         -7.2711  -18.9982  -55.1798 C.3       17 UNK         0.1400 
     96 CB         -8.5664  -19.1187  -55.9985 C.3       17 UNK        -0.1800 
     97 C          -6.2116  -19.9680  -55.7352 C.2       17 UNK         0.5000 
     98 O          -6.1053  -21.1061  -55.2692 O.2       17 UNK        -0.5000 
     99 N          -5.4995  -19.5315  -56.7825 N.am      18 UNK        -0.5000 
    100 CA        -4.5220  -20.3392  -57.5214 C.3       18 UNK         0.1400 
    101 CB        -3.8003  -19.4520  -58.5460 C.3       18 UNK        -0.1800 
    102 C         -5.1480  -21.5672  -58.2130 C.2       18 UNK         0.5000 
    103 O         -4.4914  -22.6019  -58.3264 O.2       18 UNK        -0.5000 
    104 N         -6.4281  -21.4550  -58.5972 N.am      19 UNK        -0.5000 
    105 CA        -7.2527  -22.5435  -59.1303 C.3       19 UNK         0.1400 
    106 CB        -8.5741  -21.9548  -59.6477 C.3       19 UNK        -0.1800 
    107 C         -7.5287  -23.6665  -58.1072 C.2       19 UNK         0.5000 
    108 O         -7.7900  -24.7999  -58.5105 O.2       19 UNK        -0.5000 
    109 N         -7.4409  -23.3397  -56.8107 N.am      20 UNK        -0.5000 
    110 CA        -7.5407  -24.2701  -55.6861 C.3       20 UNK         0.1400 
    111 CB        -8.4069  -23.6189  -54.5921 C.3       20 UNK        -0.1800 
    112 C         -6.1474  -24.6515  -55.1416 C.2       20 UNK         0.5000 
    113 O         -6.0590  -25.1881  -54.0360 O.2       20 UNK        -0.5000 
    114 N         -5.0787  -24.3308  -55.8914 N.am      21 UNK        -0.5000 
    115 CA        -3.6614  -24.5117  -55.5497 C.3       21 UNK         0.1400 
    116 CB        -3.2986  -26.0108  -55.5162 C.3       21 UNK        -0.1800 
    117 C         -3.2488  -23.7653  -54.2617 C.2       21 UNK         0.5000 
    118 O         -2.3556  -24.2166  -53.5435 O.2       21 UNK        -0.5000 
    119 N         -3.9279  -22.6438  -53.9866 N.am      22 UNK        -0.5000 
    120 CA        -3.8563  -21.8628  -52.7454 C.3       22 UNK         0.1400 
    121 C         -4.5273  -22.5390  -51.5112 C.2       22 UNK         0.5000 
    122 N         -5.2254  -23.6603  -51.6462 N.am      22 UNK        -0.7600 
    123 O         -4.4645  -22.0086  -50.4066 O.2       22 UNK        -0.5000 
    124 C124       -2.4320  -21.3114  -52.4462 C.3       23 UNK        -0.0398 
    125 S125       -2.4926  -19.6310  -51.7403 S.3       23 UNK        -0.2404 
    126 C126       -0.8574  -18.9602  -52.1682 C.3       23 UNK        -0.0205 
    127 H127        5.2585  -12.9173  -46.4963 H         1 UNK         0.0600 
    128 H128        5.4957  -13.4304  -44.8230 H         1 UNK         0.0600 
    129 H129        5.3991  -11.7100  -45.2138 H         1 UNK         0.0600 
    130 H130        3.1593  -13.2211  -47.1680 H         1 UNK         0.3000 
    131 H131        1.0393  -13.9899  -45.5650 H         1 UNK         0.0600 
    132 H132       -0.3704  -13.7704  -47.5842 H         1 UNK         0.0800 
    133 H133        0.7997  -12.7308  -48.3433 H         1 UNK         0.0800 
    134 H134        0.5337  -16.6482  -46.9911 H         1 UNK         0.0800 
    135 H135       -0.6363  -16.0068  -48.1213 H         1 UNK         0.0800 
    136 H136       -0.9548  -16.9871  -50.3090 H         1 UNK         0.1150 
    137 H137        1.1521  -20.5930  -51.2778 H         1 UNK         0.1150 
    138 H138        2.2611  -18.3242  -47.8146 H         1 UNK         0.1150 
    139 H139        3.3327  -20.9885  -50.0983 H         1 UNK         0.0800 
    140 H140        3.7073  -20.1241  -48.6203 H         1 UNK         0.0800 
    141 H141        3.7461  -23.6253  -48.9287 H         1 UNK         0.0800 
    142 H142        4.5284  -22.4460  -47.9159 H         1 UNK         0.0800 
    143 H143        4.4192  -24.6400  -46.8380 H         1 UNK         0.0600 
    144 H144        3.0254  -22.4152  -45.4823 H         1 UNK         0.3000 
    145 H145        4.2578  -23.4944  -42.2840 H         1 UNK         0.0600 
    146 H146        5.0896  -21.1773  -42.1976 H         1 UNK         0.0600 
    147 H147        4.9009  -20.9993  -43.9411 H         1 UNK         0.0600 
    148 H148        6.0978  -22.1130  -43.2892 H         1 UNK         0.0600 
    149 H149        2.6635  -21.2657  -42.8898 H         1 UNK         0.3000 
    150 H150       -0.5419  -22.8479  -42.8812 H         1 UNK         0.0600 
    151 H151       -0.0331  -22.5995  -40.4955 H         1 UNK         0.0600 
    152 H152       -0.8317  -21.1345  -41.0496 H         1 UNK         0.0600 
    153 H153        0.9140  -21.1516  -40.7897 H         1 UNK         0.0600 
    154 H154        0.1128  -20.1116  -43.0692 H         1 UNK         0.3000 
    155 H155        0.6660  -19.9836  -46.6045 H         1 UNK         0.0600 
    156 H156       -1.7959  -19.9708  -46.2984 H         1 UNK         0.0600 
    157 H157       -1.1715  -18.3348  -46.3971 H         1 UNK         0.0600 
    158 H158       -1.6393  -19.0111  -44.8379 H         1 UNK         0.0600 
    159 H159        0.6402  -18.1233  -44.3517 H         1 UNK         0.3000 
    160 H160        4.1892  -18.1060  -43.9427 H         1 UNK         0.0600 
    161 H161        2.3039  -15.9862  -45.1072 H         1 UNK         0.0600 
    162 H162        3.7692  -16.5704  -45.8847 H         1 UNK         0.0600 
    163 H163        3.8753  -15.6873  -44.3685 H         1 UNK         0.0600 
    164 H164        2.1063  -16.5806  -42.7277 H         1 UNK         0.3000 
    165 H165        1.0616  -18.9071  -40.2764 H         1 UNK         0.0600 
    166 H166        1.8537  -17.2124  -38.6500 H         1 UNK         0.0600 
    167 H167        3.2167  -18.1277  -39.2732 H         1 UNK         0.0600 
    168 H168        2.9139  -16.4989  -39.8661 H         1 UNK         0.0600 
    169 H169        0.5100  -16.1704  -40.4703 H         1 UNK         0.3000 
    170 H170       -1.4500  -15.8320  -43.2192 H         1 UNK         0.0600 
    171 H171       -3.2309  -17.2054  -42.1405 H         1 UNK         0.0600 
    172 H172       -2.8747  -16.4751  -40.5798 H         1 UNK         0.0600 
    173 H173       -3.5267  -15.4928  -41.8926 H         1 UNK         0.0600 
    174 H174       -1.4793  -14.4571  -40.6894 H         1 UNK         0.3000 
    175 H175       -0.4017  -12.4484  -40.5553 H         1 UNK         0.0600 
    176 H176        2.2864  -13.8834  -40.1010 H         1 UNK         0.0600 
    177 H177        1.5916  -12.6586  -39.0432 H         1 UNK         0.0600 
    178 H178        0.8052  -14.2145  -39.2089 H         1 UNK         0.0600 
    179 H179        1.6810  -12.1880  -42.5418 H         1 UNK         0.3000 
    180 H180        2.0810   -8.6637  -41.7921 H         1 UNK         0.0600 
    181 H181        4.0985   -9.7777  -40.9363 H         1 UNK         0.0600 
    182 H182        4.3616   -9.2669  -42.5966 H         1 UNK         0.0600 
    183 H183        4.0552  -10.9637  -42.2305 H         1 UNK         0.0600 
    184 H184        2.3676  -10.5351  -44.0540 H         1 UNK         0.3000 
    185 H185       -0.5268   -9.4437  -45.6960 H         1 UNK         0.0600 
    186 H186        0.7702   -7.3653  -46.1596 H         1 UNK         0.0600 
    187 H187        2.2415   -8.3073  -46.3686 H         1 UNK         0.0600 
    188 H188        0.8991   -8.4949  -47.4980 H         1 UNK         0.0600 
    189 H189        1.9356  -10.7309  -46.5441 H         1 UNK         0.3000 
    190 H190        1.6077  -24.3132  -45.1411 H         1 UNK         0.3000 
    191 H191       -0.2291  -25.4546  -44.8108 H         1 UNK         0.0600 
    192 H192       -0.4577  -27.7971  -45.4965 H         1 UNK         0.0600 
    193 H193        1.1977  -27.5063  -44.9897 H         1 UNK         0.0600 
    194 H194        0.8055  -27.6262  -46.7052 H         1 UNK         0.0600 
    195 H195       -0.2738  -23.3825  -46.6504 H         1 UNK         0.3000 
    196 H196       -2.3241  -24.0800  -48.6899 H         1 UNK         0.0600 
    197 H197       -0.8464  -21.4685  -48.0343 H         1 UNK         0.0600 
    198 H198       -0.5387  -22.5222  -49.4115 H         1 UNK         0.0600 
    199 H199       -2.0513  -21.6459  -49.2973 H         1 UNK         0.0600 
    200 H200       -4.2777  -22.7264  -48.6895 H         1 UNK         0.3000 
    201 H201       -5.3877  -22.2053  -45.9676 H         1 UNK         0.0600 
    202 H202       -7.5687  -22.3714  -47.1527 H         1 UNK         0.0600 
    203 H203       -6.6234  -23.8277  -47.4161 H         1 UNK         0.0600 
    204 H204       -6.7458  -22.6137  -48.6890 H         1 UNK         0.0600 
    205 H205       -3.9340  -20.6427  -48.5557 H         1 UNK         0.3000 
    206 H206       -3.6780  -18.5863  -49.3153 H         1 UNK         0.0600 
    207 H207       -3.6089  -17.7863  -46.9381 H         1 UNK         0.0600 
    208 H208       -4.2554  -16.5888  -48.0471 H         1 UNK         0.0600 
    209 H209       -5.3448  -17.4848  -47.0011 H         1 UNK         0.0600 
    210 H210       -5.6327  -20.3325  -50.2897 H         1 UNK         0.3000 
    211 H211       -8.0110  -18.7609  -51.0473 H         1 UNK         0.0600 
    212 H212       -7.2411  -21.6145  -51.8517 H         1 UNK         0.0600 
    213 H213       -8.8315  -20.8744  -51.9294 H         1 UNK         0.0600 
    214 H214       -8.1142  -21.2255  -50.3716 H         1 UNK         0.0600 
    215 H215       -8.4662  -19.7143  -53.5929 H         1 UNK         0.3000 
    216 H216       -6.8918  -17.9776  -55.2642 H         1 UNK         0.0600 
    217 H217       -9.3264  -18.4248  -55.6388 H         1 UNK         0.0600 
    218 H218       -8.9822  -20.1264  -55.9491 H         1 UNK         0.0600 
    219 H219       -8.3923  -18.8871  -57.0500 H         1 UNK         0.0600 
    220 H220       -5.6456  -18.5895  -57.1165 H         1 UNK         0.3000 
    221 H221       -3.7835  -20.7072  -56.8057 H         1 UNK         0.0600 
    222 H222       -3.0497  -20.0217  -59.0957 H         1 UNK         0.0600 
    223 H223       -4.4938  -19.0325  -59.2759 H         1 UNK         0.0600 
    224 H224       -3.2845  -18.6250  -58.0576 H         1 UNK         0.0600 
    225 H225       -6.8856  -20.5645  -58.4713 H         1 UNK         0.3000 
    226 H226       -6.7202  -22.9897  -59.9727 H         1 UNK         0.0600 
    227 H227       -8.3978  -21.2131  -60.4269 H         1 UNK         0.0600 
    228 H228       -9.2065  -22.7322  -60.0786 H         1 UNK         0.0600 
    229 H229       -9.1413  -21.4757  -58.8485 H         1 UNK         0.0600 
    230 H230       -7.1763  -22.3942  -56.5623 H         1 UNK         0.3000 
    231 H231       -8.0291  -25.1940  -56.0012 H         1 UNK         0.0600 
    232 H232       -8.5807  -24.3084  -53.7651 H         1 UNK         0.0600 
    233 H233       -9.3832  -23.3308  -54.9818 H         1 UNK         0.0600 
    234 H234       -7.9348  -22.7269  -54.1792 H         1 UNK         0.0600 
    235 H235       -5.2427  -23.8707  -56.7787 H         1 UNK         0.3000 
    236 H236       -3.0913  -24.0529  -56.3585 H         1 UNK         0.0600 
    237 H237       -3.7821  -26.5265  -54.6861 H         1 UNK         0.0600 
    238 H238       -3.5956  -26.5085  -56.4393 H         1 UNK         0.0600 
    239 H239       -2.2228  -26.1512  -55.4057 H         1 UNK         0.0600 
    240 H240       -4.6631  -22.3508  -54.6221 H         1 UNK         0.3000 
    241 H241       -4.5006  -21.0118  -52.9609 H         1 UNK         0.0600 
    242 H242       -5.6664  -24.0655  -50.8379 H         1 UNK         0.3800 
    243 H243       -5.3351  -24.1166  -52.5457 H         1 UNK         0.3800 
    244 H244       -1.8581  -21.2588  -53.3718 H         1 UNK         0.0800 
    245 H245       -1.8725  -21.9739  -51.7839 H         1 UNK         0.0800 
    246 H246       -0.3585  -19.5859  -52.9091 H         1 UNK         0.0800 
    247 H247       -0.9935  -17.9865  -52.6408 H         1 UNK         0.0800 
@<TRIPOS>BOND
     1    1    2 1    
     2    1  127 1    
     3    1  128 1    
     4    1  129 1    
     5    2    3 2    
     6    2    4 am   BACKBONE|DICT|INTERRES
     7    4    5 1    
     8    4  130 1    
     9    5    6 1    
    10    5   65 1    
    11    5  131 1    
    12    6    7 1    
    13    6  132 1    
    14    6  133 1    
    15    7    8 1    
    16    8    9 1    
    17    8  134 1    
    18    8  135 1    
    19    9   10 ar   
    20    9   14 ar   
    21   10   11 ar   
    22   10  136 1    
    23   11   12 ar   
    24   11  126 1    
    25   12   13 ar   
    26   12  137 1    
    27   13   14 ar   
    28   13   15 1    
    29   14  138 1    
    30   15   16 1    
    31   15  139 1    
    32   15  140 1    
    33   16   17 1    
    34   17   18 1    
    35   17  141 1    
    36   17  142 1    
    37   18   19 1    
    38   18   67 1    
    39   18  143 1    
    40   19   20 am   BACKBONE|DICT|INTERRES
    41   19  144 1    
    42   20   21 2    
    43   20   22 1    
    44   22   23 1    
    45   22   24 1    
    46   22  145 1    
    47   23  146 1    
    48   23  147 1    
    49   23  148 1    
    50   24   25 am   BACKBONE|DICT|INTERRES
    51   24  149 1    
    52   25   26 2    
    53   25   27 1    
    54   27   28 1    
    55   27   29 1    
    56   27  150 1    
    57   28  151 1    
    58   28  152 1    
    59   28  153 1    
    60   29   30 am   BACKBONE|DICT|INTERRES
    61   29  154 1    
    62   30   31 2    
    63   30   32 1    
    64   32   33 1    
    65   32   34 1    
    66   32  155 1    
    67   33  156 1    
    68   33  157 1    
    69   33  158 1    
    70   34   35 am   BACKBONE|DICT|INTERRES
    71   34  159 1    
    72   35   36 2    
    73   35   37 1    
    74   37   38 1    
    75   37   39 1    
    76   37  160 1    
    77   38  161 1    
    78   38  162 1    
    79   38  163 1    
    80   39   40 am   BACKBONE|DICT|INTERRES
    81   39  164 1    
    82   40   41 2    
    83   40   42 1    
    84   42   43 1    
    85   42   44 1    
    86   42  165 1    
    87   43  166 1    
    88   43  167 1    
    89   43  168 1    
    90   44   45 am   BACKBONE|DICT|INTERRES
    91   44  169 1    
    92   45   46 2    
    93   45   47 1    
    94   47   48 1    
    95   47   49 1    
    96   47  170 1    
    97   48  171 1    
    98   48  172 1    
    99   48  173 1    
   100   49   50 am   BACKBONE|DICT|INTERRES
   101   49  174 1    
   102   50   51 2    
   103   50   52 1    
   104   52   53 1    
   105   52   54 1    
   106   52  175 1    
   107   53  176 1    
   108   53  177 1    
   109   53  178 1    
   110   54   55 am   BACKBONE|DICT|INTERRES
   111   54  179 1    
   112   55   56 2    
   113   55   57 1    
   114   57   58 1    
   115   57   59 1    
   116   57  180 1    
   117   58  181 1    
   118   58  182 1    
   119   58  183 1    
   120   59   60 am   BACKBONE|DICT|INTERRES
   121   59  184 1    
   122   60   61 2    
   123   60   62 1    
   124   62   63 1    
   125   62   64 1    
   126   62  185 1    
   127   63  186 1    
   128   63  187 1    
   129   63  188 1    
   130   64   65 am   BACKBONE|DICT|INTERRES
   131   64  189 1    
   132   65   66 2    
   133   67   68 2    
   134   67   69 am   BACKBONE|DICT|INTERRES
   135   69   70 1    
   136   69  190 1    
   137   70   71 1    
   138   70   72 1    
   139   70  191 1    
   140   71  192 1    
   141   71  193 1    
   142   71  194 1    
   143   72   73 2    
   144   72   74 am   BACKBONE|DICT|INTERRES
   145   74   75 1    
   146   74  195 1    
   147   75   76 1    
   148   75   77 1    
   149   75  196 1    
   150   76  197 1    
   151   76  198 1    
   152   76  199 1    
   153   77   78 2    
   154   77   79 am   BACKBONE|DICT|INTERRES
   155   79   80 1    
   156   79  200 1    
   157   80   81 1    
   158   80   82 1    
   159   80  201 1    
   160   81  202 1    
   161   81  203 1    
   162   81  204 1    
   163   82   83 2    
   164   82   84 am   BACKBONE|DICT|INTERRES
   165   84   85 1    
   166   84  205 1    
   167   85   86 1    
   168   85   87 1    
   169   85  206 1    
   170   86  207 1    
   171   86  208 1    
   172   86  209 1    
   173   87   88 2    
   174   87   89 am   BACKBONE|DICT|INTERRES
   175   89   90 1    
   176   89  210 1    
   177   90   91 1    
   178   90   92 1    
   179   90  211 1    
   180   91  212 1    
   181   91  213 1    
   182   91  214 1    
   183   92   93 2    
   184   92   94 am   BACKBONE|DICT|INTERRES
   185   94   95 1    
   186   94  215 1    
   187   95   96 1    
   188   95   97 1    
   189   95  216 1    
   190   96  217 1    
   191   96  218 1    
   192   96  219 1    
   193   97   98 2    
   194   97   99 am   BACKBONE|DICT|INTERRES
   195   99  100 1    
   196   99  220 1    
   197  100  101 1    
   198  100  102 1    
   199  100  221 1    
   200  101  222 1    
   201  101  223 1    
   202  101  224 1    
   203  102  103 2    
   204  102  104 am   BACKBONE|DICT|INTERRES
   205  104  105 1    
   206  104  225 1    
   207  105  106 1    
   208  105  107 1    
   209  105  226 1    
   210  106  227 1    
   211  106  228 1    
   212  106  229 1    
   213  107  108 2    
   214  107  109 am   BACKBONE|DICT|INTERRES
   215  109  110 1    
   216  109  230 1    
   217  110  111 1    
   218  110  112 1    
   219  110  231 1    
   220  111  232 1    
   221  111  233 1    
   222  111  234 1    
   223  112  113 2    
   224  112  114 am   BACKBONE|DICT|INTERRES
   225  114  115 1    
   226  114  235 1    
   227  115  116 1    
   228  115  117 1    
   229  115  236 1    
   230  116  237 1    
   231  116  238 1    
   232  116  239 1    
   233  117  118 2    
   234  117  119 am   BACKBONE|DICT|INTERRES
   235  119  120 1    
   236  119  240 1    
   237  120  121 1    
   238  120  124 1    
   239  120  241 1    
   240  121  122 am   BACKBONE|DICT|INTERRES
   241  121  123 2    
   242  122  242 1    
   243  122  243 1    
   244  124  125 1    
   245  124  244 1    
   246  124  245 1    
   247  125  126 1    
   248  126  246 1    
   249  126  247 1    
@<TRIPOS>SUBSTRUCTURE
     1 UNK         1 GROUP             0       ****    0 ROOT    
