@<TRIPOS>MOLECULE
3R540
247   249    1
SMALL
USER_CHARGES


@<TRIPOS>ATOM
      1 CA         -4.6377  -15.2803  -43.1675 C.3       0 UNK        -0.1800 
      2 C          -3.9666  -13.9841  -43.6001 C.2       0 UNK         0.5000 
      3 O          -4.2404  -12.9303  -43.0255 O.2       0 UNK        -0.5000 
      4 N          -3.1040  -14.0594  -44.6205 N.am      1 UNK        -0.5000 
      5 CA         -2.3471  -12.9399  -45.1877 C.3       1 UNK         0.1400 
      6 C6         -1.5858  -13.3323  -46.4814 C.3       23 UNK        -0.0398 
      7 S7         -2.6050  -14.2164  -47.7103 S.3       23 UNK        -0.2404 
      8 C8         -1.7728  -15.8339  -47.6948 C.3       23 UNK        -0.0205 
      9 C9         -2.5114  -16.8558  -48.5398 C.ar      23 UNK        -0.0193 
     10 C10        -2.2081  -16.9933  -49.8963 C.ar      23 UNK        -0.1150 
     11 C11        -2.8978  -17.9158  -50.6878 C.ar      23 UNK        -0.0193 
     12 C12        -3.8902  -18.7113  -50.1080 C.ar      23 UNK        -0.1150 
     13 C13        -4.1806  -18.6058  -48.7451 C.ar      23 UNK        -0.0193 
     14 C14        -3.4917  -17.6710  -47.9662 C.ar      23 UNK        -0.1150 
     15 C15        -5.2392  -19.5022  -48.1174 C.3       23 UNK        -0.0205 
     16 S16        -4.7123  -21.2454  -48.0408 S.3       23 UNK        -0.2404 
     17 C17        -3.2167  -21.1203  -47.0058 C.3       23 UNK        -0.0398 
     18 CA         -2.7131  -22.4869  -46.4791 C.3       11 UNK         0.1400 
     19 N          -1.2966  -22.4151  -46.1074 N.am      11 UNK        -0.5000 
     20 C          -0.5283  -23.4573  -45.7611 C.2       10 UNK         0.5000 
     21 O          -0.9306  -24.6163  -45.6905 O.2       10 UNK        -0.5000 
     22 CA          0.9227  -23.1451  -45.3553 C.3       10 UNK         0.1400 
     23 CB          1.7873  -22.8342  -46.5866 C.3       10 UNK        -0.1800 
     24 N           1.0071  -22.0503  -44.3872 N.am      10 UNK        -0.5000 
     25 C           0.4567  -22.0824  -43.1640 C.2       9 UNK         0.5000 
     26 O          -0.1360  -23.0587  -42.7063 O.2       9 UNK        -0.5000 
     27 CA          0.5312  -20.7934  -42.3284 C.3       9 UNK         0.1400 
     28 CB          1.9088  -20.6483  -41.6653 C.3       9 UNK        -0.1800 
     29 N           0.2307  -19.5968  -43.1130 N.am      9 UNK        -0.5000 
     30 C          -0.9401  -19.3540  -43.7199 C.2       8 UNK         0.5000 
     31 O          -1.9184  -20.0977  -43.6524 O.2       8 UNK        -0.5000 
     32 CA         -1.0086  -18.0930  -44.5982 C.3       8 UNK         0.1400 
     33 CB         -1.1341  -16.8301  -43.7332 C.3       8 UNK        -0.1800 
     34 N           0.1504  -17.9730  -45.4841 N.am      8 UNK        -0.5000 
     35 C           0.4795  -18.8655  -46.4297 C.2       7 UNK         0.5000 
     36 O          -0.1959  -19.8565  -46.6990 O.2       7 UNK        -0.5000 
     37 CA          1.8179  -18.6507  -47.1535 C.3       7 UNK         0.1400 
     38 CB          1.6573  -17.6930  -48.3426 C.3       7 UNK        -0.1800 
     39 N           2.8497  -18.1541  -46.2429 N.am      7 UNK        -0.5000 
     40 C           3.4194  -18.8943  -45.2807 C.2       6 UNK         0.5000 
     41 O           3.1692  -20.0858  -45.0976 O.2       6 UNK        -0.5000 
     42 CA          4.3983  -18.1686  -44.3387 C.3       6 UNK         0.1400 
     43 CB          5.7901  -18.0607  -44.9790 C.3       6 UNK        -0.1800 
     44 N           3.9290  -16.8330  -43.9644 N.am      6 UNK        -0.5000 
     45 C           2.8479  -16.5987  -43.2071 C.2       5 UNK         0.5000 
     46 O           2.1695  -17.4905  -42.6997 O.2       5 UNK        -0.5000 
     47 CA          2.4259  -15.1280  -43.0194 C.3       5 UNK         0.1400 
     48 CB          3.0727  -14.5360  -41.7590 C.3       5 UNK        -0.1800 
     49 N           2.7290  -14.2674  -44.1662 N.am      5 UNK        -0.5000 
     50 C           2.2526  -14.4422  -45.4057 C.2       4 UNK         0.5000 
     51 O           1.5305  -15.3850  -45.7351 O.2       4 UNK        -0.5000 
     52 CA          2.6411  -13.3634  -46.4245 C.3       4 UNK         0.1400 
     53 CB          2.1273  -13.6489  -47.8490 C.3       4 UNK        -0.1800 
     54 N           2.1383  -12.0729  -45.9617 N.am      4 UNK        -0.5000 
     55 C           2.7464  -10.8962  -46.1564 C.2       3 UNK         0.5000 
     56 O           3.8354  -10.7820  -46.7205 O.2       3 UNK        -0.5000 
     57 CA          2.0219   -9.6260  -45.6655 C.3       3 UNK         0.1400 
     58 CB          1.6032   -8.7538  -46.8607 C.3       3 UNK        -0.1800 
     59 N           0.8301   -9.9065  -44.8620 N.am      3 UNK        -0.5000 
     60 C           0.8263  -10.1407  -43.5428 C.2       2 UNK         0.5000 
     61 O           1.8422  -10.1674  -42.8480 O.2       2 UNK        -0.5000 
     62 CA         -0.5501  -10.4038  -42.9004 C.3       2 UNK         0.1400 
     63 CB         -1.1879   -9.0867  -42.4330 C.3       2 UNK        -0.1800 
     64 N          -1.4736  -11.0928  -43.8080 N.am      2 UNK        -0.5000 
     65 C          -1.3454  -12.3788  -44.1577 C.2       1 UNK         0.5000 
     66 O          -0.4531  -13.1114  -43.7281 O.2       1 UNK        -0.5000 
     67 C          -3.6033  -23.0256  -45.3363 C.2       11 UNK         0.5000 
     68 O          -4.5523  -23.7647  -45.5992 O.2       11 UNK        -0.5000 
     69 N          -3.2766  -22.6670  -44.0868 N.am      12 UNK        -0.5000 
     70 CA         -3.9357  -23.1833  -42.8889 C.3       12 UNK         0.1400 
     71 CB         -3.5656  -22.3064  -41.6828 C.3       12 UNK        -0.1800 
     72 C          -3.5953  -24.6614  -42.6176 C.2       12 UNK         0.5000 
     73 O          -4.4870  -25.4305  -42.2560 O.2       12 UNK        -0.5000 
     74 N          -2.3171  -25.0278  -42.7803 N.am      13 UNK        -0.5000 
     75 CA         -1.8010  -26.3690  -42.5130 C.3       13 UNK         0.1400 
     76 CB         -0.2745  -26.3033  -42.3472 C.3       13 UNK        -0.1800 
     77 C          -2.1788  -27.4014  -43.5899 C.2       13 UNK         0.5000 
     78 O          -2.5657  -28.5184  -43.2420 O.2       13 UNK        -0.5000 
     79 N          -2.0326  -27.0320  -44.8673 N.am      14 UNK        -0.5000 
     80 CA         -2.1828  -27.9184  -46.0166 C.3       14 UNK         0.1400 
     81 CB         -0.9247  -28.8061  -46.1624 C.3       14 UNK        -0.1800 
     82 C          -2.5299  -27.0970  -47.2730 C.2       14 UNK         0.5000 
     83 O          -3.5516  -26.4096  -47.2803 O.2       14 UNK        -0.5000 
     84 N          -1.7158  -27.2183  -48.3297 N.am      15 UNK        -0.5000 
     85 CA         -1.9187  -26.5809  -49.6293 C.3       15 UNK         0.1400 
     86 CB         -1.0169  -27.2741  -50.6631 C.3       15 UNK        -0.1800 
     87 C          -1.6331  -25.0687  -49.6042 C.2       15 UNK         0.5000 
     88 O          -0.7582  -24.6115  -48.8690 O.2       15 UNK        -0.5000 
     89 N          -2.3353  -24.3328  -50.4736 N.am      16 UNK        -0.5000 
     90 CA         -2.2431  -22.8786  -50.6407 C.3       16 UNK         0.1400 
     91 CB         -3.4889  -22.4136  -51.4101 C.3       16 UNK        -0.1800 
     92 C          -0.9605  -22.3821  -51.3453 C.2       16 UNK         0.5000 
     93 O          -0.7918  -21.1709  -51.4844 O.2       16 UNK        -0.5000 
     94 N          -0.0987  -23.3118  -51.7870 N.am      17 UNK        -0.5000 
     95 CA          1.1485  -23.0895  -52.5275 C.3       17 UNK         0.1400 
     96 CB          2.1662  -22.2872  -51.6878 C.3       17 UNK        -0.1800 
     97 C           0.8911  -22.4917  -53.9265 C.2       17 UNK         0.5000 
     98 O           1.5101  -21.4958  -54.3063 O.2       17 UNK        -0.5000 
     99 N          -0.0242  -23.1391  -54.6637 N.am      18 UNK        -0.5000 
    100 CA        -0.4896  -22.7927  -56.0096 C.3       18 UNK         0.1400 
    101 CB         0.6516  -22.9259  -57.0446 C.3       18 UNK        -0.1800 
    102 C         -1.2224  -21.4347  -56.0283 C.2       18 UNK         0.5000 
    103 O         -2.1044  -21.2255  -55.1927 O.2       18 UNK        -0.5000 
    104 N         -0.8940  -20.5660  -56.9984 N.am      19 UNK        -0.5000 
    105 CA        -1.4334  -19.2123  -57.2028 C.3       19 UNK         0.1400 
    106 CB        -0.9633  -18.2787  -56.0672 C.3       19 UNK        -0.1800 
    107 C         -2.9663  -19.1750  -57.3964 C.2       19 UNK         0.5000 
    108 O         -3.6154  -18.2109  -56.9876 O.2       19 UNK        -0.5000 
    109 N         -3.5260  -20.2552  -57.9670 N.am      20 UNK        -0.5000 
    110 CA        -4.9631  -20.5349  -58.1160 C.3       20 UNK         0.1400 
    111 CB        -5.5954  -19.5807  -59.1504 C.3       20 UNK        -0.1800 
    112 C         -5.7231  -20.5406  -56.7679 C.2       20 UNK         0.5000 
    113 O         -6.9023  -20.1848  -56.7188 O.2       20 UNK        -0.5000 
    114 N         -5.0071  -20.8939  -55.6881 N.am      21 UNK        -0.5000 
    115 CA        -5.4086  -20.8251  -54.2803 C.3       21 UNK         0.1400 
    116 CB        -6.5400  -21.8277  -53.9760 C.3       21 UNK        -0.1800 
    117 C         -5.7240  -19.3951  -53.7886 C.2       21 UNK         0.5000 
    118 O         -6.3843  -19.2412  -52.7606 O.2       21 UNK        -0.5000 
    119 N         -5.2410  -18.3791  -54.5200 N.am      22 UNK        -0.5000 
    120 CA        -5.4608  -16.9438  -54.2816 C.3       22 UNK         0.1400 
    121 C         -6.9505  -16.4919  -54.3990 C.2       22 UNK         0.5000 
    122 N         -7.8135  -17.2401  -55.0781 N.am      22 UNK        -0.7600 
    123 O         -7.3292  -15.4341  -53.9027 O.2       22 UNK        -0.5000 
    124 C124       -4.7545  -16.4373  -52.9933 C.3       23 UNK        -0.0398 
    125 S125       -2.9344  -16.5546  -53.1179 S.3       23 UNK        -0.2404 
    126 C126       -2.5592  -18.0615  -52.1639 C.3       23 UNK        -0.0205 
    127 H127       -4.2887  -15.5707  -42.1766 H         1 UNK         0.0600 
    128 H128       -5.7187  -15.1475  -43.1241 H         1 UNK         0.0600 
    129 H129       -4.4265  -16.0970  -43.8584 H         1 UNK         0.0600 
    130 H130       -2.9392  -14.9514  -45.0598 H         1 UNK         0.3000 
    131 H131       -3.0662  -12.1591  -45.4442 H         1 UNK         0.0600 
    132 H132       -1.1844  -12.4398  -46.9644 H         1 UNK         0.0800 
    133 H133       -0.7216  -13.9533  -46.2410 H         1 UNK         0.0800 
    134 H134       -1.6948  -16.1910  -46.6697 H         1 UNK         0.0800 
    135 H135       -0.7521  -15.7141  -48.0584 H         1 UNK         0.0800 
    136 H136       -1.4442  -16.3719  -50.3423 H         1 UNK         0.1150 
    137 H137       -4.4348  -19.4226  -50.7118 H         1 UNK         0.1150 
    138 H138       -3.7205  -17.5744  -46.9145 H         1 UNK         0.1150 
    139 H139       -5.4933  -19.1599  -47.1130 H         1 UNK         0.0800 
    140 H140       -6.1563  -19.4364  -48.7045 H         1 UNK         0.0800 
    141 H141       -3.3842  -20.4196  -46.1856 H         1 UNK         0.0800 
    142 H142       -2.4534  -20.6664  -47.6386 H         1 UNK         0.0800 
    143 H143       -2.7735  -23.2099  -47.2953 H         1 UNK         0.0600 
    144 H144       -0.8686  -21.4929  -46.1570 H         1 UNK         0.3000 
    145 H145        1.3313  -24.0377  -44.8770 H         1 UNK         0.0600 
    146 H146        2.8300  -22.6801  -46.3088 H         1 UNK         0.0600 
    147 H147        1.7566  -23.6593  -47.2995 H         1 UNK         0.0600 
    148 H148        1.4439  -21.9421  -47.1088 H         1 UNK         0.0600 
    149 H149        1.5173  -21.2223  -44.6759 H         1 UNK         0.3000 
    150 H150       -0.2191  -20.8674  -41.5386 H         1 UNK         0.0600 
    151 H151        2.1482  -21.5271  -41.0652 H         1 UNK         0.0600 
    152 H152        1.9366  -19.7838  -41.0018 H         1 UNK         0.0600 
    153 H153        2.7017  -20.5275  -42.4037 H         1 UNK         0.0600 
    154 H154        0.9697  -18.9021  -43.1790 H         1 UNK         0.3000 
    155 H155       -1.8973  -18.1705  -45.2272 H         1 UNK         0.0600 
    156 H156       -0.3591  -16.7814  -42.9699 H         1 UNK         0.0600 
    157 H157       -2.0923  -16.8113  -43.2147 H         1 UNK         0.0600 
    158 H158       -1.0587  -15.9232  -44.3315 H         1 UNK         0.0600 
    159 H159        0.7434  -17.1576  -45.3640 H         1 UNK         0.3000 
    160 H160        2.1430  -19.6167  -47.5452 H         1 UNK         0.0600 
    161 H161        2.5865  -17.6041  -48.9053 H         1 UNK         0.0600 
    162 H162        1.3646  -16.6955  -48.0206 H         1 UNK         0.0600 
    163 H163        0.8915  -18.0526  -49.0316 H         1 UNK         0.0600 
    164 H164        3.0523  -17.1660  -46.2842 H         1 UNK         0.3000 
    165 H165        4.4874  -18.7653  -43.4282 H         1 UNK         0.0600 
    166 H166        6.5081  -17.6177  -44.2886 H         1 UNK         0.0600 
    167 H167        6.1700  -19.0457  -45.2534 H         1 UNK         0.0600 
    168 H168        5.7735  -17.4514  -45.8835 H         1 UNK         0.0600 
    169 H169        4.4359  -16.0446  -44.3383 H         1 UNK         0.3000 
    170 H170        1.3435  -15.1137  -42.8812 H         1 UNK         0.0600 
    171 H171        2.8424  -15.1411  -40.8809 H         1 UNK         0.0600 
    172 H172        4.1585  -14.4857  -41.8487 H         1 UNK         0.0600 
    173 H173        2.7033  -13.5289  -41.5637 H         1 UNK         0.0600 
    174 H174        3.2962  -13.4533  -43.9787 H         1 UNK         0.3000 
    175 H175        3.7326  -13.3463  -46.4547 H         1 UNK         0.0600 
    176 H176        1.0399  -13.7079  -47.8869 H         1 UNK         0.0600 
    177 H177        2.4425  -12.8709  -48.5444 H         1 UNK         0.0600 
    178 H178        2.5235  -14.5930  -48.2232 H         1 UNK         0.0600 
    179 H179        1.2822  -12.0958  -45.4255 H         1 UNK         0.3000 
    180 H180        2.7340   -9.0571  -45.0640 H         1 UNK         0.0600 
    181 H181        0.8978   -9.2731  -47.5108 H         1 UNK         0.0600 
    182 H182        2.4666   -8.4781  -47.4677 H         1 UNK         0.0600 
    183 H183        1.1349   -7.8273  -46.5280 H         1 UNK         0.0600 
    184 H184       -0.0538   -9.8959  -45.3490 H         1 UNK         0.3000 
    185 H185       -0.3919  -11.0346  -42.0227 H         1 UNK         0.0600 
    186 H186       -0.5323   -8.5610  -41.7374 H         1 UNK         0.0600 
    187 H187       -1.3863   -8.4144  -43.2687 H         1 UNK         0.0600 
    188 H188       -2.1304   -9.2672  -41.9156 H         1 UNK         0.0600 
    189 H189       -2.2454  -10.5512  -44.1707 H         1 UNK         0.3000 
    190 H190       -2.5276  -21.9965  -43.9457 H         1 UNK         0.3000 
    191 H191       -5.0155  -23.1114  -43.0359 H         1 UNK         0.0600 
    192 H192       -2.4919  -22.3111  -41.4938 H         1 UNK         0.0600 
    193 H193       -4.0606  -22.6586  -40.7771 H         1 UNK         0.0600 
    194 H194       -3.8714  -21.2719  -41.8400 H         1 UNK         0.0600 
    195 H195       -1.6331  -24.3236  -43.0403 H         1 UNK         0.3000 
    196 H196       -2.2217  -26.7122  -41.5653 H         1 UNK         0.0600 
    197 H197        0.2115  -25.9223  -43.2464 H         1 UNK         0.0600 
    198 H198        0.1409  -27.2906  -42.1410 H         1 UNK         0.0600 
    199 H199        0.0035  -25.6536  -41.5172 H         1 UNK         0.0600 
    200 H200       -1.7265  -26.0828  -45.0866 H         1 UNK         0.3000 
    201 H201       -3.0401  -28.5719  -45.8433 H         1 UNK         0.0600 
    202 H202       -1.0163  -29.4927  -47.0050 H         1 UNK         0.0600 
    203 H203       -0.7714  -29.4208  -45.2753 H         1 UNK         0.0600 
    204 H204       -0.0234  -28.2086  -46.3061 H         1 UNK         0.0600 
    205 H205       -0.8772  -27.7700  -48.2277 H         1 UNK         0.3000 
    206 H206       -2.9599  -26.7341  -49.9216 H         1 UNK         0.0600 
    207 H207       -1.2333  -28.3410  -50.7232 H         1 UNK         0.0600 
    208 H208       -1.1688  -26.8585  -51.6601 H         1 UNK         0.0600 
    209 H209        0.0396  -27.1595  -50.4167 H         1 UNK         0.0600 
    210 H210       -3.0146  -24.7972  -51.0592 H         1 UNK         0.3000 
    211 H211       -2.2577  -22.4172  -49.6517 H         1 UNK         0.0600 
    212 H212       -3.5440  -22.8769  -52.3958 H         1 UNK         0.0600 
    213 H213       -3.4777  -21.3339  -51.5550 H         1 UNK         0.0600 
    214 H214       -4.4040  -22.6569  -50.8701 H         1 UNK         0.0600 
    215 H215       -0.3343  -24.2759  -51.6050 H         1 UNK         0.3000 
    216 H216        1.5814  -24.0767  -52.6960 H         1 UNK         0.0600 
    217 H217        1.8440  -21.2584  -51.5253 H         1 UNK         0.0600 
    218 H218        3.1351  -22.2481  -52.1867 H         1 UNK         0.0600 
    219 H219        2.3215  -22.7475  -50.7119 H         1 UNK         0.0600 
    220 H220       -0.5019  -23.9175  -54.2334 H         1 UNK         0.3000 
    221 H221       -1.2447  -23.5373  -56.2655 H         1 UNK         0.0600 
    222 H222        1.4308  -22.1767  -56.9005 H         1 UNK         0.0600 
    223 H223        1.1232  -23.9065  -56.9779 H         1 UNK         0.0600 
    224 H224        0.2760  -22.8257  -58.0636 H         1 UNK         0.0600 
    225 H225       -0.1701  -20.8440  -57.6463 H         1 UNK         0.3000 
    226 H226       -1.0025  -18.8440  -58.1347 H         1 UNK         0.0600 
    227 H227        0.1208  -18.3053  -55.9577 H         1 UNK         0.0600 
    228 H228       -1.2431  -17.2432  -56.2649 H         1 UNK         0.0600 
    229 H229       -1.4024  -18.5575  -55.1087 H         1 UNK         0.0600 
    230 H230       -2.9058  -20.9950  -58.2648 H         1 UNK         0.3000 
    231 H231       -5.0408  -21.5490  -58.5102 H         1 UNK         0.0600 
    232 H232       -5.0450  -19.5982  -60.0910 H         1 UNK         0.0600 
    233 H233       -5.6156  -18.5508  -58.7927 H         1 UNK         0.0600 
    234 H234       -6.6234  -19.8692  -59.3728 H         1 UNK         0.0600 
    235 H235       -4.0258  -21.1163  -55.8224 H         1 UNK         0.3000 
    236 H236       -4.5306  -21.1373  -53.7176 H         1 UNK         0.0600 
    237 H237       -6.7254  -21.8942  -52.9033 H         1 UNK         0.0600 
    238 H238       -7.4771  -21.5380  -54.4520 H         1 UNK         0.0600 
    239 H239       -6.2823  -22.8291  -54.3206 H         1 UNK         0.0600 
    240 H240       -4.7030  -18.5870  -55.3547 H         1 UNK         0.3000 
    241 H241       -4.9785  -16.4434  -55.1220 H         1 UNK         0.0600 
    242 H242       -7.5184  -18.1075  -55.5039 H         1 UNK         0.3800 
    243 H243       -8.7720  -16.9404  -55.1623 H         1 UNK         0.3800 
    244 H244       -4.9810  -15.3844  -52.8201 H         1 UNK         0.0800 
    245 H245       -5.1172  -16.9666  -52.1122 H         1 UNK         0.0800 
    246 H246       -3.0787  -18.9124  -52.6047 H         1 UNK         0.0800 
    247 H247       -1.4949  -18.2816  -52.2588 H         1 UNK         0.0800 
@<TRIPOS>BOND
     1    1    2 1    
     2    1  127 1    
     3    1  128 1    
     4    1  129 1    
     5    2    3 2    
     6    2    4 am   BACKBONE|DICT|INTERRES
     7    4    5 1    
     8    4  130 1    
     9    5    6 1    
    10    5   65 1    
    11    5  131 1    
    12    6    7 1    
    13    6  132 1    
    14    6  133 1    
    15    7    8 1    
    16    8    9 1    
    17    8  134 1    
    18    8  135 1    
    19    9   10 ar   
    20    9   14 ar   
    21   10   11 ar   
    22   10  136 1    
    23   11   12 ar   
    24   11  126 1    
    25   12   13 ar   
    26   12  137 1    
    27   13   14 ar   
    28   13   15 1    
    29   14  138 1    
    30   15   16 1    
    31   15  139 1    
    32   15  140 1    
    33   16   17 1    
    34   17   18 1    
    35   17  141 1    
    36   17  142 1    
    37   18   19 1    
    38   18   67 1    
    39   18  143 1    
    40   19   20 am   BACKBONE|DICT|INTERRES
    41   19  144 1    
    42   20   21 2    
    43   20   22 1    
    44   22   23 1    
    45   22   24 1    
    46   22  145 1    
    47   23  146 1    
    48   23  147 1    
    49   23  148 1    
    50   24   25 am   BACKBONE|DICT|INTERRES
    51   24  149 1    
    52   25   26 2    
    53   25   27 1    
    54   27   28 1    
    55   27   29 1    
    56   27  150 1    
    57   28  151 1    
    58   28  152 1    
    59   28  153 1    
    60   29   30 am   BACKBONE|DICT|INTERRES
    61   29  154 1    
    62   30   31 2    
    63   30   32 1    
    64   32   33 1    
    65   32   34 1    
    66   32  155 1    
    67   33  156 1    
    68   33  157 1    
    69   33  158 1    
    70   34   35 am   BACKBONE|DICT|INTERRES
    71   34  159 1    
    72   35   36 2    
    73   35   37 1    
    74   37   38 1    
    75   37   39 1    
    76   37  160 1    
    77   38  161 1    
    78   38  162 1    
    79   38  163 1    
    80   39   40 am   BACKBONE|DICT|INTERRES
    81   39  164 1    
    82   40   41 2    
    83   40   42 1    
    84   42   43 1    
    85   42   44 1    
    86   42  165 1    
    87   43  166 1    
    88   43  167 1    
    89   43  168 1    
    90   44   45 am   BACKBONE|DICT|INTERRES
    91   44  169 1    
    92   45   46 2    
    93   45   47 1    
    94   47   48 1    
    95   47   49 1    
    96   47  170 1    
    97   48  171 1    
    98   48  172 1    
    99   48  173 1    
   100   49   50 am   BACKBONE|DICT|INTERRES
   101   49  174 1    
   102   50   51 2    
   103   50   52 1    
   104   52   53 1    
   105   52   54 1    
   106   52  175 1    
   107   53  176 1    
   108   53  177 1    
   109   53  178 1    
   110   54   55 am   BACKBONE|DICT|INTERRES
   111   54  179 1    
   112   55   56 2    
   113   55   57 1    
   114   57   58 1    
   115   57   59 1    
   116   57  180 1    
   117   58  181 1    
   118   58  182 1    
   119   58  183 1    
   120   59   60 am   BACKBONE|DICT|INTERRES
   121   59  184 1    
   122   60   61 2    
   123   60   62 1    
   124   62   63 1    
   125   62   64 1    
   126   62  185 1    
   127   63  186 1    
   128   63  187 1    
   129   63  188 1    
   130   64   65 am   BACKBONE|DICT|INTERRES
   131   64  189 1    
   132   65   66 2    
   133   67   68 2    
   134   67   69 am   BACKBONE|DICT|INTERRES
   135   69   70 1    
   136   69  190 1    
   137   70   71 1    
   138   70   72 1    
   139   70  191 1    
   140   71  192 1    
   141   71  193 1    
   142   71  194 1    
   143   72   73 2    
   144   72   74 am   BACKBONE|DICT|INTERRES
   145   74   75 1    
   146   74  195 1    
   147   75   76 1    
   148   75   77 1    
   149   75  196 1    
   150   76  197 1    
   151   76  198 1    
   152   76  199 1    
   153   77   78 2    
   154   77   79 am   BACKBONE|DICT|INTERRES
   155   79   80 1    
   156   79  200 1    
   157   80   81 1    
   158   80   82 1    
   159   80  201 1    
   160   81  202 1    
   161   81  203 1    
   162   81  204 1    
   163   82   83 2    
   164   82   84 am   BACKBONE|DICT|INTERRES
   165   84   85 1    
   166   84  205 1    
   167   85   86 1    
   168   85   87 1    
   169   85  206 1    
   170   86  207 1    
   171   86  208 1    
   172   86  209 1    
   173   87   88 2    
   174   87   89 am   BACKBONE|DICT|INTERRES
   175   89   90 1    
   176   89  210 1    
   177   90   91 1    
   178   90   92 1    
   179   90  211 1    
   180   91  212 1    
   181   91  213 1    
   182   91  214 1    
   183   92   93 2    
   184   92   94 am   BACKBONE|DICT|INTERRES
   185   94   95 1    
   186   94  215 1    
   187   95   96 1    
   188   95   97 1    
   189   95  216 1    
   190   96  217 1    
   191   96  218 1    
   192   96  219 1    
   193   97   98 2    
   194   97   99 am   BACKBONE|DICT|INTERRES
   195   99  100 1    
   196   99  220 1    
   197  100  101 1    
   198  100  102 1    
   199  100  221 1    
   200  101  222 1    
   201  101  223 1    
   202  101  224 1    
   203  102  103 2    
   204  102  104 am   BACKBONE|DICT|INTERRES
   205  104  105 1    
   206  104  225 1    
   207  105  106 1    
   208  105  107 1    
   209  105  226 1    
   210  106  227 1    
   211  106  228 1    
   212  106  229 1    
   213  107  108 2    
   214  107  109 am   BACKBONE|DICT|INTERRES
   215  109  110 1    
   216  109  230 1    
   217  110  111 1    
   218  110  112 1    
   219  110  231 1    
   220  111  232 1    
   221  111  233 1    
   222  111  234 1    
   223  112  113 2    
   224  112  114 am   BACKBONE|DICT|INTERRES
   225  114  115 1    
   226  114  235 1    
   227  115  116 1    
   228  115  117 1    
   229  115  236 1    
   230  116  237 1    
   231  116  238 1    
   232  116  239 1    
   233  117  118 2    
   234  117  119 am   BACKBONE|DICT|INTERRES
   235  119  120 1    
   236  119  240 1    
   237  120  121 1    
   238  120  124 1    
   239  120  241 1    
   240  121  122 am   BACKBONE|DICT|INTERRES
   241  121  123 2    
   242  122  242 1    
   243  122  243 1    
   244  124  125 1    
   245  124  244 1    
   246  124  245 1    
   247  125  126 1    
   248  126  246 1    
   249  126  247 1    
@<TRIPOS>SUBSTRUCTURE
     1 UNK         1 GROUP             0       ****    0 ROOT    
