@<TRIPOS>MOLECULE
3R540
247   249    1
SMALL
USER_CHARGES


@<TRIPOS>ATOM
      1 CA         -3.4955  -14.6972  -44.2777 C.3       0 UNK        -0.1800 
      2 C          -3.7498  -13.8374  -45.5072 C.2       0 UNK         0.5000 
      3 O          -4.4590  -12.8343  -45.4214 O.2       0 UNK        -0.5000 
      4 N          -3.1664  -14.2168  -46.6499 N.am      1 UNK        -0.5000 
      5 CA         -3.2882  -13.5450  -47.9483 C.3       1 UNK         0.1400 
      6 C6         -3.1021  -14.5364  -49.1287 C.3       23 UNK        -0.0398 
      7 S7         -1.5950  -15.5632  -49.0265 S.3       23 UNK        -0.2404 
      8 C8         -2.2568  -17.2491  -49.1893 C.3       23 UNK        -0.0205 
      9 C9         -1.1485  -18.2358  -49.5249 C.ar      23 UNK        -0.0193 
     10 C10        -1.0756  -18.8101  -50.7984 C.ar      23 UNK        -0.1150 
     11 C11        -0.0538  -19.7136  -51.1198 C.ar      23 UNK        -0.0193 
     12 C12         0.8981  -20.0296  -50.1470 C.ar      23 UNK        -0.1150 
     13 C13         0.8284  -19.4776  -48.8644 C.ar      23 UNK        -0.0193 
     14 C14        -0.1983  -18.5803  -48.5600 C.ar      23 UNK        -0.1150 
     15 C15         1.8532  -19.8609  -47.8035 C.3       23 UNK        -0.0205 
     16 S16         1.9257  -21.6610  -47.5112 S.3       23 UNK        -0.2404 
     17 C17         0.1669  -22.0683  -47.2512 C.3       23 UNK        -0.0398 
     18 CA         -0.0198  -23.4089  -46.5103 C.3       11 UNK         0.1400 
     19 N           0.5327  -23.3882  -45.1541 N.am      11 UNK        -0.5000 
     20 C           0.6725  -24.4730  -44.3806 C.2       10 UNK         0.5000 
     21 O           0.3909  -25.6136  -44.7470 O.2       10 UNK        -0.5000 
     22 CA          1.1456  -24.2329  -42.9384 C.3       10 UNK         0.1400 
     23 CB          2.6743  -24.0967  -42.8739 C.3       10 UNK        -0.1800 
     24 N           0.5139  -23.0454  -42.3627 N.am      10 UNK        -0.5000 
     25 C          -0.7751  -22.9829  -41.9990 C.2       9 UNK         0.5000 
     26 O          -1.5495  -23.9380  -42.0689 O.2       9 UNK        -0.5000 
     27 CA         -1.2948  -21.6132  -41.5195 C.3       9 UNK         0.1400 
     28 CB         -0.9661  -21.3982  -40.0348 C.3       9 UNK        -0.1800 
     29 N          -0.7598  -20.4965  -42.3025 N.am      9 UNK        -0.5000 
     30 C          -1.0264  -20.2913  -43.6000 C.2       8 UNK         0.5000 
     31 O          -1.7923  -20.9935  -44.2543 O.2       8 UNK        -0.5000 
     32 CA         -0.2818  -19.1475  -44.3104 C.3       8 UNK         0.1400 
     33 CB         -1.1354  -17.8738  -44.3166 C.3       8 UNK        -0.1800 
     34 N           1.0572  -18.8678  -43.7781 N.am      8 UNK        -0.5000 
     35 C           2.0552  -19.7666  -43.7311 C.2       7 UNK         0.5000 
     36 O           1.9164  -20.9362  -44.0935 O.2       7 UNK        -0.5000 
     37 CA          3.4086  -19.3121  -43.1410 C.3       7 UNK         0.1400 
     38 CB          4.6007  -20.1111  -43.7092 C.3       7 UNK        -0.1800 
     39 N           3.6459  -17.8666  -43.2301 N.am      7 UNK        -0.5000 
     40 C           3.8012  -17.1366  -44.3434 C.2       6 UNK         0.5000 
     41 O           3.8008  -17.5975  -45.4861 O.2       6 UNK        -0.5000 
     42 CA          3.9510  -15.6160  -44.1327 C.3       6 UNK         0.1400 
     43 CB          5.2638  -15.0970  -44.7405 C.3       6 UNK        -0.1800 
     44 N           2.8303  -14.8773  -44.7130 N.am      6 UNK        -0.5000 
     45 C           1.5387  -15.0553  -44.4032 C.2       5 UNK         0.5000 
     46 O           1.1602  -15.8069  -43.5027 O.2       5 UNK        -0.5000 
     47 CA          0.4858  -14.2645  -45.2116 C.3       5 UNK         0.1400 
     48 CB         -0.2180  -13.2467  -44.3027 C.3       5 UNK        -0.1800 
     49 N           0.9910  -13.5765  -46.4062 N.am      5 UNK        -0.5000 
     50 C           1.4908  -14.1800  -47.4976 C.2       4 UNK         0.5000 
     51 O           1.6173  -15.4003  -47.5872 O.2       4 UNK        -0.5000 
     52 CA          1.9518  -13.2881  -48.6700 C.3       4 UNK         0.1400 
     53 CB          1.4486  -13.8049  -50.0275 C.3       4 UNK        -0.1800 
     54 N           1.5296  -11.8963  -48.5192 N.am      4 UNK        -0.5000 
     55 C           2.2910  -10.9084  -48.0314 C.2       3 UNK         0.5000 
     56 O           3.4504  -11.0675  -47.6483 O.2       3 UNK        -0.5000 
     57 CA          1.6543   -9.5059  -47.9426 C.3       3 UNK         0.1400 
     58 CB          2.1141   -8.6329  -49.1204 C.3       3 UNK        -0.1800 
     59 N           0.1895   -9.5181  -47.9072 N.am      3 UNK        -0.5000 
     60 C          -0.5492  -10.0233  -46.9108 C.2       2 UNK         0.5000 
     61 O          -0.0600  -10.5319  -45.9026 O.2       2 UNK        -0.5000 
     62 CA         -2.0842   -9.9720  -47.0601 C.3       2 UNK         0.1400 
     63 CB         -2.5741   -9.0957  -48.2351 C.3       2 UNK        -0.1800 
     64 N          -2.6802  -11.3087  -47.1482 N.am      2 UNK        -0.5000 
     65 C          -2.4041  -12.2750  -48.0363 C.2       1 UNK         0.5000 
     66 O          -1.5179  -12.1803  -48.8878 O.2       1 UNK        -0.5000 
     67 C          -1.4997  -23.8447  -46.5279 C.2       11 UNK         0.5000 
     68 O          -1.9033  -24.5473  -47.4525 O.2       11 UNK        -0.5000 
     69 N          -2.2836  -23.4487  -45.5162 N.am      12 UNK        -0.5000 
     70 CA         -3.6705  -23.8734  -45.3247 C.3       12 UNK         0.1400 
     71 CB         -4.3516  -22.9890  -44.2707 C.3       12 UNK        -0.1800 
     72 C          -3.7810  -25.3600  -44.9536 C.2       12 UNK         0.5000 
     73 O          -4.6456  -26.0482  -45.4948 O.2       12 UNK        -0.5000 
     74 N          -2.8764  -25.8457  -44.0907 N.am      13 UNK        -0.5000 
     75 CA         -2.7578  -27.2624  -43.7303 C.3       13 UNK         0.1400 
     76 CB         -1.7624  -27.4189  -42.5710 C.3       13 UNK        -0.1800 
     77 C          -2.3583  -28.1499  -44.9271 C.2       13 UNK         0.5000 
     78 O          -2.8567  -29.2690  -45.0502 O.2       13 UNK        -0.5000 
     79 N          -1.5045  -27.6140  -45.8097 N.am      14 UNK        -0.5000 
     80 CA         -1.1095  -28.2221  -47.0824 C.3       14 UNK         0.1400 
     81 CB          0.2040  -27.5711  -47.5455 C.3       14 UNK        -0.1800 
     82 C          -2.1823  -28.1039  -48.1880 C.2       14 UNK         0.5000 
     83 O          -2.0256  -28.7282  -49.2378 O.2       14 UNK        -0.5000 
     84 N          -3.2263  -27.2936  -47.9514 N.am      15 UNK        -0.5000 
     85 CA         -4.3158  -26.9268  -48.8661 C.3       15 UNK         0.1400 
     86 CB         -5.1590  -28.1591  -49.2527 C.3       15 UNK        -0.1800 
     87 C          -3.8516  -26.1074  -50.0919 C.2       15 UNK         0.5000 
     88 O          -4.5516  -26.0633  -51.1045 O.2       15 UNK        -0.5000 
     89 N          -2.6929  -25.4488  -49.9713 N.am      16 UNK        -0.5000 
     90 CA         -2.1056  -24.5732  -50.9816 C.3       16 UNK         0.1400 
     91 CB         -0.5819  -24.5333  -50.7855 C.3       16 UNK        -0.1800 
     92 C          -2.6902  -23.1538  -50.9112 C.2       16 UNK         0.5000 
     93 O          -2.8670  -22.5211  -51.9521 O.2       16 UNK        -0.5000 
     94 N          -3.0090  -22.6855  -49.6925 N.am      17 UNK        -0.5000 
     95 CA         -3.5175  -21.3325  -49.4279 C.3       17 UNK         0.1400 
     96 CB         -3.5966  -21.0820  -47.9153 C.3       17 UNK        -0.1800 
     97 C          -4.8721  -21.0222  -50.0916 C.2       17 UNK         0.5000 
     98 O          -5.1783  -19.8523  -50.3203 O.2       17 UNK        -0.5000 
     99 N          -5.6346  -22.0727  -50.4263 N.am      18 UNK        -0.5000 
    100 CA        -6.9099  -22.0193  -51.1424 C.3       18 UNK         0.1400 
    101 CB        -7.4941  -23.4389  -51.2080 C.3       18 UNK        -0.1800 
    102 C         -6.8187  -21.4067  -52.5562 C.2       18 UNK         0.5000 
    103 O         -7.8313  -20.9226  -53.0630 O.2       18 UNK        -0.5000 
    104 N         -5.6208  -21.4156  -53.1621 N.am      19 UNK        -0.5000 
    105 CA        -5.3394  -20.7545  -54.4386 C.3       19 UNK         0.1400 
    106 CB        -4.0156  -21.2895  -55.0007 C.3       19 UNK        -0.1800 
    107 C         -5.3115  -19.2149  -54.3319 C.2       19 UNK         0.5000 
    108 O         -5.5532  -18.5432  -55.3356 O.2       19 UNK        -0.5000 
    109 N         -5.0427  -18.6929  -53.1241 N.am      20 UNK        -0.5000 
    110 CA        -5.0761  -17.2952  -52.6731 C.3       20 UNK         0.1400 
    111 CB        -6.5057  -16.7296  -52.7537 C.3       20 UNK        -0.1800 
    112 C         -4.0698  -16.3369  -53.3411 C.2       20 UNK         0.5000 
    113 O         -3.3806  -15.6032  -52.6324 O.2       20 UNK        -0.5000 
    114 N         -4.0004  -16.3460  -54.6779 N.am      21 UNK        -0.5000 
    115 CA        -3.2098  -15.4337  -55.5127 C.3       21 UNK         0.1400 
    116 CB        -3.5385  -15.7038  -56.9888 C.3       21 UNK        -0.1800 
    117 C         -1.6893  -15.5118  -55.2757 C.2       21 UNK         0.5000 
    118 O         -0.9867  -14.5214  -55.4813 O.2       21 UNK        -0.5000 
    119 N         -1.2211  -16.6811  -54.8313 N.am      22 UNK        -0.5000 
    120 CA         0.1448  -16.9403  -54.3564 C.3       22 UNK         0.1400 
    121 C          0.4701  -16.3625  -52.9473 C.2       22 UNK         0.5000 
    122 N         -0.4820  -15.7972  -52.2157 N.am      22 UNK        -0.7600 
    123 O          1.6202  -16.4107  -52.5206 O.2       22 UNK        -0.5000 
    124 C124        0.5062  -18.4458  -54.4721 C.3       23 UNK        -0.0398 
    125 S125       -0.7938  -19.5804  -53.8634 S.3       23 UNK        -0.2404 
    126 C126        0.0235  -20.4271  -52.4696 C.3       23 UNK        -0.0205 
    127 H127       -2.7103  -15.4315  -44.4547 H         1 UNK         0.0600 
    128 H128       -4.4048  -15.2285  -43.9969 H         1 UNK         0.0600 
    129 H129       -3.1914  -14.0728  -43.4378 H         1 UNK         0.0600 
    130 H130       -2.5744  -15.0346  -46.6607 H         1 UNK         0.3000 
    131 H131       -4.3144  -13.1801  -48.0317 H         1 UNK         0.0600 
    132 H132       -3.9702  -15.1952  -49.1707 H         1 UNK         0.0800 
    133 H133       -3.0978  -14.0097  -50.0848 H         1 UNK         0.0800 
    134 H134       -3.0211  -17.2652  -49.9670 H         1 UNK         0.0800 
    135 H135       -2.7473  -17.5432  -48.2605 H         1 UNK         0.0800 
    136 H136       -1.8264  -18.5559  -51.5319 H         1 UNK         0.1150 
    137 H137        1.6856  -20.7335  -50.3772 H         1 UNK         0.1150 
    138 H138       -0.2541  -18.1354  -47.5765 H         1 UNK         0.1150 
    139 H139        1.6480  -19.3547  -46.8598 H         1 UNK         0.0800 
    140 H140        2.8374  -19.5147  -48.1211 H         1 UNK         0.0800 
    141 H141       -0.3087  -22.1016  -48.2333 H         1 UNK         0.0800 
    142 H142       -0.3148  -21.2600  -46.7029 H         1 UNK         0.0800 
    143 H143        0.5309  -24.1696  -47.0676 H         1 UNK         0.0600 
    144 H144        0.8476  -22.4907  -44.7986 H         1 UNK         0.3000 
    145 H145        0.8583  -25.1008  -42.3409 H         1 UNK         0.0600 
    146 H146        3.1590  -25.0005  -43.2452 H         1 UNK         0.0600 
    147 H147        3.0142  -23.9427  -41.8498 H         1 UNK         0.0600 
    148 H148        3.0350  -23.2634  -43.4768 H         1 UNK         0.0600 
    149 H149        1.0652  -22.1988  -42.3577 H         1 UNK         0.3000 
    150 H150       -2.3812  -21.6139  -41.6311 H         1 UNK         0.0600 
    151 H151        0.1099  -21.3596  -39.8604 H         1 UNK         0.0600 
    152 H152       -1.3688  -22.2083  -39.4252 H         1 UNK         0.0600 
    153 H153       -1.4001  -20.4689  -39.6656 H         1 UNK         0.0600 
    154 H154       -0.1202  -19.8704  -41.8363 H         1 UNK         0.3000 
    155 H155       -0.1554  -19.4541  -45.3479 H         1 UNK         0.0600 
    156 H156       -0.7292  -17.1457  -45.0154 H         1 UNK         0.0600 
    157 H157       -1.1845  -17.4133  -43.3293 H         1 UNK         0.0600 
    158 H158       -2.1574  -18.0838  -44.6357 H         1 UNK         0.0600 
    159 H159        1.2366  -17.9138  -43.4830 H         1 UNK         0.3000 
    160 H160        3.3511  -19.5364  -42.0751 H         1 UNK         0.0600 
    161 H161        4.6651  -20.0270  -44.7944 H         1 UNK         0.0600 
    162 H162        4.5091  -21.1716  -43.4725 H         1 UNK         0.0600 
    163 H163        5.5450  -19.7673  -43.2876 H         1 UNK         0.0600 
    164 H164        3.6326  -17.3775  -42.3456 H         1 UNK         0.3000 
    165 H165        3.9676  -15.4041  -43.0617 H         1 UNK         0.0600 
    166 H166        5.4026  -14.0356  -44.5342 H         1 UNK         0.0600 
    167 H167        6.1220  -15.6244  -44.3220 H         1 UNK         0.0600 
    168 H168        5.2892  -15.2349  -45.8223 H         1 UNK         0.0600 
    169 H169        3.0469  -14.2607  -45.4810 H         1 UNK         0.3000 
    170 H170       -0.2616  -14.9817  -45.5512 H         1 UNK         0.0600 
    171 H171       -1.0411  -12.7566  -44.8211 H         1 UNK         0.0600 
    172 H172        0.4706  -12.4739  -43.9593 H         1 UNK         0.0600 
    173 H173       -0.6363  -13.7287  -43.4182 H         1 UNK         0.0600 
    174 H174        0.9153  -12.5671  -46.4054 H         1 UNK         0.3000 
    175 H175        3.0418  -13.3470  -48.6864 H         1 UNK         0.0600 
    176 H176        1.6949  -14.8578  -50.1696 H         1 UNK         0.0600 
    177 H177        0.3686  -13.7000  -50.1221 H         1 UNK         0.0600 
    178 H178        1.9059  -13.2546  -50.8496 H         1 UNK         0.0600 
    179 H179        0.5650  -11.7003  -48.7667 H         1 UNK         0.3000 
    180 H180        2.0086   -9.0461  -47.0177 H         1 UNK         0.0600 
    181 H181        1.7706   -9.0332  -50.0751 H         1 UNK         0.0600 
    182 H182        3.2026   -8.5735  -49.1619 H         1 UNK         0.0600 
    183 H183        1.7383   -7.6138  -49.0274 H         1 UNK         0.0600 
    184 H184       -0.2858   -9.1388  -48.7132 H         1 UNK         0.3000 
    185 H185       -2.4614   -9.5267  -46.1385 H         1 UNK         0.0600 
    186 H186       -2.1904   -8.0776  -48.1560 H         1 UNK         0.0600 
    187 H187       -2.2713   -9.4949  -49.2038 H         1 UNK         0.0600 
    188 H188       -3.6619   -9.0252  -48.2370 H         1 UNK         0.0600 
    189 H189       -3.3862  -11.5238  -46.4502 H         1 UNK         0.3000 
    190 H190       -1.9237  -22.7728  -44.8479 H         1 UNK         0.3000 
    191 H191       -4.2005  -23.7396  -46.2691 H         1 UNK         0.0600 
    192 H192       -4.3643  -21.9450  -44.5839 H         1 UNK         0.0600 
    193 H193       -5.3871  -23.2933  -44.1142 H         1 UNK         0.0600 
    194 H194       -3.8431  -23.0435  -43.3080 H         1 UNK         0.0600 
    195 H195       -2.2219  -25.2062  -43.6542 H         1 UNK         0.3000 
    196 H196       -3.7365  -27.5992  -43.3824 H         1 UNK         0.0600 
    197 H197       -1.6976  -28.4596  -42.2514 H         1 UNK         0.0600 
    198 H198       -2.0693  -26.8308  -41.7058 H         1 UNK         0.0600 
    199 H199       -0.7590  -27.1001  -42.8523 H         1 UNK         0.0600 
    200 H200       -1.0762  -26.7222  -45.5824 H         1 UNK         0.3000 
    201 H201       -0.9245  -29.2854  -46.9173 H         1 UNK         0.0600 
    202 H202        0.5740  -28.0390  -48.4585 H         1 UNK         0.0600 
    203 H203        0.9834  -27.6724  -46.7900 H         1 UNK         0.0600 
    204 H204        0.0742  -26.5086  -47.7520 H         1 UNK         0.0600 
    205 H205       -3.2580  -26.8318  -47.0517 H         1 UNK         0.3000 
    206 H206       -4.9632  -26.2584  -48.2971 H         1 UNK         0.0600 
    207 H207       -5.4751  -28.7128  -48.3685 H         1 UNK         0.0600 
    208 H208       -6.0620  -27.8629  -49.7878 H         1 UNK         0.0600 
    209 H209       -4.6081  -28.8427  -49.8989 H         1 UNK         0.0600 
    210 H210       -2.2326  -25.4641  -49.0656 H         1 UNK         0.3000 
    211 H211       -2.3135  -24.9776  -51.9745 H         1 UNK         0.0600 
    212 H212       -0.3087  -24.1400  -49.8058 H         1 UNK         0.0600 
    213 H213       -0.1074  -23.9012  -51.5372 H         1 UNK         0.0600 
    214 H214       -0.1483  -25.5293  -50.8771 H         1 UNK         0.0600 
    215 H215       -2.8432  -23.2839  -48.8931 H         1 UNK         0.3000 
    216 H216       -2.7947  -20.6335  -49.8455 H         1 UNK         0.0600 
    217 H217       -3.9233  -20.0623  -47.7073 H         1 UNK         0.0600 
    218 H218       -2.6273  -21.2053  -47.4366 H         1 UNK         0.0600 
    219 H219       -4.3062  -21.7535  -47.4338 H         1 UNK         0.0600 
    220 H220       -5.2806  -22.9934  -50.2143 H         1 UNK         0.3000 
    221 H221       -7.5893  -21.3929  -50.5609 H         1 UNK         0.0600 
    222 H222       -6.8361  -24.1190  -51.7511 H         1 UNK         0.0600 
    223 H223       -7.6504  -23.8489  -50.2101 H         1 UNK         0.0600 
    224 H224       -8.4605  -23.4423  -51.7141 H         1 UNK         0.0600 
    225 H225       -4.8310  -21.8379  -52.6871 H         1 UNK         0.3000 
    226 H226       -6.1323  -21.0152  -55.1429 H         1 UNK         0.0600 
    227 H227       -4.0784  -22.3585  -55.2044 H         1 UNK         0.0600 
    228 H228       -3.1950  -21.1336  -54.3018 H         1 UNK         0.0600 
    229 H229       -3.7529  -20.7935  -55.9361 H         1 UNK         0.0600 
    230 H230       -4.8814  -19.3528  -52.3724 H         1 UNK         0.3000 
    231 H231       -4.8076  -17.3311  -51.6166 H         1 UNK         0.0600 
    232 H232       -6.8647  -16.6732  -53.7817 H         1 UNK         0.0600 
    233 H233       -6.5510  -15.7230  -52.3362 H         1 UNK         0.0600 
    234 H234       -7.2038  -17.3476  -52.1887 H         1 UNK         0.0600 
    235 H235       -4.5900  -17.0202  -55.1620 H         1 UNK         0.3000 
    236 H236       -3.5227  -14.4158  -55.2721 H         1 UNK         0.0600 
    237 H237       -3.2806  -16.7240  -57.2762 H         1 UNK         0.0600 
    238 H238       -4.5999  -15.5572  -57.1897 H         1 UNK         0.0600 
    239 H239       -2.9876  -15.0274  -57.6438 H         1 UNK         0.0600 
    240 H240       -1.8769  -17.4350  -54.6865 H         1 UNK         0.3000 
    241 H241        0.8193  -16.4085  -55.0301 H         1 UNK         0.0600 
    242 H242       -1.4433  -15.7458  -52.5356 H         1 UNK         0.3800 
    243 H243       -0.2555  -15.4670  -51.2916 H         1 UNK         0.3800 
    244 H244        1.4592  -18.6635  -53.9873 H         1 UNK         0.0800 
    245 H245        0.6619  -18.6863  -55.5244 H         1 UNK         0.0800 
    246 H246       -0.4481  -21.4025  -52.3527 H         1 UNK         0.0800 
    247 H247        1.0630  -20.6269  -52.7333 H         1 UNK         0.0800 
@<TRIPOS>BOND
     1    1    2 1    
     2    1  127 1    
     3    1  128 1    
     4    1  129 1    
     5    2    3 2    
     6    2    4 am   BACKBONE|DICT|INTERRES
     7    4    5 1    
     8    4  130 1    
     9    5    6 1    
    10    5   65 1    
    11    5  131 1    
    12    6    7 1    
    13    6  132 1    
    14    6  133 1    
    15    7    8 1    
    16    8    9 1    
    17    8  134 1    
    18    8  135 1    
    19    9   10 ar   
    20    9   14 ar   
    21   10   11 ar   
    22   10  136 1    
    23   11   12 ar   
    24   11  126 1    
    25   12   13 ar   
    26   12  137 1    
    27   13   14 ar   
    28   13   15 1    
    29   14  138 1    
    30   15   16 1    
    31   15  139 1    
    32   15  140 1    
    33   16   17 1    
    34   17   18 1    
    35   17  141 1    
    36   17  142 1    
    37   18   19 1    
    38   18   67 1    
    39   18  143 1    
    40   19   20 am   BACKBONE|DICT|INTERRES
    41   19  144 1    
    42   20   21 2    
    43   20   22 1    
    44   22   23 1    
    45   22   24 1    
    46   22  145 1    
    47   23  146 1    
    48   23  147 1    
    49   23  148 1    
    50   24   25 am   BACKBONE|DICT|INTERRES
    51   24  149 1    
    52   25   26 2    
    53   25   27 1    
    54   27   28 1    
    55   27   29 1    
    56   27  150 1    
    57   28  151 1    
    58   28  152 1    
    59   28  153 1    
    60   29   30 am   BACKBONE|DICT|INTERRES
    61   29  154 1    
    62   30   31 2    
    63   30   32 1    
    64   32   33 1    
    65   32   34 1    
    66   32  155 1    
    67   33  156 1    
    68   33  157 1    
    69   33  158 1    
    70   34   35 am   BACKBONE|DICT|INTERRES
    71   34  159 1    
    72   35   36 2    
    73   35   37 1    
    74   37   38 1    
    75   37   39 1    
    76   37  160 1    
    77   38  161 1    
    78   38  162 1    
    79   38  163 1    
    80   39   40 am   BACKBONE|DICT|INTERRES
    81   39  164 1    
    82   40   41 2    
    83   40   42 1    
    84   42   43 1    
    85   42   44 1    
    86   42  165 1    
    87   43  166 1    
    88   43  167 1    
    89   43  168 1    
    90   44   45 am   BACKBONE|DICT|INTERRES
    91   44  169 1    
    92   45   46 2    
    93   45   47 1    
    94   47   48 1    
    95   47   49 1    
    96   47  170 1    
    97   48  171 1    
    98   48  172 1    
    99   48  173 1    
   100   49   50 am   BACKBONE|DICT|INTERRES
   101   49  174 1    
   102   50   51 2    
   103   50   52 1    
   104   52   53 1    
   105   52   54 1    
   106   52  175 1    
   107   53  176 1    
   108   53  177 1    
   109   53  178 1    
   110   54   55 am   BACKBONE|DICT|INTERRES
   111   54  179 1    
   112   55   56 2    
   113   55   57 1    
   114   57   58 1    
   115   57   59 1    
   116   57  180 1    
   117   58  181 1    
   118   58  182 1    
   119   58  183 1    
   120   59   60 am   BACKBONE|DICT|INTERRES
   121   59  184 1    
   122   60   61 2    
   123   60   62 1    
   124   62   63 1    
   125   62   64 1    
   126   62  185 1    
   127   63  186 1    
   128   63  187 1    
   129   63  188 1    
   130   64   65 am   BACKBONE|DICT|INTERRES
   131   64  189 1    
   132   65   66 2    
   133   67   68 2    
   134   67   69 am   BACKBONE|DICT|INTERRES
   135   69   70 1    
   136   69  190 1    
   137   70   71 1    
   138   70   72 1    
   139   70  191 1    
   140   71  192 1    
   141   71  193 1    
   142   71  194 1    
   143   72   73 2    
   144   72   74 am   BACKBONE|DICT|INTERRES
   145   74   75 1    
   146   74  195 1    
   147   75   76 1    
   148   75   77 1    
   149   75  196 1    
   150   76  197 1    
   151   76  198 1    
   152   76  199 1    
   153   77   78 2    
   154   77   79 am   BACKBONE|DICT|INTERRES
   155   79   80 1    
   156   79  200 1    
   157   80   81 1    
   158   80   82 1    
   159   80  201 1    
   160   81  202 1    
   161   81  203 1    
   162   81  204 1    
   163   82   83 2    
   164   82   84 am   BACKBONE|DICT|INTERRES
   165   84   85 1    
   166   84  205 1    
   167   85   86 1    
   168   85   87 1    
   169   85  206 1    
   170   86  207 1    
   171   86  208 1    
   172   86  209 1    
   173   87   88 2    
   174   87   89 am   BACKBONE|DICT|INTERRES
   175   89   90 1    
   176   89  210 1    
   177   90   91 1    
   178   90   92 1    
   179   90  211 1    
   180   91  212 1    
   181   91  213 1    
   182   91  214 1    
   183   92   93 2    
   184   92   94 am   BACKBONE|DICT|INTERRES
   185   94   95 1    
   186   94  215 1    
   187   95   96 1    
   188   95   97 1    
   189   95  216 1    
   190   96  217 1    
   191   96  218 1    
   192   96  219 1    
   193   97   98 2    
   194   97   99 am   BACKBONE|DICT|INTERRES
   195   99  100 1    
   196   99  220 1    
   197  100  101 1    
   198  100  102 1    
   199  100  221 1    
   200  101  222 1    
   201  101  223 1    
   202  101  224 1    
   203  102  103 2    
   204  102  104 am   BACKBONE|DICT|INTERRES
   205  104  105 1    
   206  104  225 1    
   207  105  106 1    
   208  105  107 1    
   209  105  226 1    
   210  106  227 1    
   211  106  228 1    
   212  106  229 1    
   213  107  108 2    
   214  107  109 am   BACKBONE|DICT|INTERRES
   215  109  110 1    
   216  109  230 1    
   217  110  111 1    
   218  110  112 1    
   219  110  231 1    
   220  111  232 1    
   221  111  233 1    
   222  111  234 1    
   223  112  113 2    
   224  112  114 am   BACKBONE|DICT|INTERRES
   225  114  115 1    
   226  114  235 1    
   227  115  116 1    
   228  115  117 1    
   229  115  236 1    
   230  116  237 1    
   231  116  238 1    
   232  116  239 1    
   233  117  118 2    
   234  117  119 am   BACKBONE|DICT|INTERRES
   235  119  120 1    
   236  119  240 1    
   237  120  121 1    
   238  120  124 1    
   239  120  241 1    
   240  121  122 am   BACKBONE|DICT|INTERRES
   241  121  123 2    
   242  122  242 1    
   243  122  243 1    
   244  124  125 1    
   245  124  244 1    
   246  124  245 1    
   247  125  126 1    
   248  126  246 1    
   249  126  247 1    
@<TRIPOS>SUBSTRUCTURE
     1 UNK         1 GROUP             0       ****    0 ROOT    
