@<TRIPOS>MOLECULE
3R540
247   249    1
SMALL
USER_CHARGES


@<TRIPOS>ATOM
      1 CA         -1.2112  -13.4877  -48.9881 C.3       0 UNK        -0.1800 
      2 C           0.1338  -12.7917  -48.8329 C.2       0 UNK         0.5000 
      3 O           0.4457  -11.8863  -49.6070 O.2       0 UNK        -0.5000 
      4 N           0.9325  -13.2120  -47.8434 N.am      1 UNK        -0.5000 
      5 CA          2.2332  -12.6217  -47.5058 C.3       1 UNK         0.1400 
      6 C6          3.0856  -13.5070  -46.5529 C.3       23 UNK        -0.0398 
      7 S7          2.9167  -15.3037  -46.8065 S.3       23 UNK        -0.2404 
      8 C8          3.9532  -15.6017  -48.2631 C.3       23 UNK        -0.0205 
      9 C9          3.6018  -16.9458  -48.8794 C.ar      23 UNK        -0.0193 
     10 C10         2.6362  -17.0192  -49.8878 C.ar      23 UNK        -0.1150 
     11 C11         2.2847  -18.2502  -50.4485 C.ar      23 UNK        -0.0193 
     12 C12         2.9354  -19.4081  -50.0129 C.ar      23 UNK        -0.1150 
     13 C13         3.8732  -19.3554  -48.9781 C.ar      23 UNK        -0.0193 
     14 C14         4.2103  -18.1183  -48.4207 C.ar      23 UNK        -0.1150 
     15 C15         4.5039  -20.6387  -48.4546 C.3       23 UNK        -0.0205 
     16 S16         3.5117  -21.3962  -47.1230 S.3       23 UNK        -0.2404 
     17 C17         2.0040  -21.8755  -48.0304 C.3       23 UNK        -0.0398 
     18 CA          1.1323  -22.9132  -47.2847 C.3       11 UNK         0.1400 
     19 N           0.4985  -22.3687  -46.0763 N.am      11 UNK        -0.5000 
     20 C          -0.2334  -23.0864  -45.2097 C.2       10 UNK         0.5000 
     21 O          -0.3977  -24.3038  -45.3001 O.2       10 UNK        -0.5000 
     22 CA         -0.9431  -22.3171  -44.0789 C.3       10 UNK         0.1400 
     23 CB          0.0311  -21.9792  -42.9406 C.3       10 UNK        -0.1800 
     24 N          -1.6063  -21.0999  -44.5505 N.am      10 UNK        -0.5000 
     25 C          -2.6499  -21.0854  -45.3929 C.2       9 UNK         0.5000 
     26 O          -3.1957  -22.1019  -45.8165 O.2       9 UNK        -0.5000 
     27 CA         -3.1381  -19.7128  -45.8948 C.3       9 UNK         0.1400 
     28 CB         -4.0964  -19.0587  -44.8900 C.3       9 UNK        -0.1800 
     29 N          -2.0392  -18.7989  -46.2017 N.am      9 UNK        -0.5000 
     30 C          -1.1043  -19.0378  -47.1329 C.2       8 UNK         0.5000 
     31 O          -1.1064  -20.0256  -47.8636 O.2       8 UNK        -0.5000 
     32 CA          0.0582  -18.0380  -47.2125 C.3       8 UNK         0.1400 
     33 CB         -0.3607  -16.8012  -48.0199 C.3       8 UNK        -0.1800 
     34 N           0.5241  -17.6512  -45.8779 N.am      8 UNK        -0.5000 
     35 C           1.1055  -18.5000  -45.0167 C.2       7 UNK         0.5000 
     36 O           1.3447  -19.6771  -45.2793 O.2       7 UNK        -0.5000 
     37 CA          1.3945  -17.9773  -43.5986 C.3       7 UNK         0.1400 
     38 CB          2.7390  -17.2397  -43.5296 C.3       7 UNK        -0.1800 
     39 N           0.3203  -17.1163  -43.1027 N.am      7 UNK        -0.5000 
     40 C          -0.8898  -17.5750  -42.7465 C.2       6 UNK         0.5000 
     41 O          -1.1893  -18.7685  -42.7587 O.2       6 UNK        -0.5000 
     42 CA         -1.9596  -16.5398  -42.3416 C.3       6 UNK         0.1400 
     43 CB         -1.9435  -16.3192  -40.8219 C.3       6 UNK        -0.1800 
     44 N          -1.8097  -15.2494  -43.0140 N.am      6 UNK        -0.5000 
     45 C          -1.8691  -15.0606  -44.3391 C.2       5 UNK         0.5000 
     46 O          -2.1483  -15.9540  -45.1396 O.2       5 UNK        -0.5000 
     47 CA         -1.4949  -13.6587  -44.8654 C.3       5 UNK         0.1400 
     48 CB         -2.7532  -12.8574  -45.2260 C.3       5 UNK        -0.1800 
     49 N          -0.6514  -12.8585  -43.9670 N.am      5 UNK        -0.5000 
     50 C           0.5620  -13.2171  -43.5226 C.2       4 UNK         0.5000 
     51 O           1.0711  -14.3099  -43.7722 O.2       4 UNK        -0.5000 
     52 CA          1.3150  -12.1925  -42.6583 C.3       4 UNK         0.1400 
     53 CB          2.8041  -12.5428  -42.4588 C.3       4 UNK        -0.1800 
     54 N           1.1858  -10.8465  -43.2168 N.am      4 UNK        -0.5000 
     55 C           1.2744   -9.7156  -42.5030 C.2       3 UNK         0.5000 
     56 O           1.4004   -9.7021  -41.2768 O.2       3 UNK        -0.5000 
     57 CA          1.2022   -8.3783  -43.2770 C.3       3 UNK         0.1400 
     58 CB          1.9303   -7.2275  -42.5504 C.3       3 UNK        -0.1800 
     59 N           1.6460   -8.4720  -44.6730 N.am      3 UNK        -0.5000 
     60 C           2.8611   -8.8154  -45.1256 C.2       2 UNK         0.5000 
     61 O           3.8262   -9.0815  -44.4068 O.2       2 UNK        -0.5000 
     62 CA          2.9954   -8.9249  -46.6583 C.3       2 UNK         0.1400 
     63 CB          4.2713   -8.2287  -47.1605 C.3       2 UNK        -0.1800 
     64 N           2.9929  -10.3134  -47.1290 N.am      2 UNK        -0.5000 
     65 C           2.0358  -11.2204  -46.8894 C.2       1 UNK         0.5000 
     66 O           1.0392  -11.0015  -46.1934 O.2       1 UNK        -0.5000 
     67 C           0.0901  -23.5102  -48.2527 C.2       11 UNK         0.5000 
     68 O           0.2855  -24.6225  -48.7441 O.2       11 UNK        -0.5000 
     69 N          -1.0086  -22.7786  -48.4842 N.am      12 UNK        -0.5000 
     70 CA         -2.1325  -23.2162  -49.3063 C.3       12 UNK         0.1400 
     71 CB         -3.1208  -22.0619  -49.5017 C.3       12 UNK        -0.1800 
     72 C          -2.8360  -24.4536  -48.7281 C.2       12 UNK         0.5000 
     73 O          -3.0798  -25.3990  -49.4735 O.2       12 UNK        -0.5000 
     74 N          -3.0976  -24.4609  -47.4132 N.am      13 UNK        -0.5000 
     75 CA         -3.6964  -25.5877  -46.6949 C.3       13 UNK         0.1400 
     76 CB         -3.9733  -25.1940  -45.2366 C.3       13 UNK        -0.1800 
     77 C          -2.8413  -26.8657  -46.7614 C.2       13 UNK         0.5000 
     78 O          -3.3910  -27.9470  -46.9717 O.2       13 UNK        -0.5000 
     79 N          -1.5136  -26.7178  -46.6436 N.am      14 UNK        -0.5000 
     80 CA         -0.5400  -27.8005  -46.8105 C.3       14 UNK         0.1400 
     81 CB          0.8508  -27.3064  -46.3852 C.3       14 UNK        -0.1800 
     82 C          -0.5058  -28.3694  -48.2443 C.2       14 UNK         0.5000 
     83 O          -0.2900  -29.5694  -48.4165 O.2       14 UNK        -0.5000 
     84 N          -0.7530  -27.5090  -49.2406 N.am      15 UNK        -0.5000 
     85 CA         -0.8838  -27.8657  -50.6552 C.3       15 UNK         0.1400 
     86 CB         -0.5091  -26.6392  -51.5044 C.3       15 UNK        -0.1800 
     87 C          -2.2915  -28.3804  -51.0322 C.2       15 UNK         0.5000 
     88 O          -2.4867  -28.7925  -52.1765 O.2       15 UNK        -0.5000 
     89 N          -3.2413  -28.3373  -50.0845 N.am      16 UNK        -0.5000 
     90 CA         -4.6670  -28.6574  -50.2201 C.3       16 UNK         0.1400 
     91 CB         -4.8723  -30.1530  -50.5397 C.3       16 UNK        -0.1800 
     92 C          -5.4112  -27.7148  -51.1936 C.2       16 UNK         0.5000 
     93 O          -6.3115  -28.1510  -51.9141 O.2       16 UNK        -0.5000 
     94 N          -5.0224  -26.4357  -51.1889 N.am      17 UNK        -0.5000 
     95 CA         -5.5969  -25.3511  -51.9783 C.3       17 UNK         0.1400 
     96 CB         -4.4580  -24.6887  -52.7737 C.3       17 UNK        -0.1800 
     97 C          -6.2694  -24.3190  -51.0556 C.2       17 UNK         0.5000 
     98 O          -6.0570  -24.3303  -49.8405 O.2       17 UNK        -0.5000 
     99 N          -7.0534  -23.4175  -51.6574 N.am      18 UNK        -0.5000 
    100 CA        -7.5826  -22.2227  -50.9993 C.3       18 UNK         0.1400 
    101 CB        -8.7759  -21.6970  -51.8123 C.3       18 UNK        -0.1800 
    102 C         -6.4931  -21.1403  -50.9046 C.2       18 UNK         0.5000 
    103 O         -5.6316  -21.0700  -51.7832 O.2       18 UNK        -0.5000 
    104 N         -6.5736  -20.2750  -49.8846 N.am      19 UNK        -0.5000 
    105 CA        -5.6297  -19.1712  -49.6565 C.3       19 UNK         0.1400 
    106 CB        -5.9673  -18.4803  -48.3269 C.3       19 UNK        -0.1800 
    107 C         -5.5854  -18.1450  -50.8080 C.2       19 UNK         0.5000 
    108 O         -4.5307  -17.5703  -51.0746 O.2       19 UNK        -0.5000 
    109 N         -6.7177  -17.9756  -51.5040 N.am      20 UNK        -0.5000 
    110 CA        -6.8485  -17.1505  -52.7063 C.3       20 UNK         0.1400 
    111 CB        -8.3423  -16.9076  -52.9730 C.3       20 UNK        -0.1800 
    112 C         -6.1738  -17.7618  -53.9534 C.2       20 UNK         0.5000 
    113 O         -5.9203  -17.0334  -54.9132 O.2       20 UNK        -0.5000 
    114 N         -5.9004  -19.0738  -53.9276 N.am      21 UNK        -0.5000 
    115 CA        -5.2713  -19.8307  -55.0114 C.3       21 UNK         0.1400 
    116 CB        -6.0249  -21.1622  -55.1803 C.3       21 UNK        -0.1800 
    117 C         -3.7665  -20.0681  -54.7668 C.2       21 UNK         0.5000 
    118 O         -3.1363  -20.7705  -55.5589 O.2       21 UNK        -0.5000 
    119 N         -3.2152  -19.4976  -53.6859 N.am      22 UNK        -0.5000 
    120 CA        -1.7919  -19.5540  -53.3231 C.3       22 UNK         0.1400 
    121 C         -0.8730  -18.9134  -54.4030 C.2       22 UNK         0.5000 
    122 N          0.1959  -19.5881  -54.8046 N.am      22 UNK        -0.7600 
    123 O         -1.1061  -17.7938  -54.8529 O.2       22 UNK        -0.5000 
    124 C124       -1.5587  -18.9051  -51.9354 C.3       23 UNK        -0.0398 
    125 S125       -0.0895  -19.5540  -51.0739 S.3       23 UNK        -0.2404 
    126 C126        1.1907  -18.3266  -51.5062 C.3       23 UNK        -0.0205 
    127 H127       -1.9829  -12.7634  -49.2490 H         1 UNK         0.0600 
    128 H128       -1.5191  -13.9828  -48.0686 H         1 UNK         0.0600 
    129 H129       -1.1595  -14.2334  -49.7815 H         1 UNK         0.0600 
    130 H130        0.6424  -13.9690  -47.2445 H         1 UNK         0.3000 
    131 H131        2.7863  -12.5096  -48.4407 H         1 UNK         0.0600 
    132 H132        4.1400  -13.2360  -46.6261 H         1 UNK         0.0800 
    133 H133        2.8095  -13.3305  -45.5140 H         1 UNK         0.0800 
    134 H134        5.0058  -15.5741  -47.9776 H         1 UNK         0.0800 
    135 H135        3.8039  -14.8060  -48.9942 H         1 UNK         0.0800 
    136 H136        2.1437  -16.1159  -50.2197 H         1 UNK         0.1150 
    137 H137        2.6742  -20.3602  -50.4518 H         1 UNK         0.1150 
    138 H138        4.9330  -18.0687  -47.6184 H         1 UNK         0.1150 
    139 H139        4.6359  -21.3546  -49.2673 H         1 UNK         0.0800 
    140 H140        5.5035  -20.4290  -48.0711 H         1 UNK         0.0800 
    141 H141        2.3196  -22.2747  -48.9962 H         1 UNK         0.0800 
    142 H142        1.4227  -20.9768  -48.2418 H         1 UNK         0.0800 
    143 H143        1.7787  -23.7347  -46.9686 H         1 UNK         0.0600 
    144 H144        0.6360  -21.3765  -45.9019 H         1 UNK         0.3000 
    145 H145       -1.7144  -22.9730  -43.6701 H         1 UNK         0.0600 
    146 H146       -0.4838  -21.4901  -42.1136 H         1 UNK         0.0600 
    147 H147        0.4957  -22.8835  -42.5459 H         1 UNK         0.0600 
    148 H148        0.8317  -21.3192  -43.2727 H         1 UNK         0.0600 
    149 H149       -1.2450  -20.2187  -44.2022 H         1 UNK         0.3000 
    150 H150       -3.6866  -19.8810  -46.8233 H         1 UNK         0.0600 
    151 H151       -4.9680  -19.6914  -44.7180 H         1 UNK         0.0600 
    152 H152       -4.4580  -18.0975  -45.2561 H         1 UNK         0.0600 
    153 H153       -3.6184  -18.8928  -43.9253 H         1 UNK         0.0600 
    154 H154       -1.9857  -17.9385  -45.6668 H         1 UNK         0.3000 
    155 H155        0.8876  -18.5215  -47.7332 H         1 UNK         0.0600 
    156 H156       -1.1973  -16.2800  -47.5572 H         1 UNK         0.0600 
    157 H157        0.4618  -16.0979  -48.1277 H         1 UNK         0.0600 
    158 H158       -0.6711  -17.0859  -49.0261 H         1 UNK         0.0600 
    159 H159        0.3351  -16.7073  -45.5764 H         1 UNK         0.3000 
    160 H160        1.4654  -18.8453  -42.9395 H         1 UNK         0.0600 
    161 H161        2.7290  -16.3231  -44.1163 H         1 UNK         0.0600 
    162 H162        3.5473  -17.8646  -43.9115 H         1 UNK         0.0600 
    163 H163        2.9884  -16.9730  -42.5027 H         1 UNK         0.0600 
    164 H164        0.4942  -16.1162  -43.1238 H         1 UNK         0.3000 
    165 H165       -2.9342  -16.9463  -42.6179 H         1 UNK         0.0600 
    166 H166       -2.7487  -15.6535  -40.5107 H         1 UNK         0.0600 
    167 H167       -2.0787  -17.2617  -40.2895 H         1 UNK         0.0600 
    168 H168       -0.9998  -15.8859  -40.4882 H         1 UNK         0.0600 
    169 H169       -1.5703  -14.4602  -42.4329 H         1 UNK         0.3000 
    170 H170       -0.9215  -13.8157  -45.7788 H         1 UNK         0.0600 
    171 H171       -3.3881  -13.4146  -45.9164 H         1 UNK         0.0600 
    172 H172       -3.3498  -12.6272  -44.3425 H         1 UNK         0.0600 
    173 H173       -2.4941  -11.9172  -45.7137 H         1 UNK         0.0600 
    174 H174       -1.0027  -11.9458  -43.7155 H         1 UNK         0.3000 
    175 H175        0.8279  -12.2207  -41.6815 H         1 UNK         0.0600 
    176 H176        3.3599  -12.4813  -43.3940 H         1 UNK         0.0600 
    177 H177        3.2771  -11.8641  -41.7491 H         1 UNK         0.0600 
    178 H178        2.9263  -13.5526  -42.0648 H         1 UNK         0.0600 
    179 H179        1.0741  -10.7905  -44.2266 H         1 UNK         0.3000 
    180 H180        0.1434   -8.1189  -43.3167 H         1 UNK         0.0600 
    181 H181        2.9885   -7.4459  -42.4042 H         1 UNK         0.0600 
    182 H182        1.4957   -7.0468  -41.5666 H         1 UNK         0.0600 
    183 H183        1.8542   -6.2960  -43.1113 H         1 UNK         0.0600 
    184 H184        0.9168   -8.3330  -45.3592 H         1 UNK         0.3000 
    185 H185        2.1421   -8.4214  -47.1175 H         1 UNK         0.0600 
    186 H186        4.3072   -7.1914  -46.8250 H         1 UNK         0.0600 
    187 H187        5.1723   -8.7230  -46.7949 H         1 UNK         0.0600 
    188 H188        4.3131   -8.2180  -48.2498 H         1 UNK         0.0600 
    189 H189        3.7888  -10.5845  -47.6878 H         1 UNK         0.3000 
    190 H190       -1.0736  -21.8420  -48.0890 H         1 UNK         0.3000 
    191 H191       -1.7370  -23.4866  -50.2875 H         1 UNK         0.0600 
    192 H192       -3.5499  -21.7297  -48.5565 H         1 UNK         0.0600 
    193 H193       -3.9415  -22.3718  -50.1467 H         1 UNK         0.0600 
    194 H194       -2.6399  -21.2061  -49.9741 H         1 UNK         0.0600 
    195 H195       -2.9109  -23.6235  -46.8667 H         1 UNK         0.3000 
    196 H196       -4.6531  -25.8069  -47.1737 H         1 UNK         0.0600 
    197 H197       -4.4209  -26.0219  -44.6856 H         1 UNK         0.0600 
    198 H198       -4.6670  -24.3550  -45.1809 H         1 UNK         0.0600 
    199 H199       -3.0589  -24.9080  -44.7163 H         1 UNK         0.0600 
    200 H200       -1.1413  -25.7976  -46.4276 H         1 UNK         0.3000 
    201 H201       -0.8293  -28.6136  -46.1415 H         1 UNK         0.0600 
    202 H202        0.8491  -26.9698  -45.3483 H         1 UNK         0.0600 
    203 H203        1.1909  -26.4763  -47.0044 H         1 UNK         0.0600 
    204 H204        1.5910  -28.1032  -46.4681 H         1 UNK         0.0600 
    205 H205       -0.8872  -26.5309  -49.0119 H         1 UNK         0.3000 
    206 H206       -0.1748  -28.6634  -50.8852 H         1 UNK         0.0600 
    207 H207        0.4923  -26.2827  -51.2624 H         1 UNK         0.0600 
    208 H208       -0.5201  -26.8797  -52.5680 H         1 UNK         0.0600 
    209 H209       -1.2036  -25.8134  -51.3492 H         1 UNK         0.0600 
    210 H210       -2.9749  -27.9599  -49.1840 H         1 UNK         0.3000 
    211 H211       -5.1055  -28.4732  -49.2385 H         1 UNK         0.0600 
    212 H212       -4.5219  -30.4076  -51.5401 H         1 UNK         0.0600 
    213 H213       -5.9278  -30.4219  -50.4863 H         1 UNK         0.0600 
    214 H214       -4.3417  -30.7842  -49.8267 H         1 UNK         0.0600 
    215 H215       -4.3102  -26.1435  -50.5195 H         1 UNK         0.3000 
    216 H216       -6.3460  -25.7324  -52.6750 H         1 UNK         0.0600 
    217 H217       -4.8307  -23.8846  -53.4090 H         1 UNK         0.0600 
    218 H218       -3.9606  -25.4102  -53.4221 H         1 UNK         0.0600 
    219 H219       -3.7033  -24.2599  -52.1128 H         1 UNK         0.0600 
    220 H220       -7.1519  -23.4504  -52.6612 H         1 UNK         0.3000 
    221 H221       -7.9230  -22.4805  -49.9941 H         1 UNK         0.0600 
    222 H222       -8.4812  -21.4081  -52.8224 H         1 UNK         0.0600 
    223 H223       -9.5588  -22.4511  -51.8948 H         1 UNK         0.0600 
    224 H224       -9.2196  -20.8213  -51.3370 H         1 UNK         0.0600 
    225 H225       -7.3158  -20.3798  -49.2076 H         1 UNK         0.3000 
    226 H226       -4.6304  -19.6013  -49.5695 H         1 UNK         0.0600 
    227 H227       -5.9610  -19.1891  -47.4990 H         1 UNK         0.0600 
    228 H228       -5.2367  -17.7040  -48.0945 H         1 UNK         0.0600 
    229 H229       -6.9506  -18.0093  -48.3563 H         1 UNK         0.0600 
    230 H230       -7.5381  -18.4869  -51.2143 H         1 UNK         0.3000 
    231 H231       -6.3730  -16.1861  -52.5158 H         1 UNK         0.0600 
    232 H232       -8.4854  -16.2670  -53.8443 H         1 UNK         0.0600 
    233 H233       -8.8192  -16.4127  -52.1267 H         1 UNK         0.0600 
    234 H234       -8.8743  -17.8411  -53.1611 H         1 UNK         0.0600 
    235 H235       -6.0741  -19.6019  -53.0792 H         1 UNK         0.3000 
    236 H236       -5.3571  -19.2798  -55.9500 H         1 UNK         0.0600 
    237 H237       -7.0879  -20.9944  -55.3540 H         1 UNK         0.0600 
    238 H238       -5.6431  -21.7239  -56.0336 H         1 UNK         0.0600 
    239 H239       -5.9252  -21.7977  -54.3009 H         1 UNK         0.0600 
    240 H240       -3.8046  -18.9259  -53.0984 H         1 UNK         0.3000 
    241 H241       -1.5471  -20.6155  -53.2480 H         1 UNK         0.0600 
    242 H242        0.8013  -19.1793  -55.4992 H         1 UNK         0.3800 
    243 H243        0.4054  -20.5060  -54.4446 H         1 UNK         0.3800 
    244 H244       -1.5304  -17.8156  -51.9937 H         1 UNK         0.0800 
    245 H245       -2.3981  -19.1362  -51.2793 H         1 UNK         0.0800 
    246 H246        1.6373  -18.5907  -52.4652 H         1 UNK         0.0800 
    247 H247        0.7273  -17.3478  -51.6360 H         1 UNK         0.0800 
@<TRIPOS>BOND
     1    1    2 1    
     2    1  127 1    
     3    1  128 1    
     4    1  129 1    
     5    2    3 2    
     6    2    4 am   BACKBONE|DICT|INTERRES
     7    4    5 1    
     8    4  130 1    
     9    5    6 1    
    10    5   65 1    
    11    5  131 1    
    12    6    7 1    
    13    6  132 1    
    14    6  133 1    
    15    7    8 1    
    16    8    9 1    
    17    8  134 1    
    18    8  135 1    
    19    9   10 ar   
    20    9   14 ar   
    21   10   11 ar   
    22   10  136 1    
    23   11   12 ar   
    24   11  126 1    
    25   12   13 ar   
    26   12  137 1    
    27   13   14 ar   
    28   13   15 1    
    29   14  138 1    
    30   15   16 1    
    31   15  139 1    
    32   15  140 1    
    33   16   17 1    
    34   17   18 1    
    35   17  141 1    
    36   17  142 1    
    37   18   19 1    
    38   18   67 1    
    39   18  143 1    
    40   19   20 am   BACKBONE|DICT|INTERRES
    41   19  144 1    
    42   20   21 2    
    43   20   22 1    
    44   22   23 1    
    45   22   24 1    
    46   22  145 1    
    47   23  146 1    
    48   23  147 1    
    49   23  148 1    
    50   24   25 am   BACKBONE|DICT|INTERRES
    51   24  149 1    
    52   25   26 2    
    53   25   27 1    
    54   27   28 1    
    55   27   29 1    
    56   27  150 1    
    57   28  151 1    
    58   28  152 1    
    59   28  153 1    
    60   29   30 am   BACKBONE|DICT|INTERRES
    61   29  154 1    
    62   30   31 2    
    63   30   32 1    
    64   32   33 1    
    65   32   34 1    
    66   32  155 1    
    67   33  156 1    
    68   33  157 1    
    69   33  158 1    
    70   34   35 am   BACKBONE|DICT|INTERRES
    71   34  159 1    
    72   35   36 2    
    73   35   37 1    
    74   37   38 1    
    75   37   39 1    
    76   37  160 1    
    77   38  161 1    
    78   38  162 1    
    79   38  163 1    
    80   39   40 am   BACKBONE|DICT|INTERRES
    81   39  164 1    
    82   40   41 2    
    83   40   42 1    
    84   42   43 1    
    85   42   44 1    
    86   42  165 1    
    87   43  166 1    
    88   43  167 1    
    89   43  168 1    
    90   44   45 am   BACKBONE|DICT|INTERRES
    91   44  169 1    
    92   45   46 2    
    93   45   47 1    
    94   47   48 1    
    95   47   49 1    
    96   47  170 1    
    97   48  171 1    
    98   48  172 1    
    99   48  173 1    
   100   49   50 am   BACKBONE|DICT|INTERRES
   101   49  174 1    
   102   50   51 2    
   103   50   52 1    
   104   52   53 1    
   105   52   54 1    
   106   52  175 1    
   107   53  176 1    
   108   53  177 1    
   109   53  178 1    
   110   54   55 am   BACKBONE|DICT|INTERRES
   111   54  179 1    
   112   55   56 2    
   113   55   57 1    
   114   57   58 1    
   115   57   59 1    
   116   57  180 1    
   117   58  181 1    
   118   58  182 1    
   119   58  183 1    
   120   59   60 am   BACKBONE|DICT|INTERRES
   121   59  184 1    
   122   60   61 2    
   123   60   62 1    
   124   62   63 1    
   125   62   64 1    
   126   62  185 1    
   127   63  186 1    
   128   63  187 1    
   129   63  188 1    
   130   64   65 am   BACKBONE|DICT|INTERRES
   131   64  189 1    
   132   65   66 2    
   133   67   68 2    
   134   67   69 am   BACKBONE|DICT|INTERRES
   135   69   70 1    
   136   69  190 1    
   137   70   71 1    
   138   70   72 1    
   139   70  191 1    
   140   71  192 1    
   141   71  193 1    
   142   71  194 1    
   143   72   73 2    
   144   72   74 am   BACKBONE|DICT|INTERRES
   145   74   75 1    
   146   74  195 1    
   147   75   76 1    
   148   75   77 1    
   149   75  196 1    
   150   76  197 1    
   151   76  198 1    
   152   76  199 1    
   153   77   78 2    
   154   77   79 am   BACKBONE|DICT|INTERRES
   155   79   80 1    
   156   79  200 1    
   157   80   81 1    
   158   80   82 1    
   159   80  201 1    
   160   81  202 1    
   161   81  203 1    
   162   81  204 1    
   163   82   83 2    
   164   82   84 am   BACKBONE|DICT|INTERRES
   165   84   85 1    
   166   84  205 1    
   167   85   86 1    
   168   85   87 1    
   169   85  206 1    
   170   86  207 1    
   171   86  208 1    
   172   86  209 1    
   173   87   88 2    
   174   87   89 am   BACKBONE|DICT|INTERRES
   175   89   90 1    
   176   89  210 1    
   177   90   91 1    
   178   90   92 1    
   179   90  211 1    
   180   91  212 1    
   181   91  213 1    
   182   91  214 1    
   183   92   93 2    
   184   92   94 am   BACKBONE|DICT|INTERRES
   185   94   95 1    
   186   94  215 1    
   187   95   96 1    
   188   95   97 1    
   189   95  216 1    
   190   96  217 1    
   191   96  218 1    
   192   96  219 1    
   193   97   98 2    
   194   97   99 am   BACKBONE|DICT|INTERRES
   195   99  100 1    
   196   99  220 1    
   197  100  101 1    
   198  100  102 1    
   199  100  221 1    
   200  101  222 1    
   201  101  223 1    
   202  101  224 1    
   203  102  103 2    
   204  102  104 am   BACKBONE|DICT|INTERRES
   205  104  105 1    
   206  104  225 1    
   207  105  106 1    
   208  105  107 1    
   209  105  226 1    
   210  106  227 1    
   211  106  228 1    
   212  106  229 1    
   213  107  108 2    
   214  107  109 am   BACKBONE|DICT|INTERRES
   215  109  110 1    
   216  109  230 1    
   217  110  111 1    
   218  110  112 1    
   219  110  231 1    
   220  111  232 1    
   221  111  233 1    
   222  111  234 1    
   223  112  113 2    
   224  112  114 am   BACKBONE|DICT|INTERRES
   225  114  115 1    
   226  114  235 1    
   227  115  116 1    
   228  115  117 1    
   229  115  236 1    
   230  116  237 1    
   231  116  238 1    
   232  116  239 1    
   233  117  118 2    
   234  117  119 am   BACKBONE|DICT|INTERRES
   235  119  120 1    
   236  119  240 1    
   237  120  121 1    
   238  120  124 1    
   239  120  241 1    
   240  121  122 am   BACKBONE|DICT|INTERRES
   241  121  123 2    
   242  122  242 1    
   243  122  243 1    
   244  124  125 1    
   245  124  244 1    
   246  124  245 1    
   247  125  126 1    
   248  126  246 1    
   249  126  247 1    
@<TRIPOS>SUBSTRUCTURE
     1 UNK         1 GROUP             0       ****    0 ROOT    
