@<TRIPOS>MOLECULE
3R540
247   249    1
SMALL
USER_CHARGES


@<TRIPOS>ATOM
      1 CA         -2.3648  -13.6390  -47.4621 C.3       0 UNK        -0.1800 
      2 C          -1.4212  -12.6403  -48.1182 C.2       0 UNK         0.5000 
      3 O          -1.7263  -11.4483  -48.1675 O.2       0 UNK        -0.5000 
      4 N          -0.2799  -13.1262  -48.6193 N.am      1 UNK        -0.5000 
      5 CA          0.8270  -12.3359  -49.1674 C.3       1 UNK         0.1400 
      6 C6          1.6499  -13.1417  -50.2125 C.3       23 UNK        -0.0398 
      7 S7          2.1889  -14.7980  -49.6532 S.3       23 UNK        -0.2404 
      8 C8          1.2950  -15.8985  -50.8034 C.3       23 UNK        -0.0205 
      9 C9         -0.1943  -15.9746  -50.4955 C.ar      23 UNK        -0.0193 
     10 C10        -1.0987  -15.1277  -51.1443 C.ar      23 UNK        -0.1150 
     11 C11        -2.4625  -15.1696  -50.8405 C.ar      23 UNK        -0.0193 
     12 C12        -2.9222  -16.1000  -49.9023 C.ar      23 UNK        -0.1150 
     13 C13        -2.0362  -16.9768  -49.2726 C.ar      23 UNK        -0.0193 
     14 C14        -0.6709  -16.8988  -49.5624 C.ar      23 UNK        -0.1150 
     15 C15        -2.5556  -17.9846  -48.2599 C.3       23 UNK        -0.0205 
     16 S16        -2.1634  -19.6961  -48.7387 S.3       23 UNK        -0.2404 
     17 C17        -2.9747  -20.6127  -47.3892 C.3       23 UNK        -0.0398 
     18 CA         -2.1672  -21.8624  -46.9697 C.3       11 UNK         0.1400 
     19 N          -0.9292  -21.5355  -46.2518 N.am      11 UNK        -0.5000 
     20 C           0.0134  -22.4351  -45.9343 C.2       10 UNK         0.5000 
     21 O          -0.0450  -23.6223  -46.2483 O.2       10 UNK        -0.5000 
     22 CA          1.1872  -21.9543  -45.0657 C.3       10 UNK         0.1400 
     23 CB          2.2193  -21.1831  -45.9019 C.3       10 UNK        -0.1800 
     24 N           0.7432  -21.1504  -43.9268 N.am      10 UNK        -0.5000 
     25 C          -0.0293  -21.6182  -42.9345 C.2       9 UNK         0.5000 
     26 O          -0.4053  -22.7876  -42.8566 O.2       9 UNK        -0.5000 
     27 CA         -0.4956  -20.6106  -41.8689 C.3       9 UNK         0.1400 
     28 CB          0.5959  -20.4036  -40.8095 C.3       9 UNK        -0.1800 
     29 N          -0.8919  -19.3207  -42.4352 N.am      9 UNK        -0.5000 
     30 C          -1.9071  -19.1472  -43.2947 C.2       8 UNK         0.5000 
     31 O          -2.6471  -20.0545  -43.6750 O.2       8 UNK        -0.5000 
     32 CA         -2.0880  -17.7345  -43.8791 C.3       8 UNK         0.1400 
     33 CB         -2.7764  -16.8011  -42.8728 C.3       8 UNK        -0.1800 
     34 N          -0.8251  -17.1395  -44.3146 N.am      8 UNK        -0.5000 
     35 C          -0.0091  -17.6673  -45.2382 C.2       7 UNK         0.5000 
     36 O          -0.2429  -18.7091  -45.8496 O.2       7 UNK        -0.5000 
     37 CA          1.3171  -16.9291  -45.4708 C.3       7 UNK         0.1400 
     38 CB          1.0826  -15.6503  -46.2946 C.3       7 UNK        -0.1800 
     39 N           1.9753  -16.6265  -44.1959 N.am      7 UNK        -0.5000 
     40 C           2.4947  -17.5660  -43.3875 C.2       6 UNK         0.5000 
     41 O           2.5590  -18.7574  -43.6869 O.2       6 UNK        -0.5000 
     42 CA          2.9704  -17.1286  -41.9898 C.3       6 UNK         0.1400 
     43 CB          4.4732  -16.8190  -41.9714 C.3       6 UNK        -0.1800 
     44 N           2.2196  -15.9855  -41.4746 N.am      6 UNK        -0.5000 
     45 C           0.9664  -16.0741  -41.0061 C.2       5 UNK         0.5000 
     46 O           0.3387  -17.1301  -40.9370 O.2       5 UNK        -0.5000 
     47 CA          0.2776  -14.7597  -40.5957 C.3       5 UNK         0.1400 
     48 CB          0.5850  -14.4226  -39.1295 C.3       5 UNK        -0.1800 
     49 N           0.6533  -13.6270  -41.4425 N.am      5 UNK        -0.5000 
     50 C           0.4377  -13.5578  -42.7627 C.2       4 UNK         0.5000 
     51 O          -0.1349  -14.4419  -43.4004 O.2       4 UNK        -0.5000 
     52 CA          0.9675  -12.3162  -43.5037 C.3       4 UNK         0.1400 
     53 CB          1.2563  -11.1127  -42.5796 C.3       4 UNK        -0.1800 
     54 N           2.1439  -12.6072  -44.3282 N.am      4 UNK        -0.5000 
     55 C           3.3219  -13.1242  -43.9414 C.2       3 UNK         0.5000 
     56 O           3.5268  -13.5731  -42.8129 O.2       3 UNK        -0.5000 
     57 CA          4.4802  -13.1229  -44.9687 C.3       3 UNK         0.1400 
     58 CB          4.8974  -14.5449  -45.3755 C.3       3 UNK        -0.1800 
     59 N           4.1906  -12.3453  -46.1770 N.am      3 UNK        -0.5000 
     60 C           4.2072  -11.0061  -46.2362 C.2       2 UNK         0.5000 
     61 O           4.5564  -10.2904  -45.2966 O.2       2 UNK        -0.5000 
     62 CA          3.7380  -10.3416  -47.5485 C.3       2 UNK         0.1400 
     63 CB          4.9509   -9.8985  -48.3816 C.3       2 UNK        -0.1800 
     64 N           2.8489  -11.1413  -48.4032 N.am      2 UNK        -0.5000 
     65 C           1.6823  -11.6974  -48.0428 C.2       1 UNK         0.5000 
     66 O           1.2782  -11.6985  -46.8780 O.2       1 UNK        -0.5000 
     67 C          -3.0569  -22.8422  -46.1778 C.2       11 UNK         0.5000 
     68 O          -3.5807  -23.7845  -46.7706 O.2       11 UNK        -0.5000 
     69 N          -3.1884  -22.6360  -44.8595 N.am      12 UNK        -0.5000 
     70 CA         -3.9405  -23.5162  -43.9620 C.3       12 UNK         0.1400 
     71 CB         -4.0357  -22.8784  -42.5679 C.3       12 UNK        -0.1800 
     72 C          -3.3496  -24.9365  -43.8767 C.2       12 UNK         0.5000 
     73 O          -4.1072  -25.9073  -43.8773 O.2       12 UNK        -0.5000 
     74 N          -2.0138  -25.0323  -43.8311 N.am      13 UNK        -0.5000 
     75 CA         -1.2736  -26.2931  -43.8450 C.3       13 UNK         0.1400 
     76 CB          0.1857  -26.0331  -43.4406 C.3       13 UNK        -0.1800 
     77 C          -1.3431  -27.0060  -45.2082 C.2       13 UNK         0.5000 
     78 O          -1.5201  -28.2244  -45.2460 O.2       13 UNK        -0.5000 
     79 N          -1.1997  -26.2393  -46.2980 N.am      14 UNK        -0.5000 
     80 CA         -1.2274  -26.7344  -47.6744 C.3       14 UNK         0.1400 
     81 CB         -0.6655  -25.6543  -48.6082 C.3       14 UNK        -0.1800 
     82 C          -2.6276  -27.1795  -48.1347 C.2       14 UNK         0.5000 
     83 O          -2.7268  -28.1178  -48.9267 O.2       14 UNK        -0.5000 
     84 N          -3.6751  -26.5106  -47.6299 N.am      15 UNK        -0.5000 
     85 CA         -5.0984  -26.7668  -47.8605 C.3       15 UNK         0.1400 
     86 CB         -5.5268  -28.0813  -47.1726 C.3       15 UNK        -0.1800 
     87 C          -5.4568  -26.6999  -49.3581 C.2       15 UNK         0.5000 
     88 O          -5.5741  -25.6029  -49.9026 O.2       15 UNK        -0.5000 
     89 N          -5.5898  -27.8615  -50.0115 N.am      16 UNK        -0.5000 
     90 CA         -5.8268  -27.9890  -51.4513 C.3       16 UNK         0.1400 
     91 CB         -6.1551  -29.4550  -51.7725 C.3       16 UNK        -0.1800 
     92 C          -4.6478  -27.4978  -52.3177 C.2       16 UNK         0.5000 
     93 O          -4.8644  -27.1225  -53.4701 O.2       16 UNK        -0.5000 
     94 N          -3.4324  -27.4969  -51.7527 N.am      17 UNK        -0.5000 
     95 CA         -2.1999  -27.0472  -52.4019 C.3       17 UNK         0.1400 
     96 CB         -1.0571  -27.9945  -51.9943 C.3       17 UNK        -0.1800 
     97 C          -1.8605  -25.5704  -52.1003 C.2       17 UNK         0.5000 
     98 O          -0.7417  -25.1433  -52.3910 O.2       17 UNK        -0.5000 
     99 N          -2.8028  -24.8138  -51.5153 N.am      18 UNK        -0.5000 
    100 CA        -2.6915  -23.3730  -51.2586 C.3       18 UNK         0.1400 
    101 CB        -3.8822  -22.9328  -50.3928 C.3       18 UNK        -0.1800 
    102 C         -2.6114  -22.5282  -52.5504 C.2       18 UNK         0.5000 
    103 O         -2.8247  -23.0506  -53.6471 O.2       18 UNK        -0.5000 
    104 N         -2.2986  -21.2342  -52.3850 N.am      19 UNK        -0.5000 
    105 CA        -2.0972  -20.2336  -53.4378 C.3       19 UNK         0.1400 
    106 CB        -1.7982  -18.8769  -52.7738 C.3       19 UNK        -0.1800 
    107 C         -3.2777  -20.1232  -54.4269 C.2       19 UNK         0.5000 
    108 O         -4.2685  -19.4493  -54.1357 O.2       19 UNK        -0.5000 
    109 N         -3.1451  -20.7806  -55.5868 N.am      20 UNK        -0.5000 
    110 CA        -4.1684  -20.8644  -56.6338 C.3       20 UNK         0.1400 
    111 CB        -3.7427  -21.9194  -57.6661 C.3       20 UNK        -0.1800 
    112 C         -4.4612  -19.5197  -57.3252 C.2       20 UNK         0.5000 
    113 O         -5.5752  -19.3160  -57.8085 O.2       20 UNK        -0.5000 
    114 N         -3.4673  -18.6203  -57.3391 N.am      21 UNK        -0.5000 
    115 CA        -3.6020  -17.2406  -57.8107 C.3       21 UNK         0.1400 
    116 CB        -2.2007  -16.6473  -58.0232 C.3       21 UNK        -0.1800 
    117 C         -4.4197  -16.3602  -56.8439 C.2       21 UNK         0.5000 
    118 O         -5.0177  -15.3760  -57.2805 O.2       21 UNK        -0.5000 
    119 N         -4.4278  -16.7296  -55.5572 N.am      22 UNK        -0.5000 
    120 CA        -5.2326  -16.1044  -54.5031 C.3       22 UNK         0.1400 
    121 C         -6.6561  -16.7206  -54.4404 C.2       22 UNK         0.5000 
    122 N         -6.7770  -18.0428  -54.4083 N.am      22 UNK        -0.7600 
    123 O         -7.6519  -16.0021  -54.4379 O.2       22 UNK        -0.5000 
    124 C124       -4.5097  -16.1981  -53.1367 C.3       23 UNK        -0.0398 
    125 S125       -5.0257  -14.8918  -51.9742 S.3       23 UNK        -0.2404 
    126 C126       -3.4138  -14.1765  -51.5054 C.3       23 UNK        -0.0205 
    127 H127       -2.6002  -13.3215  -46.4463 H         1 UNK         0.0600 
    128 H128       -3.2951  -13.7049  -48.0261 H         1 UNK         0.0600 
    129 H129       -1.9252  -14.6353  -47.4086 H         1 UNK         0.0600 
    130 H130       -0.0983  -14.1179  -48.5627 H         1 UNK         0.3000 
    131 H131        0.3911  -11.4906  -49.7038 H         1 UNK         0.0600 
    132 H132        2.5287  -12.5925  -50.5509 H         1 UNK         0.0800 
    133 H133        1.0498  -13.2520  -51.1142 H         1 UNK         0.0800 
    134 H134        1.4572  -15.5694  -51.8309 H         1 UNK         0.0800 
    135 H135        1.7295  -16.8971  -50.7371 H         1 UNK         0.0800 
    136 H136       -0.7389  -14.4165  -51.8732 H         1 UNK         0.1150 
    137 H137       -3.9737  -16.1380  -49.6565 H         1 UNK         0.1150 
    138 H138        0.0190  -17.5647  -49.0624 H         1 UNK         0.1150 
    139 H139       -2.1274  -17.7584  -47.2858 H         1 UNK         0.0800 
    140 H140       -3.6370  -17.8934  -48.1482 H         1 UNK         0.0800 
    141 H141       -3.1298  -19.9581  -46.5297 H         1 UNK         0.0800 
    142 H142       -3.9684  -20.8891  -47.7472 H         1 UNK         0.0800 
    143 H143       -1.8750  -22.3884  -47.8813 H         1 UNK         0.0600 
    144 H144       -0.7890  -20.5625  -45.9914 H         1 UNK         0.3000 
    145 H145        1.6827  -22.8417  -44.6662 H         1 UNK         0.0600 
    146 H146        3.0957  -20.9279  -45.3064 H         1 UNK         0.0600 
    147 H147        2.5639  -21.7838  -46.7445 H         1 UNK         0.0600 
    148 H148        1.8092  -20.2585  -46.3064 H         1 UNK         0.0600 
    149 H149        1.0427  -20.1820  -43.9113 H         1 UNK         0.3000 
    150 H150       -1.3708  -21.0343  -41.3727 H         1 UNK         0.0600 
    151 H151        0.8803  -21.3521  -40.3521 H         1 UNK         0.0600 
    152 H152        0.2516  -19.7480  -40.0096 H         1 UNK         0.0600 
    153 H153        1.4954  -19.9652  -41.2412 H         1 UNK         0.0600 
    154 H154       -0.3635  -18.5093  -42.1283 H         1 UNK         0.3000 
    155 H155       -2.7307  -17.8200  -44.7575 H         1 UNK         0.0600 
    156 H156       -3.7403  -17.2057  -42.5620 H         1 UNK         0.0600 
    157 H157       -2.9598  -15.8188  -43.3089 H         1 UNK         0.0600 
    158 H158       -2.1742  -16.6600  -41.9753 H         1 UNK         0.0600 
    159 H159       -0.5610  -16.2582  -43.8822 H         1 UNK         0.3000 
    160 H160        1.9717  -17.5857  -46.0480 H         1 UNK         0.0600 
    161 H161        0.4349  -14.9361  -45.7901 H         1 UNK         0.0600 
    162 H162        0.6039  -15.8937  -47.2421 H         1 UNK         0.0600 
    163 H163        2.0123  -15.1404  -46.5336 H         1 UNK         0.0600 
    164 H164        1.8904  -15.6820  -43.8493 H         1 UNK         0.3000 
    165 H165        2.8098  -17.9736  -41.3175 H         1 UNK         0.0600 
    166 H166        4.7080  -15.9170  -42.5311 H         1 UNK         0.0600 
    167 H167        4.8290  -16.6757  -40.9511 H         1 UNK         0.0600 
    168 H168        5.0493  -17.6378  -42.4045 H         1 UNK         0.0600 
    169 H169        2.6537  -15.0732  -41.5651 H         1 UNK         0.3000 
    170 H170       -0.7998  -14.9065  -40.6948 H         1 UNK         0.0600 
    171 H171        0.2960  -15.2436  -38.4718 H         1 UNK         0.0600 
    172 H172        1.6482  -14.2353  -38.9735 H         1 UNK         0.0600 
    173 H173        0.0363  -13.5386  -38.8042 H         1 UNK         0.0600 
    174 H174        1.1549  -12.8724  -40.9975 H         1 UNK         0.3000 
    175 H175        0.1771  -12.0177  -44.1940 H         1 UNK         0.0600 
    176 H176        1.5097  -10.2295  -43.1663 H         1 UNK         0.0600 
    177 H177        0.3824  -10.8573  -41.9788 H         1 UNK         0.0600 
    178 H178        2.0878  -11.3013  -41.8996 H         1 UNK         0.0600 
    179 H179        2.0480  -12.3078  -45.2959 H         1 UNK         0.3000 
    180 H180        5.3377  -12.6653  -44.4708 H         1 UNK         0.0600 
    181 H181        5.6930  -14.5230  -46.1204 H         1 UNK         0.0600 
    182 H182        5.2836  -15.0973  -44.5210 H         1 UNK         0.0600 
    183 H183        4.0715  -15.1186  -45.7892 H         1 UNK         0.0600 
    184 H184        3.8879  -12.8586  -46.9917 H         1 UNK         0.3000 
    185 H185        3.1805   -9.4475  -47.2625 H         1 UNK         0.0600 
    186 H186        4.6438   -9.3134  -49.2487 H         1 UNK         0.0600 
    187 H187        5.6242   -9.2728  -47.7939 H         1 UNK         0.0600 
    188 H188        5.5260  -10.7539  -48.7383 H         1 UNK         0.0600 
    189 H189        3.1211  -11.1895  -49.3738 H         1 UNK         0.3000 
    190 H190       -2.7691  -21.8094  -44.4415 H         1 UNK         0.3000 
    191 H191       -4.9533  -23.6051  -44.3606 H         1 UNK         0.0600 
    192 H192       -4.6187  -23.5043  -41.8912 H         1 UNK         0.0600 
    193 H193       -4.5237  -21.9047  -42.6122 H         1 UNK         0.0600 
    194 H194       -3.0517  -22.7395  -42.1204 H         1 UNK         0.0600 
    195 H195       -1.4630  -24.1808  -43.7715 H         1 UNK         0.3000 
    196 H196       -1.7172  -26.9558  -43.0990 H         1 UNK         0.0600 
    197 H197        0.7606  -26.9600  -43.4311 H         1 UNK         0.0600 
    198 H198        0.2458  -25.6021  -42.4410 H         1 UNK         0.0600 
    199 H199        0.6788  -25.3462  -44.1293 H         1 UNK         0.0600 
    200 H200       -0.9928  -25.2505  -46.1793 H         1 UNK         0.3000 
    201 H201       -0.5693  -27.6039  -47.7317 H         1 UNK         0.0600 
    202 H202        0.3305  -25.3407  -48.2960 H         1 UNK         0.0600 
    203 H203       -1.3047  -24.7710  -48.6344 H         1 UNK         0.0600 
    204 H204       -0.5719  -26.0295  -49.6246 H         1 UNK         0.0600 
    205 H205       -3.4814  -25.6804  -47.0763 H         1 UNK         0.3000 
    206 H206       -5.6390  -25.9510  -47.3782 H         1 UNK         0.0600 
    207 H207       -5.3642  -28.0216  -46.0961 H         1 UNK         0.0600 
    208 H208       -6.5886  -28.2775  -47.3270 H         1 UNK         0.0600 
    209 H209       -4.9711  -28.9451  -47.5384 H         1 UNK         0.0600 
    210 H210       -5.4373  -28.7182  -49.4992 H         1 UNK         0.3000 
    211 H211       -6.6964  -27.3793  -51.7053 H         1 UNK         0.0600 
    212 H212       -5.3259  -30.1170  -51.5198 H         1 UNK         0.0600 
    213 H213       -6.3669  -29.5846  -52.8347 H         1 UNK         0.0600 
    214 H214       -7.0347  -29.7922  -51.2238 H         1 UNK         0.0600 
    215 H215       -3.3407  -27.8067  -50.7891 H         1 UNK         0.3000 
    216 H216       -2.3110  -27.1213  -53.4855 H         1 UNK         0.0600 
    217 H217       -0.1245  -27.7294  -52.4937 H         1 UNK         0.0600 
    218 H218       -1.2862  -29.0241  -52.2697 H         1 UNK         0.0600 
    219 H219       -0.8731  -27.9724  -50.9208 H         1 UNK         0.0600 
    220 H220       -3.6991  -25.2344  -51.3102 H         1 UNK         0.3000 
    221 H221       -1.7721  -23.2041  -50.6943 H         1 UNK         0.0600 
    222 H222       -4.8312  -23.1026  -50.9027 H         1 UNK         0.0600 
    223 H223       -3.9055  -23.4803  -49.4509 H         1 UNK         0.0600 
    224 H224       -3.8307  -21.8725  -50.1463 H         1 UNK         0.0600 
    225 H225       -2.1750  -20.8929  -51.4425 H         1 UNK         0.3000 
    226 H226       -1.2097  -20.5277  -54.0012 H         1 UNK         0.0600 
    227 H227       -1.6577  -18.0938  -53.5198 H         1 UNK         0.0600 
    228 H228       -2.6083  -18.5612  -52.1148 H         1 UNK         0.0600 
    229 H229       -0.8872  -18.9200  -52.1764 H         1 UNK         0.0600 
    230 H230       -2.3216  -21.3489  -55.7246 H         1 UNK         0.3000 
    231 H231       -5.0966  -21.1995  -56.1661 H         1 UNK         0.0600 
    232 H232       -4.4971  -22.0301  -58.4463 H         1 UNK         0.0600 
    233 H233       -3.6136  -22.8966  -57.2001 H         1 UNK         0.0600 
    234 H234       -2.8039  -21.6513  -58.1523 H         1 UNK         0.0600 
    235 H235       -2.5778  -18.8834  -56.9411 H         1 UNK         0.3000 
    236 H236       -4.1202  -17.2503  -58.7720 H         1 UNK         0.0600 
    237 H237       -1.6291  -16.6202  -57.0945 H         1 UNK         0.0600 
    238 H238       -1.6329  -17.2269  -58.7513 H         1 UNK         0.0600 
    239 H239       -2.2628  -15.6256  -58.4002 H         1 UNK         0.0600 
    240 H240       -3.9741  -17.5957  -55.3030 H         1 UNK         0.3000 
    241 H241       -5.3424  -15.0463  -54.7503 H         1 UNK         0.0600 
    242 H242       -7.6935  -18.4596  -54.3775 H         1 UNK         0.3800 
    243 H243       -5.9501  -18.6331  -54.3652 H         1 UNK         0.3800 
    244 H244       -3.4333  -16.1122  -53.2903 H         1 UNK         0.0800 
    245 H245       -4.6584  -17.1706  -52.6643 H         1 UNK         0.0800 
    246 H246       -2.9557  -13.7443  -52.3964 H         1 UNK         0.0800 
    247 H247       -3.5856  -13.3498  -50.8151 H         1 UNK         0.0800 
@<TRIPOS>BOND
     1    1    2 1    
     2    1  127 1    
     3    1  128 1    
     4    1  129 1    
     5    2    3 2    
     6    2    4 am   BACKBONE|DICT|INTERRES
     7    4    5 1    
     8    4  130 1    
     9    5    6 1    
    10    5   65 1    
    11    5  131 1    
    12    6    7 1    
    13    6  132 1    
    14    6  133 1    
    15    7    8 1    
    16    8    9 1    
    17    8  134 1    
    18    8  135 1    
    19    9   10 ar   
    20    9   14 ar   
    21   10   11 ar   
    22   10  136 1    
    23   11   12 ar   
    24   11  126 1    
    25   12   13 ar   
    26   12  137 1    
    27   13   14 ar   
    28   13   15 1    
    29   14  138 1    
    30   15   16 1    
    31   15  139 1    
    32   15  140 1    
    33   16   17 1    
    34   17   18 1    
    35   17  141 1    
    36   17  142 1    
    37   18   19 1    
    38   18   67 1    
    39   18  143 1    
    40   19   20 am   BACKBONE|DICT|INTERRES
    41   19  144 1    
    42   20   21 2    
    43   20   22 1    
    44   22   23 1    
    45   22   24 1    
    46   22  145 1    
    47   23  146 1    
    48   23  147 1    
    49   23  148 1    
    50   24   25 am   BACKBONE|DICT|INTERRES
    51   24  149 1    
    52   25   26 2    
    53   25   27 1    
    54   27   28 1    
    55   27   29 1    
    56   27  150 1    
    57   28  151 1    
    58   28  152 1    
    59   28  153 1    
    60   29   30 am   BACKBONE|DICT|INTERRES
    61   29  154 1    
    62   30   31 2    
    63   30   32 1    
    64   32   33 1    
    65   32   34 1    
    66   32  155 1    
    67   33  156 1    
    68   33  157 1    
    69   33  158 1    
    70   34   35 am   BACKBONE|DICT|INTERRES
    71   34  159 1    
    72   35   36 2    
    73   35   37 1    
    74   37   38 1    
    75   37   39 1    
    76   37  160 1    
    77   38  161 1    
    78   38  162 1    
    79   38  163 1    
    80   39   40 am   BACKBONE|DICT|INTERRES
    81   39  164 1    
    82   40   41 2    
    83   40   42 1    
    84   42   43 1    
    85   42   44 1    
    86   42  165 1    
    87   43  166 1    
    88   43  167 1    
    89   43  168 1    
    90   44   45 am   BACKBONE|DICT|INTERRES
    91   44  169 1    
    92   45   46 2    
    93   45   47 1    
    94   47   48 1    
    95   47   49 1    
    96   47  170 1    
    97   48  171 1    
    98   48  172 1    
    99   48  173 1    
   100   49   50 am   BACKBONE|DICT|INTERRES
   101   49  174 1    
   102   50   51 2    
   103   50   52 1    
   104   52   53 1    
   105   52   54 1    
   106   52  175 1    
   107   53  176 1    
   108   53  177 1    
   109   53  178 1    
   110   54   55 am   BACKBONE|DICT|INTERRES
   111   54  179 1    
   112   55   56 2    
   113   55   57 1    
   114   57   58 1    
   115   57   59 1    
   116   57  180 1    
   117   58  181 1    
   118   58  182 1    
   119   58  183 1    
   120   59   60 am   BACKBONE|DICT|INTERRES
   121   59  184 1    
   122   60   61 2    
   123   60   62 1    
   124   62   63 1    
   125   62   64 1    
   126   62  185 1    
   127   63  186 1    
   128   63  187 1    
   129   63  188 1    
   130   64   65 am   BACKBONE|DICT|INTERRES
   131   64  189 1    
   132   65   66 2    
   133   67   68 2    
   134   67   69 am   BACKBONE|DICT|INTERRES
   135   69   70 1    
   136   69  190 1    
   137   70   71 1    
   138   70   72 1    
   139   70  191 1    
   140   71  192 1    
   141   71  193 1    
   142   71  194 1    
   143   72   73 2    
   144   72   74 am   BACKBONE|DICT|INTERRES
   145   74   75 1    
   146   74  195 1    
   147   75   76 1    
   148   75   77 1    
   149   75  196 1    
   150   76  197 1    
   151   76  198 1    
   152   76  199 1    
   153   77   78 2    
   154   77   79 am   BACKBONE|DICT|INTERRES
   155   79   80 1    
   156   79  200 1    
   157   80   81 1    
   158   80   82 1    
   159   80  201 1    
   160   81  202 1    
   161   81  203 1    
   162   81  204 1    
   163   82   83 2    
   164   82   84 am   BACKBONE|DICT|INTERRES
   165   84   85 1    
   166   84  205 1    
   167   85   86 1    
   168   85   87 1    
   169   85  206 1    
   170   86  207 1    
   171   86  208 1    
   172   86  209 1    
   173   87   88 2    
   174   87   89 am   BACKBONE|DICT|INTERRES
   175   89   90 1    
   176   89  210 1    
   177   90   91 1    
   178   90   92 1    
   179   90  211 1    
   180   91  212 1    
   181   91  213 1    
   182   91  214 1    
   183   92   93 2    
   184   92   94 am   BACKBONE|DICT|INTERRES
   185   94   95 1    
   186   94  215 1    
   187   95   96 1    
   188   95   97 1    
   189   95  216 1    
   190   96  217 1    
   191   96  218 1    
   192   96  219 1    
   193   97   98 2    
   194   97   99 am   BACKBONE|DICT|INTERRES
   195   99  100 1    
   196   99  220 1    
   197  100  101 1    
   198  100  102 1    
   199  100  221 1    
   200  101  222 1    
   201  101  223 1    
   202  101  224 1    
   203  102  103 2    
   204  102  104 am   BACKBONE|DICT|INTERRES
   205  104  105 1    
   206  104  225 1    
   207  105  106 1    
   208  105  107 1    
   209  105  226 1    
   210  106  227 1    
   211  106  228 1    
   212  106  229 1    
   213  107  108 2    
   214  107  109 am   BACKBONE|DICT|INTERRES
   215  109  110 1    
   216  109  230 1    
   217  110  111 1    
   218  110  112 1    
   219  110  231 1    
   220  111  232 1    
   221  111  233 1    
   222  111  234 1    
   223  112  113 2    
   224  112  114 am   BACKBONE|DICT|INTERRES
   225  114  115 1    
   226  114  235 1    
   227  115  116 1    
   228  115  117 1    
   229  115  236 1    
   230  116  237 1    
   231  116  238 1    
   232  116  239 1    
   233  117  118 2    
   234  117  119 am   BACKBONE|DICT|INTERRES
   235  119  120 1    
   236  119  240 1    
   237  120  121 1    
   238  120  124 1    
   239  120  241 1    
   240  121  122 am   BACKBONE|DICT|INTERRES
   241  121  123 2    
   242  122  242 1    
   243  122  243 1    
   244  124  125 1    
   245  124  244 1    
   246  124  245 1    
   247  125  126 1    
   248  126  246 1    
   249  126  247 1    
@<TRIPOS>SUBSTRUCTURE
     1 UNK         1 GROUP             0       ****    0 ROOT    
