@<TRIPOS>MOLECULE
3R540
247   249    1
SMALL
USER_CHARGES


@<TRIPOS>ATOM
      1 CA          4.0455  -10.3223  -49.6438 C.3       0 UNK        -0.1800 
      2 C           3.5809  -11.6117  -50.3188 C.2       0 UNK         0.5000 
      3 O           3.4796  -11.6494  -51.5436 O.2       0 UNK        -0.5000 
      4 N           3.3031  -12.6922  -49.5781 N.am      1 UNK        -0.5000 
      5 CA          3.2712  -12.7824  -48.1149 C.3       1 UNK         0.1400 
      6 C6          3.4057  -14.2501  -47.6242 C.3       23 UNK        -0.0398 
      7 S7          2.2196  -15.4224  -48.3767 S.3       23 UNK        -0.2404 
      8 C8          3.2880  -16.2907  -49.5655 C.3       23 UNK        -0.0205 
      9 C9          2.4653  -17.1277  -50.5310 C.ar      23 UNK        -0.0193 
     10 C10         2.0999  -16.6047  -51.7770 C.ar      23 UNK        -0.1150 
     11 C11         1.3387  -17.3626  -52.6723 C.ar      23 UNK        -0.0193 
     12 C12         0.9381  -18.6486  -52.3001 C.ar      23 UNK        -0.1150 
     13 C13         1.3079  -19.1890  -51.0687 C.ar      23 UNK        -0.0193 
     14 C14         2.0717  -18.4243  -50.1825 C.ar      23 UNK        -0.1150 
     15 C15         0.8708  -20.6009  -50.7210 C.3       23 UNK        -0.0205 
     16 S16        -0.8423  -20.6162  -50.1172 S.3       23 UNK        -0.2404 
     17 C17        -0.5828  -20.4412  -48.3251 C.3       23 UNK        -0.0398 
     18 CA         -0.7256  -21.7958  -47.5873 C.3       11 UNK         0.1400 
     19 N           0.0965  -21.8442  -46.3741 N.am      11 UNK        -0.5000 
     20 C           0.2815  -22.9313  -45.6116 C.2       10 UNK         0.5000 
     21 O          -0.1913  -24.0360  -45.8721 O.2       10 UNK        -0.5000 
     22 CA          1.0841  -22.7441  -44.3115 C.3       10 UNK         0.1400 
     23 CB          2.5938  -22.7900  -44.5887 C.3       10 UNK        -0.1800 
     24 N           0.7430  -21.5018  -43.6179 N.am      10 UNK        -0.5000 
     25 C          -0.4658  -21.2245  -43.1076 C.2       9 UNK         0.5000 
     26 O          -1.4029  -22.0224  -43.1036 O.2       9 UNK        -0.5000 
     27 CA         -0.6858  -19.7958  -42.5756 C.3       9 UNK         0.1400 
     28 CB         -0.1086  -19.6364  -41.1619 C.3       9 UNK        -0.1800 
     29 N          -0.1170  -18.7790  -43.4620 N.am      9 UNK        -0.5000 
     30 C          -0.5102  -18.5737  -44.7278 C.2       8 UNK         0.5000 
     31 O          -1.4380  -19.1804  -45.2626 O.2       8 UNK        -0.5000 
     32 CA          0.3043  -17.5649  -45.5529 C.3       8 UNK         0.1400 
     33 CB         -0.1824  -16.1333  -45.3003 C.3       8 UNK        -0.1800 
     34 N           1.7367  -17.6635  -45.2732 N.am      8 UNK        -0.5000 
     35 C           2.5082  -18.6836  -45.6746 C.2       7 UNK         0.5000 
     36 O           2.0954  -19.6276  -46.3464 O.2       7 UNK        -0.5000 
     37 CA          3.9750  -18.6739  -45.2079 C.3       7 UNK         0.1400 
     38 CB          4.8278  -17.7749  -46.1143 C.3       7 UNK        -0.1800 
     39 N           4.1187  -18.2406  -43.8182 N.am      7 UNK        -0.5000 
     40 C           3.6504  -18.9181  -42.7599 C.2       6 UNK         0.5000 
     41 O           3.0853  -20.0072  -42.8423 O.2       6 UNK        -0.5000 
     42 CA          3.7947  -18.2419  -41.3833 C.3       6 UNK         0.1400 
     43 CB          5.1248  -18.6373  -40.7256 C.3       6 UNK        -0.1800 
     44 N           3.6983  -16.7809  -41.4449 N.am      6 UNK        -0.5000 
     45 C           2.6208  -16.1052  -41.8652 C.2       5 UNK         0.5000 
     46 O           1.5819  -16.6463  -42.2531 O.2       5 UNK        -0.5000 
     47 CA          2.7745  -14.5767  -41.9346 C.3       5 UNK         0.1400 
     48 CB          3.4478  -14.1793  -43.2584 C.3       5 UNK        -0.1800 
     49 N           1.4907  -13.8846  -41.8155 N.am      5 UNK        -0.5000 
     50 C           0.8027  -13.7715  -40.6689 C.2       4 UNK         0.5000 
     51 O           1.1932  -14.2468  -39.6010 O.2       4 UNK        -0.5000 
     52 CA         -0.5150  -12.9675  -40.6809 C.3       4 UNK         0.1400 
     53 CB         -0.3536  -11.6634  -39.8822 C.3       4 UNK        -0.1800 
     54 N          -0.9813  -12.6265  -42.0239 N.am      4 UNK        -0.5000 
     55 C          -1.7133  -13.4253  -42.8101 C.2       3 UNK         0.5000 
     56 O          -2.1214  -14.5351  -42.4676 O.2       3 UNK        -0.5000 
     57 CA         -2.0418  -12.8974  -44.2237 C.3       3 UNK         0.1400 
     58 CB         -3.4586  -12.3040  -44.2564 C.3       3 UNK        -0.1800 
     59 N          -1.0970  -11.9016  -44.7486 N.am      3 UNK        -0.5000 
     60 C           0.2098  -12.1178  -44.9443 C.2       2 UNK         0.5000 
     61 O           0.7846  -13.1517  -44.6045 O.2       2 UNK        -0.5000 
     62 CA          1.0266  -10.9749  -45.5697 C.3       2 UNK         0.1400 
     63 CB          1.5845  -10.0584  -44.4700 C.3       2 UNK        -0.1800 
     64 N           2.1423  -11.5152  -46.3470 N.am      2 UNK        -0.5000 
     65 C           2.0091  -12.0989  -47.5444 C.2       1 UNK         0.5000 
     66 O           0.9541  -12.1102  -48.1842 O.2       1 UNK        -0.5000 
     67 C          -2.2069  -22.1334  -47.3083 C.2       11 UNK         0.5000 
     68 O          -2.8240  -22.8714  -48.0795 O.2       11 UNK        -0.5000 
     69 N          -2.7411  -21.6088  -46.1971 N.am      12 UNK        -0.5000 
     70 CA         -4.0828  -21.9039  -45.6998 C.3       12 UNK         0.1400 
     71 CB         -4.4582  -20.9031  -44.5973 C.3       12 UNK        -0.1800 
     72 C          -4.2204  -23.3556  -45.2110 C.2       12 UNK         0.5000 
     73 O          -5.1945  -24.0178  -45.5676 O.2       12 UNK        -0.5000 
     74 N          -3.2315  -23.8395  -44.4454 N.am      13 UNK        -0.5000 
     75 CA         -3.1684  -25.2109  -43.9299 C.3       13 UNK         0.1400 
     76 CB         -1.9945  -25.3371  -42.9475 C.3       13 UNK        -0.1800 
     77 C          -3.0657  -26.2745  -45.0404 C.2       13 UNK         0.5000 
     78 O          -3.6979  -27.3261  -44.9375 O.2       13 UNK        -0.5000 
     79 N          -2.3022  -25.9660  -46.0969 N.am      14 UNK        -0.5000 
     80 CA         -2.1645  -26.7823  -47.3050 C.3       14 UNK         0.1400 
     81 CB         -0.9058  -26.3272  -48.0616 C.3       14 UNK        -0.1800 
     82 C          -3.3916  -26.7165  -48.2377 C.2       14 UNK         0.5000 
     83 O          -3.4746  -27.5150  -49.1711 O.2       14 UNK        -0.5000 
     84 N          -4.2919  -25.7506  -47.9970 N.am      15 UNK        -0.5000 
     85 CA         -5.4737  -25.3921  -48.7904 C.3       15 UNK         0.1400 
     86 CB         -6.4732  -26.5626  -48.8817 C.3       15 UNK        -0.1800 
     87 C          -5.1387  -24.7921  -50.1726 C.2       15 UNK         0.5000 
     88 O          -6.0357  -24.6268  -50.9993 O.2       15 UNK        -0.5000 
     89 N          -3.8726  -24.4149  -50.3888 N.am      16 UNK        -0.5000 
     90 CA         -3.3902  -23.7427  -51.5938 C.3       16 UNK         0.1400 
     91 CB         -1.8564  -23.7901  -51.6165 C.3       16 UNK        -0.1800 
     92 C          -3.9125  -22.2992  -51.7020 C.2       16 UNK         0.5000 
     93 O          -4.1422  -21.8199  -52.8129 O.2       16 UNK        -0.5000 
     94 N          -4.1393  -21.6506  -50.5500 N.am      17 UNK        -0.5000 
     95 CA         -4.7808  -20.3384  -50.4593 C.3       17 UNK         0.1400 
     96 CB         -4.5352  -19.7321  -49.0708 C.3       17 UNK        -0.1800 
     97 C          -6.2896  -20.4111  -50.7522 C.2       17 UNK         0.5000 
     98 O          -6.8282  -19.4995  -51.3785 O.2       17 UNK        -0.5000 
     99 N          -6.9362  -21.5045  -50.3208 N.am      18 UNK        -0.5000 
    100 CA        -8.3531  -21.7846  -50.5661 C.3       18 UNK         0.1400 
    101 CB        -8.8282  -22.9051  -49.6281 C.3       18 UNK        -0.1800 
    102 C         -8.6214  -22.1420  -52.0391 C.2       18 UNK         0.5000 
    103 O         -9.6175  -21.6914  -52.6054 O.2       18 UNK        -0.5000 
    104 N         -7.7000  -22.9057  -52.6430 N.am      19 UNK        -0.5000 
    105 CA        -7.6703  -23.2139  -54.0742 C.3       19 UNK         0.1400 
    106 CB        -6.6820  -24.3670  -54.3090 C.3       19 UNK        -0.1800 
    107 C         -7.2872  -22.0033  -54.9508 C.2       19 UNK         0.5000 
    108 O         -7.5575  -22.0249  -56.1520 O.2       19 UNK        -0.5000 
    109 N         -6.6587  -20.9888  -54.3365 N.am      20 UNK        -0.5000 
    110 CA        -6.0996  -19.7759  -54.9380 C.3       20 UNK         0.1400 
    111 CB        -7.2159  -18.8741  -55.5034 C.3       20 UNK        -0.1800 
    112 C         -4.9973  -20.1079  -55.9624 C.2       20 UNK         0.5000 
    113 O         -5.0118  -19.6016  -57.0862 O.2       20 UNK        -0.5000 
    114 N         -4.0646  -20.9721  -55.5464 N.am      21 UNK        -0.5000 
    115 CA        -2.9763  -21.4956  -56.3628 C.3       21 UNK         0.1400 
    116 CB        -3.3332  -22.9395  -56.7661 C.3       21 UNK        -0.1800 
    117 C         -1.6414  -21.4041  -55.5933 C.2       21 UNK         0.5000 
    118 O         -1.1170  -22.4362  -55.1774 O.2       21 UNK        -0.5000 
    119 N         -1.0583  -20.2153  -55.3813 N.am      22 UNK        -0.5000 
    120 CA        -1.5687  -18.8596  -55.6627 C.3       22 UNK         0.1400 
    121 C         -2.3246  -18.2093  -54.4650 C.2       22 UNK         0.5000 
    122 N         -2.4750  -18.8746  -53.3266 N.am      22 UNK        -0.7600 
    123 O         -2.8085  -17.0874  -54.5789 O.2       22 UNK        -0.5000 
    124 C124       -0.4641  -17.9245  -56.2393 C.3       23 UNK        -0.0398 
    125 S125        1.1549  -17.9801  -55.3883 S.3       23 UNK        -0.2404 
    126 C126        0.9333  -16.7842  -54.0249 C.3       23 UNK        -0.0205 
    127 H127        4.9347  -10.4957  -49.0380 H         1 UNK         0.0600 
    128 H128        4.2992   -9.5711  -50.3921 H         1 UNK         0.0600 
    129 H129        3.2611   -9.9069  -49.0117 H         1 UNK         0.0600 
    130 H130        2.9494  -13.5134  -50.0463 H         1 UNK         0.3000 
    131 H131        4.1377  -12.2446  -47.7262 H         1 UNK         0.0600 
    132 H132        4.4197  -14.6019  -47.8189 H         1 UNK         0.0800 
    133 H133        3.2900  -14.3023  -46.5404 H         1 UNK         0.0800 
    134 H134        3.9915  -16.9261  -49.0275 H         1 UNK         0.0800 
    135 H135        3.8895  -15.5685  -50.1194 H         1 UNK         0.0800 
    136 H136        2.4048  -15.6032  -52.0468 H         1 UNK         0.1150 
    137 H137        0.3360  -19.2400  -52.9726 H         1 UNK         0.1150 
    138 H138        2.3532  -18.8318  -49.2212 H         1 UNK         0.1150 
    139 H139        1.5425  -21.0511  -49.9884 H         1 UNK         0.0800 
    140 H140        0.9315  -21.2293  -51.6109 H         1 UNK         0.0800 
    141 H141       -1.2684  -19.6891  -47.9324 H         1 UNK         0.0800 
    142 H142        0.4110  -20.0247  -48.1740 H         1 UNK         0.0800 
    143 H143       -0.3371  -22.5838  -48.2363 H         1 UNK         0.0600 
    144 H144        0.5699  -20.9859  -46.1141 H         1 UNK         0.3000 
    145 H145        0.8385  -23.5741  -43.6465 H         1 UNK         0.0600 
    146 H146        3.1653  -22.7395  -43.6618 H         1 UNK         0.0600 
    147 H147        2.8704  -23.7175  -45.0915 H         1 UNK         0.0600 
    148 H148        2.9141  -21.9637  -45.2233 H         1 UNK         0.0600 
    149 H149        1.4863  -20.8152  -43.5236 H         1 UNK         0.3000 
    150 H150       -1.7625  -19.6220  -42.5235 H         1 UNK         0.0600 
    151 H151        0.9616  -19.8385  -41.1377 H         1 UNK         0.0600 
    152 H152       -0.5870  -20.3282  -40.4677 H         1 UNK         0.0600 
    153 H153       -0.2684  -18.6275  -40.7806 H         1 UNK         0.0600 
    154 H154        0.6194  -18.1929  -43.0810 H         1 UNK         0.3000 
    155 H155        0.1455  -17.7901  -46.6098 H         1 UNK         0.0600 
    156 H156       -0.0233  -15.8252  -44.2665 H         1 UNK         0.0600 
    157 H157       -1.2488  -16.0431  -45.5091 H         1 UNK         0.0600 
    158 H158        0.3350  -15.4241  -45.9457 H         1 UNK         0.0600 
    159 H159        2.1295  -16.9559  -44.6709 H         1 UNK         0.3000 
    160 H160        4.3560  -19.6946  -45.2836 H         1 UNK         0.0600 
    161 H161        4.4845  -16.7399  -46.0982 H         1 UNK         0.0600 
    162 H162        4.7874  -18.1216  -47.1471 H         1 UNK         0.0600 
    163 H163        5.8749  -17.7872  -45.8114 H         1 UNK         0.0600 
    164 H164        4.5768  -17.3562  -43.6584 H         1 UNK         0.3000 
    165 H165        2.9816  -18.6017  -40.7503 H         1 UNK         0.0600 
    166 H166        5.2019  -18.2325  -39.7163 H         1 UNK         0.0600 
    167 H167        5.9809  -18.2788  -41.2986 H         1 UNK         0.0600 
    168 H168        5.2134  -19.7218  -40.6466 H         1 UNK         0.0600 
    169 H169        4.5166  -16.2658  -41.1533 H         1 UNK         0.3000 
    170 H170        3.4139  -14.2502  -41.1116 H         1 UNK         0.0600 
    171 H171        4.4675  -14.5622  -43.3105 H         1 UNK         0.0600 
    172 H172        2.9076  -14.5769  -44.1179 H         1 UNK         0.0600 
    173 H173        3.5023  -13.0960  -43.3673 H         1 UNK         0.0600 
    174 H174        1.0875  -13.5382  -42.6799 H         1 UNK         0.3000 
    175 H175       -1.2720  -13.5773  -40.1831 H         1 UNK         0.0600 
    176 H176        0.3989  -11.0104  -40.3261 H         1 UNK         0.0600 
    177 H177       -1.2924  -11.1111  -39.8347 H         1 UNK         0.0600 
    178 H178       -0.0472  -11.8667  -38.8553 H         1 UNK         0.0600 
    179 H179       -0.6901  -11.7329  -42.3915 H         1 UNK         0.3000 
    180 H180       -2.0187  -13.7548  -44.8987 H         1 UNK         0.0600 
    181 H181       -3.5375  -11.4180  -43.6251 H         1 UNK         0.0600 
    182 H182       -4.1944  -13.0268  -43.9011 H         1 UNK         0.0600 
    183 H183       -3.7464  -12.0228  -45.2696 H         1 UNK         0.0600 
    184 H184       -1.4932  -11.0161  -45.0294 H         1 UNK         0.3000 
    185 H185        0.3810  -10.3887  -46.2273 H         1 UNK         0.0600 
    186 H186        0.7788   -9.6101  -43.8874 H         1 UNK         0.0600 
    187 H187        2.2263  -10.6040  -43.7765 H         1 UNK         0.0600 
    188 H188        2.1683   -9.2420  -44.8958 H         1 UNK         0.0600 
    189 H189        3.0284  -11.5681  -45.8666 H         1 UNK         0.3000 
    190 H190       -2.1855  -20.9550  -45.6531 H         1 UNK         0.3000 
    191 H191       -4.7861  -21.7738  -46.5233 H         1 UNK         0.0600 
    192 H192       -5.4704  -21.0844  -44.2340 H         1 UNK         0.0600 
    193 H193       -4.4235  -19.8789  -44.9693 H         1 UNK         0.0600 
    194 H194       -3.7856  -20.9692  -43.7424 H         1 UNK         0.0600 
    195 H195       -2.4846  -23.2122  -44.1587 H         1 UNK         0.3000 
    196 H196       -4.0923  -25.3983  -43.3789 H         1 UNK         0.0600 
    197 H197       -1.0393  -25.1471  -43.4368 H         1 UNK         0.0600 
    198 H198       -2.0936  -24.6328  -42.1214 H         1 UNK         0.0600 
    199 H199       -1.9502  -26.3387  -42.5182 H         1 UNK         0.0600 
    200 H200       -1.7474  -25.1140  -46.0636 H         1 UNK         0.3000 
    201 H201       -2.0308  -27.8246  -47.0086 H         1 UNK         0.0600 
    202 H202       -0.9808  -25.2846  -48.3742 H         1 UNK         0.0600 
    203 H203       -0.7440  -26.9285  -48.9571 H         1 UNK         0.0600 
    204 H204       -0.0155  -26.4261  -47.4403 H         1 UNK         0.0600 
    205 H205       -4.1263  -25.1541  -47.1960 H         1 UNK         0.3000 
    206 H206       -5.9646  -24.5914  -48.2359 H         1 UNK         0.0600 
    207 H207       -6.6978  -26.9666  -47.8945 H         1 UNK         0.0600 
    208 H208       -7.4172  -26.2370  -49.3199 H         1 UNK         0.0600 
    209 H209       -6.0938  -27.3757  -49.5007 H         1 UNK         0.0600 
    210 H210       -3.2211  -24.4904  -49.6192 H         1 UNK         0.3000 
    211 H211       -3.7583  -24.2884  -52.4647 H         1 UNK         0.0600 
    212 H212       -1.4544  -23.2057  -52.4454 H         1 UNK         0.0600 
    213 H213       -1.4999  -24.8131  -51.7364 H         1 UNK         0.0600 
    214 H214       -1.4279  -23.3982  -50.6944 H         1 UNK         0.0600 
    215 H215       -3.8625  -22.0985  -49.6832 H         1 UNK         0.3000 
    216 H216       -4.3258  -19.6805  -51.2018 H         1 UNK         0.0600 
    217 H217       -4.9808  -20.3373  -48.2830 H         1 UNK         0.0600 
    218 H218       -4.9690  -18.7339  -49.0001 H         1 UNK         0.0600 
    219 H219       -3.4712  -19.6355  -48.8626 H         1 UNK         0.0600 
    220 H220       -6.4087  -22.2172  -49.8416 H         1 UNK         0.3000 
    221 H221       -8.9240  -20.8835  -50.3319 H         1 UNK         0.0600 
    222 H222       -8.6705  -22.6389  -48.5828 H         1 UNK         0.0600 
    223 H223       -8.3082  -23.8438  -49.8177 H         1 UNK         0.0600 
    224 H224       -9.8949  -23.0924  -49.7578 H         1 UNK         0.0600 
    225 H225       -6.9626  -23.3174  -52.0780 H         1 UNK         0.3000 
    226 H226       -8.6660  -23.5438  -54.3773 H         1 UNK         0.0600 
    227 H227       -5.6656  -24.0846  -54.0327 H         1 UNK         0.0600 
    228 H228       -6.9553  -25.2474  -53.7270 H         1 UNK         0.0600 
    229 H229       -6.6660  -24.6621  -55.3589 H         1 UNK         0.0600 
    230 H230       -6.4642  -21.1039  -53.3520 H         1 UNK         0.3000 
    231 H231       -5.6120  -19.2291  -54.1293 H         1 UNK         0.0600 
    232 H232       -7.7247  -19.3359  -56.3499 H         1 UNK         0.0600 
    233 H233       -6.8095  -17.9219  -55.8461 H         1 UNK         0.0600 
    234 H234       -7.9640  -18.6527  -54.7420 H         1 UNK         0.0600 
    235 H235       -4.1062  -21.3124  -54.5863 H         1 UNK         0.3000 
    236 H236       -2.8604  -20.9233  -57.2846 H         1 UNK         0.0600 
    237 H237       -4.2473  -22.9658  -57.3597 H         1 UNK         0.0600 
    238 H238       -2.5413  -23.3865  -57.3682 H         1 UNK         0.0600 
    239 H239       -3.4867  -23.5756  -55.8932 H         1 UNK         0.0600 
    240 H240       -0.1630  -20.2164  -54.9166 H         1 UNK         0.3000 
    241 H241       -2.3219  -18.9230  -56.4460 H         1 UNK         0.0600 
    242 H242       -2.9486  -18.4242  -52.5619 H         1 UNK         0.3800 
    243 H243       -2.1111  -19.8068  -53.2140 H         1 UNK         0.3800 
    244 H244       -0.2735  -18.2213  -57.2714 H         1 UNK         0.0800 
    245 H245       -0.8053  -16.8899  -56.3068 H         1 UNK         0.0800 
    246 H246        1.5242  -15.8959  -54.2528 H         1 UNK         0.0800 
    247 H247       -0.1026  -16.4526  -53.9624 H         1 UNK         0.0800 
@<TRIPOS>BOND
     1    1    2 1    
     2    1  127 1    
     3    1  128 1    
     4    1  129 1    
     5    2    3 2    
     6    2    4 am   BACKBONE|DICT|INTERRES
     7    4    5 1    
     8    4  130 1    
     9    5    6 1    
    10    5   65 1    
    11    5  131 1    
    12    6    7 1    
    13    6  132 1    
    14    6  133 1    
    15    7    8 1    
    16    8    9 1    
    17    8  134 1    
    18    8  135 1    
    19    9   10 ar   
    20    9   14 ar   
    21   10   11 ar   
    22   10  136 1    
    23   11   12 ar   
    24   11  126 1    
    25   12   13 ar   
    26   12  137 1    
    27   13   14 ar   
    28   13   15 1    
    29   14  138 1    
    30   15   16 1    
    31   15  139 1    
    32   15  140 1    
    33   16   17 1    
    34   17   18 1    
    35   17  141 1    
    36   17  142 1    
    37   18   19 1    
    38   18   67 1    
    39   18  143 1    
    40   19   20 am   BACKBONE|DICT|INTERRES
    41   19  144 1    
    42   20   21 2    
    43   20   22 1    
    44   22   23 1    
    45   22   24 1    
    46   22  145 1    
    47   23  146 1    
    48   23  147 1    
    49   23  148 1    
    50   24   25 am   BACKBONE|DICT|INTERRES
    51   24  149 1    
    52   25   26 2    
    53   25   27 1    
    54   27   28 1    
    55   27   29 1    
    56   27  150 1    
    57   28  151 1    
    58   28  152 1    
    59   28  153 1    
    60   29   30 am   BACKBONE|DICT|INTERRES
    61   29  154 1    
    62   30   31 2    
    63   30   32 1    
    64   32   33 1    
    65   32   34 1    
    66   32  155 1    
    67   33  156 1    
    68   33  157 1    
    69   33  158 1    
    70   34   35 am   BACKBONE|DICT|INTERRES
    71   34  159 1    
    72   35   36 2    
    73   35   37 1    
    74   37   38 1    
    75   37   39 1    
    76   37  160 1    
    77   38  161 1    
    78   38  162 1    
    79   38  163 1    
    80   39   40 am   BACKBONE|DICT|INTERRES
    81   39  164 1    
    82   40   41 2    
    83   40   42 1    
    84   42   43 1    
    85   42   44 1    
    86   42  165 1    
    87   43  166 1    
    88   43  167 1    
    89   43  168 1    
    90   44   45 am   BACKBONE|DICT|INTERRES
    91   44  169 1    
    92   45   46 2    
    93   45   47 1    
    94   47   48 1    
    95   47   49 1    
    96   47  170 1    
    97   48  171 1    
    98   48  172 1    
    99   48  173 1    
   100   49   50 am   BACKBONE|DICT|INTERRES
   101   49  174 1    
   102   50   51 2    
   103   50   52 1    
   104   52   53 1    
   105   52   54 1    
   106   52  175 1    
   107   53  176 1    
   108   53  177 1    
   109   53  178 1    
   110   54   55 am   BACKBONE|DICT|INTERRES
   111   54  179 1    
   112   55   56 2    
   113   55   57 1    
   114   57   58 1    
   115   57   59 1    
   116   57  180 1    
   117   58  181 1    
   118   58  182 1    
   119   58  183 1    
   120   59   60 am   BACKBONE|DICT|INTERRES
   121   59  184 1    
   122   60   61 2    
   123   60   62 1    
   124   62   63 1    
   125   62   64 1    
   126   62  185 1    
   127   63  186 1    
   128   63  187 1    
   129   63  188 1    
   130   64   65 am   BACKBONE|DICT|INTERRES
   131   64  189 1    
   132   65   66 2    
   133   67   68 2    
   134   67   69 am   BACKBONE|DICT|INTERRES
   135   69   70 1    
   136   69  190 1    
   137   70   71 1    
   138   70   72 1    
   139   70  191 1    
   140   71  192 1    
   141   71  193 1    
   142   71  194 1    
   143   72   73 2    
   144   72   74 am   BACKBONE|DICT|INTERRES
   145   74   75 1    
   146   74  195 1    
   147   75   76 1    
   148   75   77 1    
   149   75  196 1    
   150   76  197 1    
   151   76  198 1    
   152   76  199 1    
   153   77   78 2    
   154   77   79 am   BACKBONE|DICT|INTERRES
   155   79   80 1    
   156   79  200 1    
   157   80   81 1    
   158   80   82 1    
   159   80  201 1    
   160   81  202 1    
   161   81  203 1    
   162   81  204 1    
   163   82   83 2    
   164   82   84 am   BACKBONE|DICT|INTERRES
   165   84   85 1    
   166   84  205 1    
   167   85   86 1    
   168   85   87 1    
   169   85  206 1    
   170   86  207 1    
   171   86  208 1    
   172   86  209 1    
   173   87   88 2    
   174   87   89 am   BACKBONE|DICT|INTERRES
   175   89   90 1    
   176   89  210 1    
   177   90   91 1    
   178   90   92 1    
   179   90  211 1    
   180   91  212 1    
   181   91  213 1    
   182   91  214 1    
   183   92   93 2    
   184   92   94 am   BACKBONE|DICT|INTERRES
   185   94   95 1    
   186   94  215 1    
   187   95   96 1    
   188   95   97 1    
   189   95  216 1    
   190   96  217 1    
   191   96  218 1    
   192   96  219 1    
   193   97   98 2    
   194   97   99 am   BACKBONE|DICT|INTERRES
   195   99  100 1    
   196   99  220 1    
   197  100  101 1    
   198  100  102 1    
   199  100  221 1    
   200  101  222 1    
   201  101  223 1    
   202  101  224 1    
   203  102  103 2    
   204  102  104 am   BACKBONE|DICT|INTERRES
   205  104  105 1    
   206  104  225 1    
   207  105  106 1    
   208  105  107 1    
   209  105  226 1    
   210  106  227 1    
   211  106  228 1    
   212  106  229 1    
   213  107  108 2    
   214  107  109 am   BACKBONE|DICT|INTERRES
   215  109  110 1    
   216  109  230 1    
   217  110  111 1    
   218  110  112 1    
   219  110  231 1    
   220  111  232 1    
   221  111  233 1    
   222  111  234 1    
   223  112  113 2    
   224  112  114 am   BACKBONE|DICT|INTERRES
   225  114  115 1    
   226  114  235 1    
   227  115  116 1    
   228  115  117 1    
   229  115  236 1    
   230  116  237 1    
   231  116  238 1    
   232  116  239 1    
   233  117  118 2    
   234  117  119 am   BACKBONE|DICT|INTERRES
   235  119  120 1    
   236  119  240 1    
   237  120  121 1    
   238  120  124 1    
   239  120  241 1    
   240  121  122 am   BACKBONE|DICT|INTERRES
   241  121  123 2    
   242  122  242 1    
   243  122  243 1    
   244  124  125 1    
   245  124  244 1    
   246  124  245 1    
   247  125  126 1    
   248  126  246 1    
   249  126  247 1    
@<TRIPOS>SUBSTRUCTURE
     1 UNK         1 GROUP             0       ****    0 ROOT    
