@<TRIPOS>MOLECULE
3R540
247   249    1
SMALL
USER_CHARGES


@<TRIPOS>ATOM
      1 CA          8.7472  -12.1953  -46.1084 C.3       0 UNK        -0.1800 
      2 C           7.5377  -13.1066  -45.9520 C.2       0 UNK         0.5000 
      3 O           7.0843  -13.3358  -44.8304 O.2       0 UNK        -0.5000 
      4 N           7.0199  -13.6321  -47.0690 N.am      1 UNK        -0.5000 
      5 CA          5.8215  -14.4722  -47.1226 C.3       1 UNK         0.1400 
      6 C6          5.7093  -15.1902  -48.4905 C.3       23 UNK        -0.0398 
      7 S7          4.3763  -16.4367  -48.5547 S.3       23 UNK        -0.2404 
      8 C8          4.2510  -16.6768  -50.3519 C.3       23 UNK        -0.0205 
      9 C9          3.1136  -17.6200  -50.7083 C.ar      23 UNK        -0.0193 
     10 C10         1.9067  -17.1191  -51.2021 C.ar      23 UNK        -0.1150 
     11 C11         0.8624  -17.9816  -51.5443 C.ar      23 UNK        -0.0193 
     12 C12         1.0412  -19.3617  -51.4029 C.ar      23 UNK        -0.1150 
     13 C13         2.2485  -19.8795  -50.9154 C.ar      23 UNK        -0.0193 
     14 C14         3.2769  -18.9996  -50.5666 C.ar      23 UNK        -0.1150 
     15 C15         2.4848  -21.3827  -50.8022 C.3       23 UNK        -0.0205 
     16 S16         1.0791  -22.3029  -50.1022 S.3       23 UNK        -0.2404 
     17 C17         0.9094  -21.5433  -48.4516 C.3       23 UNK        -0.0398 
     18 CA          0.4808  -22.5763  -47.3844 C.3       11 UNK         0.1400 
     19 N           0.7770  -22.1171  -46.0297 N.am      11 UNK        -0.5000 
     20 C           0.7387  -22.8779  -44.9290 C.2       10 UNK         0.5000 
     21 O           0.3990  -24.0624  -44.9450 O.2       10 UNK        -0.5000 
     22 CA          1.0816  -22.2056  -43.5835 C.3       10 UNK         0.1400 
     23 CB          2.1653  -22.9849  -42.8135 C.3       10 UNK        -0.1800 
     24 N           1.4121  -20.7768  -43.6836 N.am      10 UNK        -0.5000 
     25 C           2.4902  -20.1863  -44.2254 C.2       9 UNK         0.5000 
     26 O           3.4351  -20.8014  -44.7178 O.2       9 UNK        -0.5000 
     27 CA          2.4946  -18.6414  -44.2674 C.3       9 UNK         0.1400 
     28 CB          2.3596  -18.1447  -45.7173 C.3       9 UNK        -0.1800 
     29 N           1.4201  -18.0493  -43.4666 N.am      9 UNK        -0.5000 
     30 C           1.4325  -17.9337  -42.1308 C.2       8 UNK         0.5000 
     31 O           2.4060  -18.2059  -41.4284 O.2       8 UNK        -0.5000 
     32 CA          0.1151  -17.4888  -41.4697 C.3       8 UNK         0.1400 
     33 CB          0.0808  -15.9628  -41.2955 C.3       8 UNK        -0.1800 
     34 N          -1.0545  -17.9237  -42.2394 N.am      8 UNK        -0.5000 
     35 C          -1.5156  -19.1833  -42.2686 C.2       7 UNK         0.5000 
     36 O          -1.0264  -20.0981  -41.6072 O.2       7 UNK        -0.5000 
     37 CA         -2.6787  -19.4960  -43.2297 C.3       7 UNK         0.1400 
     38 CB         -4.0311  -19.3106  -42.5275 C.3       7 UNK        -0.1800 
     39 N          -2.6498  -18.6766  -44.4416 N.am      7 UNK        -0.5000 
     40 C          -1.7464  -18.7948  -45.4225 C.2       6 UNK         0.5000 
     41 O          -0.9479  -19.7300  -45.4901 O.2       6 UNK        -0.5000 
     42 CA         -1.7013  -17.6924  -46.5025 C.3       6 UNK         0.1400 
     43 CB         -2.1690  -18.2409  -47.8582 C.3       6 UNK        -0.1800 
     44 N          -2.4428  -16.4577  -46.2158 N.am      6 UNK        -0.5000 
     45 C          -2.2828  -15.6561  -45.1532 C.2       5 UNK         0.5000 
     46 O          -1.5926  -15.9416  -44.1749 O.2       5 UNK        -0.5000 
     47 CA         -2.9790  -14.2931  -45.2373 C.3       5 UNK         0.1400 
     48 CB         -2.7896  -13.4365  -43.9713 C.3       5 UNK        -0.1800 
     49 N          -2.4322  -13.5862  -46.3893 N.am      5 UNK        -0.5000 
     50 C          -3.1289  -12.8164  -47.2330 C.2       4 UNK         0.5000 
     51 O          -4.3410  -12.6246  -47.1309 O.2       4 UNK        -0.5000 
     52 CA         -2.3545  -12.1253  -48.3753 C.3       4 UNK         0.1400 
     53 CB         -2.2989  -10.6070  -48.1422 C.3       4 UNK        -0.1800 
     54 N          -0.9863  -12.6165  -48.5469 N.am      4 UNK        -0.5000 
     55 C          -0.6482  -13.7822  -49.1139 C.2       3 UNK         0.5000 
     56 O          -1.4583  -14.5968  -49.5541 O.2       3 UNK        -0.5000 
     57 CA          0.8582  -14.0986  -49.1632 C.3       3 UNK         0.1400 
     58 CB          1.4949  -13.4735  -50.4139 C.3       3 UNK        -0.1800 
     59 N           1.6033  -13.6564  -47.9802 N.am      3 UNK        -0.5000 
     60 C           1.3696  -14.0641  -46.7262 C.2       2 UNK         0.5000 
     61 O           0.4323  -14.7985  -46.4232 O.2       2 UNK        -0.5000 
     62 CA          2.3718  -13.6046  -45.6486 C.3       2 UNK         0.1400 
     63 CB          1.9545  -14.0423  -44.2321 C.3       2 UNK        -0.1800 
     64 N           3.7012  -14.1417  -45.9352 N.am      2 UNK        -0.5000 
     65 C           4.5629  -13.6316  -46.8227 C.2       1 UNK         0.5000 
     66 O           4.3691  -12.5778  -47.4352 O.2       1 UNK        -0.5000 
     67 C          -0.9969  -22.9850  -47.5354 C.2       11 UNK         0.5000 
     68 O          -1.2776  -23.9946  -48.1790 O.2       11 UNK        -0.5000 
     69 N          -1.9145  -22.2433  -46.8958 N.am      12 UNK        -0.5000 
     70 CA         -3.3503  -22.5477  -46.9049 C.3       12 UNK         0.1400 
     71 CB         -4.1330  -21.3980  -46.2599 C.3       12 UNK        -0.1800 
     72 C          -3.7039  -23.8836  -46.2229 C.2       12 UNK         0.5000 
     73 O          -4.7179  -24.4842  -46.5732 O.2       12 UNK        -0.5000 
     74 N          -2.8614  -24.3334  -45.2835 N.am      13 UNK        -0.5000 
     75 CA         -2.9660  -25.6482  -44.6569 C.3       13 UNK         0.1400 
     76 CB         -2.3512  -25.5949  -43.2490 C.3       13 UNK        -0.1800 
     77 C          -2.2857  -26.7293  -45.5152 C.2       13 UNK         0.5000 
     78 O          -2.8601  -27.8014  -45.7059 O.2       13 UNK        -0.5000 
     79 N          -1.0742  -26.4329  -46.0067 N.am      14 UNK        -0.5000 
     80 CA         -0.2269  -27.3692  -46.7447 C.3       14 UNK         0.1400 
     81 CB          1.2061  -26.8165  -46.7992 C.3       14 UNK        -0.1800 
     82 C          -0.7354  -27.6931  -48.1617 C.2       14 UNK         0.5000 
     83 O          -0.7865  -28.8671  -48.5312 O.2       14 UNK        -0.5000 
     84 N          -1.0740  -26.6549  -48.9361 N.am      15 UNK        -0.5000 
     85 CA         -1.4447  -26.7606  -50.3493 C.3       15 UNK         0.1400 
     86 CB         -0.8334  -25.5734  -51.1115 C.3       15 UNK        -0.1800 
     87 C          -2.9660  -26.7991  -50.5692 C.2       15 UNK         0.5000 
     88 O          -3.3993  -27.1659  -51.6624 O.2       15 UNK        -0.5000 
     89 N          -3.7457  -26.3997  -49.5530 N.am      16 UNK        -0.5000 
     90 CA         -5.2114  -26.2929  -49.5031 C.3       16 UNK         0.1400 
     91 CB         -5.8936  -27.6520  -49.7517 C.3       16 UNK        -0.1800 
     92 C          -5.7901  -25.1937  -50.4161 C.2       16 UNK         0.5000 
     93 O          -6.5012  -24.3136  -49.9327 O.2       16 UNK        -0.5000 
     94 N          -5.4531  -25.2341  -51.7117 N.am      17 UNK        -0.5000 
     95 CA         -5.8901  -24.2863  -52.7428 C.3       17 UNK         0.1400 
     96 CB         -5.4279  -24.7967  -54.1154 C.3       17 UNK        -0.1800 
     97 C          -5.3933  -22.8460  -52.5089 C.2       17 UNK         0.5000 
     98 O          -6.0439  -21.8937  -52.9411 O.2       17 UNK        -0.5000 
     99 N          -4.2717  -22.7104  -51.7887 N.am      18 UNK        -0.5000 
    100 CA        -3.6735  -21.4407  -51.3782 C.3       18 UNK         0.1400 
    101 CB        -2.2599  -21.7037  -50.8540 C.3       18 UNK        -0.1800 
    102 C         -4.5016  -20.6508  -50.3459 C.2       18 UNK         0.5000 
    103 O         -4.1847  -19.4878  -50.1043 O.2       18 UNK        -0.5000 
    104 N         -5.5728  -21.2446  -49.7937 N.am      19 UNK        -0.5000 
    105 CA        -6.5622  -20.5748  -48.9388 C.3       19 UNK         0.1400 
    106 CB        -7.5575  -21.6164  -48.4086 C.3       19 UNK        -0.1800 
    107 C         -7.3057  -19.4086  -49.6280 C.2       19 UNK         0.5000 
    108 O         -7.8596  -18.5527  -48.9384 O.2       19 UNK        -0.5000 
    109 N         -7.2571  -19.3617  -50.9674 N.am      20 UNK        -0.5000 
    110 CA        -7.6679  -18.2286  -51.7989 C.3       20 UNK         0.1400 
    111 CB        -7.8290  -18.7281  -53.2441 C.3       20 UNK        -0.1800 
    112 C         -6.6926  -17.0273  -51.7453 C.2       20 UNK         0.5000 
    113 O         -6.9507  -16.0217  -52.4087 O.2       20 UNK        -0.5000 
    114 N         -5.5780  -17.1537  -51.0046 N.am      21 UNK        -0.5000 
    115 CA        -4.5100  -16.1651  -50.8084 C.3       21 UNK         0.1400 
    116 CB        -5.0355  -14.9420  -50.0299 C.3       21 UNK        -0.1800 
    117 C         -3.7995  -15.7920  -52.1249 C.2       21 UNK         0.5000 
    118 O         -3.4027  -14.6416  -52.3160 O.2       21 UNK        -0.5000 
    119 N         -3.6904  -16.7814  -53.0240 N.am      22 UNK        -0.5000 
    120 CA        -3.1704  -16.6597  -54.3964 C.3       22 UNK         0.1400 
    121 C         -4.0198  -15.7391  -55.3320 C.2       22 UNK         0.5000 
    122 N         -5.2512  -15.3808  -54.9827 N.am      22 UNK        -0.7600 
    123 O         -3.5755  -15.3724  -56.4167 O.2       22 UNK        -0.5000 
    124 C124       -1.6485  -16.3353  -54.4307 C.3       23 UNK        -0.0398 
    125 S125       -0.6135  -17.7305  -53.8646 S.3       23 UNK        -0.2404 
    126 C126       -0.4478  -17.4187  -52.0784 C.3       23 UNK        -0.0205 
    127 H127        9.5944  -12.5972  -45.5526 H         1 UNK         0.0600 
    128 H128        8.5218  -11.2028  -45.7182 H         1 UNK         0.0600 
    129 H129        9.0444  -12.0907  -47.1522 H         1 UNK         0.0600 
    130 H130        7.4202  -13.3803  -47.9615 H         1 UNK         0.3000 
    131 H131        5.9245  -15.2377  -46.3499 H         1 UNK         0.0600 
    132 H132        6.6457  -15.7028  -48.7154 H         1 UNK         0.0800 
    133 H133        5.5617  -14.4626  -49.2910 H         1 UNK         0.0800 
    134 H134        5.1925  -17.0781  -50.7301 H         1 UNK         0.0800 
    135 H135        4.1083  -15.7120  -50.8406 H         1 UNK         0.0800 
    136 H136        1.7836  -16.0555  -51.3325 H         1 UNK         0.1150 
    137 H137        0.2439  -20.0322  -51.6901 H         1 UNK         0.1150 
    138 H138        4.2155  -19.3862  -50.1946 H         1 UNK         0.1150 
    139 H139        2.6947  -21.7744  -51.7981 H         1 UNK         0.0800 
    140 H140        3.3687  -21.5910  -50.1972 H         1 UNK         0.0800 
    141 H141        0.2115  -20.7062  -48.5067 H         1 UNK         0.0800 
    142 H142        1.8740  -21.1135  -48.1772 H         1 UNK         0.0800 
    143 H143        1.0793  -23.4768  -47.5364 H         1 UNK         0.0600 
    144 H144        0.9747  -21.1340  -45.9125 H         1 UNK         0.3000 
    145 H145        0.1666  -22.2528  -42.9917 H         1 UNK         0.0600 
    146 H146        2.3838  -22.5137  -41.8552 H         1 UNK         0.0600 
    147 H147        3.0965  -23.0535  -43.3762 H         1 UNK         0.0600 
    148 H148        1.8379  -24.0044  -42.6060 H         1 UNK         0.0600 
    149 H149        0.6948  -20.1613  -43.3274 H         1 UNK         0.3000 
    150 H150        3.4553  -18.3008  -43.8759 H         1 UNK         0.0600 
    151 H151        3.1992  -18.4838  -46.3255 H         1 UNK         0.0600 
    152 H152        2.3441  -17.0561  -45.7682 H         1 UNK         0.0600 
    153 H153        1.4496  -18.5146  -46.1892 H         1 UNK         0.0600 
    154 H154        0.5816  -17.7772  -43.9591 H         1 UNK         0.3000 
    155 H155        0.0677  -17.9435  -40.4779 H         1 UNK         0.0600 
    156 H156        0.9113  -15.6229  -40.6756 H         1 UNK         0.0600 
    157 H157       -0.8411  -15.6417  -40.8107 H         1 UNK         0.0600 
    158 H158        0.1538  -15.4441  -42.2512 H         1 UNK         0.0600 
    159 H159       -1.4612  -17.2268  -42.8603 H         1 UNK         0.3000 
    160 H160       -2.5810  -20.5450  -43.5139 H         1 UNK         0.0600 
    161 H161       -4.1906  -18.2739  -42.2281 H         1 UNK         0.0600 
    162 H162       -4.0924  -19.9258  -41.6288 H         1 UNK         0.0600 
    163 H163       -4.8555  -19.6037  -43.1779 H         1 UNK         0.0600 
    164 H164       -3.2658  -17.8777  -44.4635 H         1 UNK         0.3000 
    165 H165       -0.6522  -17.4095  -46.6028 H         1 UNK         0.0600 
    166 H166       -1.9347  -17.5457  -48.6649 H         1 UNK         0.0600 
    167 H167       -1.6844  -19.1872  -48.1012 H         1 UNK         0.0600 
    168 H168       -3.2454  -18.4116  -47.8661 H         1 UNK         0.0600 
    169 H169       -3.0176  -16.1139  -46.9709 H         1 UNK         0.3000 
    170 H170       -4.0452  -14.4846  -45.3747 H         1 UNK         0.0600 
    171 H171       -3.1780  -13.9490  -43.0904 H         1 UNK         0.0600 
    172 H172       -1.7366  -13.2181  -43.7884 H         1 UNK         0.0600 
    173 H173       -3.3185  -12.4871  -44.0555 H         1 UNK         0.0600 
    174 H174       -1.4491  -13.7580  -46.5716 H         1 UNK         0.3000 
    175 H175       -2.9043  -12.3063  -49.3009 H         1 UNK         0.0600 
    176 H176       -1.7568  -10.3600  -47.2285 H         1 UNK         0.0600 
    177 H177       -1.8096  -10.0975  -48.9725 H         1 UNK         0.0600 
    178 H178       -3.3016  -10.1868  -48.0524 H         1 UNK         0.0600 
    179 H179       -0.2464  -12.0231  -48.2013 H         1 UNK         0.3000 
    180 H180        0.9604  -15.1838  -49.2235 H         1 UNK         0.0600 
    181 H181        2.5373  -13.7743  -50.5184 H         1 UNK         0.0600 
    182 H182        1.4643  -12.3839  -50.3779 H         1 UNK         0.0600 
    183 H183        0.9713  -13.7847  -51.3189 H         1 UNK         0.0600 
    184 H184        2.4178  -13.0753  -48.1411 H         1 UNK         0.3000 
    185 H185        2.4050  -12.5133  -45.6675 H         1 UNK         0.0600 
    186 H186        1.9099  -15.1281  -44.1400 H         1 UNK         0.0600 
    187 H187        2.6531  -13.6714  -43.4821 H         1 UNK         0.0600 
    188 H188        0.9678  -13.6526  -43.9776 H         1 UNK         0.0600 
    189 H189        3.9225  -15.0247  -45.4993 H         1 UNK         0.3000 
    190 H190       -1.6076  -21.4357  -46.3630 H         1 UNK         0.3000 
    191 H191       -3.6667  -22.6266  -47.9468 H         1 UNK         0.0600 
    192 H192       -3.8710  -21.2755  -45.2115 H         1 UNK         0.0600 
    193 H193       -5.2059  -21.5876  -46.3001 H         1 UNK         0.0600 
    194 H194       -3.9492  -20.4555  -46.7732 H         1 UNK         0.0600 
    195 H195       -2.0324  -23.7954  -45.0780 H         1 UNK         0.3000 
    196 H196       -4.0193  -25.9164  -44.5486 H         1 UNK         0.0600 
    197 H197       -2.8609  -24.8605  -42.6253 H         1 UNK         0.0600 
    198 H198       -1.2927  -25.3349  -43.2740 H         1 UNK         0.0600 
    199 H199       -2.4386  -26.5610  -42.7504 H         1 UNK         0.0600 
    200 H200       -0.6551  -25.5393  -45.7705 H         1 UNK         0.3000 
    201 H201       -0.1991  -28.3059  -46.1838 H         1 UNK         0.0600 
    202 H202        1.6065  -26.6594  -45.7974 H         1 UNK         0.0600 
    203 H203        1.2508  -25.8649  -47.3291 H         1 UNK         0.0600 
    204 H204        1.8739  -27.5099  -47.3119 H         1 UNK         0.0600 
    205 H205       -1.0362  -25.7101  -48.5545 H         1 UNK         0.3000 
    206 H206       -1.0303  -27.6772  -50.7742 H         1 UNK         0.0600 
    207 H207       -1.2428  -24.6213  -50.7741 H         1 UNK         0.0600 
    208 H208        0.2482  -25.5348  -50.9809 H         1 UNK         0.0600 
    209 H209       -1.0287  -25.6516  -52.1817 H         1 UNK         0.0600 
    210 H210       -3.2696  -26.1018  -48.7130 H         1 UNK         0.3000 
    211 H211       -5.4537  -26.0068  -48.4804 H         1 UNK         0.0600 
    212 H212       -5.7336  -28.0171  -50.7662 H         1 UNK         0.0600 
    213 H213       -6.9713  -27.5761  -49.6020 H         1 UNK         0.0600 
    214 H214       -5.5226  -28.4091  -49.0608 H         1 UNK         0.0600 
    215 H215       -4.8254  -25.9796  -52.0027 H         1 UNK         0.3000 
    216 H216       -6.9816  -24.2610  -52.7331 H         1 UNK         0.0600 
    217 H217       -5.7529  -24.1267  -54.9126 H         1 UNK         0.0600 
    218 H218       -5.8436  -25.7814  -54.3299 H         1 UNK         0.0600 
    219 H219       -4.3411  -24.8722  -54.1705 H         1 UNK         0.0600 
    220 H220       -3.8128  -23.5509  -51.4713 H         1 UNK         0.3000 
    221 H221       -3.5904  -20.8061  -52.2629 H         1 UNK         0.0600 
    222 H222       -2.2736  -22.4163  -50.0328 H         1 UNK         0.0600 
    223 H223       -1.6192  -22.1079  -51.6378 H         1 UNK         0.0600 
    224 H224       -1.7908  -20.7883  -50.4903 H         1 UNK         0.0600 
    225 H225       -5.7756  -22.2074  -50.0347 H         1 UNK         0.3000 
    226 H226       -6.0290  -20.1454  -48.0896 H         1 UNK         0.0600 
    227 H227       -7.0469  -22.4070  -47.8581 H         1 UNK         0.0600 
    228 H228       -8.2784  -21.1605  -47.7288 H         1 UNK         0.0600 
    229 H229       -8.1184  -22.0826  -49.2196 H         1 UNK         0.0600 
    230 H230       -6.8052  -20.1260  -51.4524 H         1 UNK         0.3000 
    231 H231       -8.6386  -17.8740  -51.4469 H         1 UNK         0.0600 
    232 H232       -8.1894  -17.9340  -53.8992 H         1 UNK         0.0600 
    233 H233       -8.5490  -19.5447  -53.3014 H         1 UNK         0.0600 
    234 H234       -6.8833  -19.0875  -53.6523 H         1 UNK         0.0600 
    235 H235       -5.4029  -18.0456  -50.5521 H         1 UNK         0.3000 
    236 H236       -3.7545  -16.6483  -50.1875 H         1 UNK         0.0600 
    237 H237       -5.7624  -14.3722  -50.6090 H         1 UNK         0.0600 
    238 H238       -5.5090  -15.2421  -49.0952 H         1 UNK         0.0600 
    239 H239       -4.2202  -14.2660  -49.7757 H         1 UNK         0.0600 
    240 H240       -4.0617  -17.6858  -52.7749 H         1 UNK         0.3000 
    241 H241       -3.2955  -17.6494  -54.8369 H         1 UNK         0.0600 
    242 H242       -5.7876  -14.7986  -55.6061 H         1 UNK         0.3800 
    243 H243       -5.6483  -15.6536  -54.0924 H         1 UNK         0.3800 
    244 H244       -1.3247  -16.1247  -55.4509 H         1 UNK         0.0800 
    245 H245       -1.4172  -15.4347  -53.8617 H         1 UNK         0.0800 
    246 H246       -0.5087  -16.3478  -51.8772 H         1 UNK         0.0800 
    247 H247       -1.2862  -17.8774  -51.5519 H         1 UNK         0.0800 
@<TRIPOS>BOND
     1    1    2 1    
     2    1  127 1    
     3    1  128 1    
     4    1  129 1    
     5    2    3 2    
     6    2    4 am   BACKBONE|DICT|INTERRES
     7    4    5 1    
     8    4  130 1    
     9    5    6 1    
    10    5   65 1    
    11    5  131 1    
    12    6    7 1    
    13    6  132 1    
    14    6  133 1    
    15    7    8 1    
    16    8    9 1    
    17    8  134 1    
    18    8  135 1    
    19    9   10 ar   
    20    9   14 ar   
    21   10   11 ar   
    22   10  136 1    
    23   11   12 ar   
    24   11  126 1    
    25   12   13 ar   
    26   12  137 1    
    27   13   14 ar   
    28   13   15 1    
    29   14  138 1    
    30   15   16 1    
    31   15  139 1    
    32   15  140 1    
    33   16   17 1    
    34   17   18 1    
    35   17  141 1    
    36   17  142 1    
    37   18   19 1    
    38   18   67 1    
    39   18  143 1    
    40   19   20 am   BACKBONE|DICT|INTERRES
    41   19  144 1    
    42   20   21 2    
    43   20   22 1    
    44   22   23 1    
    45   22   24 1    
    46   22  145 1    
    47   23  146 1    
    48   23  147 1    
    49   23  148 1    
    50   24   25 am   BACKBONE|DICT|INTERRES
    51   24  149 1    
    52   25   26 2    
    53   25   27 1    
    54   27   28 1    
    55   27   29 1    
    56   27  150 1    
    57   28  151 1    
    58   28  152 1    
    59   28  153 1    
    60   29   30 am   BACKBONE|DICT|INTERRES
    61   29  154 1    
    62   30   31 2    
    63   30   32 1    
    64   32   33 1    
    65   32   34 1    
    66   32  155 1    
    67   33  156 1    
    68   33  157 1    
    69   33  158 1    
    70   34   35 am   BACKBONE|DICT|INTERRES
    71   34  159 1    
    72   35   36 2    
    73   35   37 1    
    74   37   38 1    
    75   37   39 1    
    76   37  160 1    
    77   38  161 1    
    78   38  162 1    
    79   38  163 1    
    80   39   40 am   BACKBONE|DICT|INTERRES
    81   39  164 1    
    82   40   41 2    
    83   40   42 1    
    84   42   43 1    
    85   42   44 1    
    86   42  165 1    
    87   43  166 1    
    88   43  167 1    
    89   43  168 1    
    90   44   45 am   BACKBONE|DICT|INTERRES
    91   44  169 1    
    92   45   46 2    
    93   45   47 1    
    94   47   48 1    
    95   47   49 1    
    96   47  170 1    
    97   48  171 1    
    98   48  172 1    
    99   48  173 1    
   100   49   50 am   BACKBONE|DICT|INTERRES
   101   49  174 1    
   102   50   51 2    
   103   50   52 1    
   104   52   53 1    
   105   52   54 1    
   106   52  175 1    
   107   53  176 1    
   108   53  177 1    
   109   53  178 1    
   110   54   55 am   BACKBONE|DICT|INTERRES
   111   54  179 1    
   112   55   56 2    
   113   55   57 1    
   114   57   58 1    
   115   57   59 1    
   116   57  180 1    
   117   58  181 1    
   118   58  182 1    
   119   58  183 1    
   120   59   60 am   BACKBONE|DICT|INTERRES
   121   59  184 1    
   122   60   61 2    
   123   60   62 1    
   124   62   63 1    
   125   62   64 1    
   126   62  185 1    
   127   63  186 1    
   128   63  187 1    
   129   63  188 1    
   130   64   65 am   BACKBONE|DICT|INTERRES
   131   64  189 1    
   132   65   66 2    
   133   67   68 2    
   134   67   69 am   BACKBONE|DICT|INTERRES
   135   69   70 1    
   136   69  190 1    
   137   70   71 1    
   138   70   72 1    
   139   70  191 1    
   140   71  192 1    
   141   71  193 1    
   142   71  194 1    
   143   72   73 2    
   144   72   74 am   BACKBONE|DICT|INTERRES
   145   74   75 1    
   146   74  195 1    
   147   75   76 1    
   148   75   77 1    
   149   75  196 1    
   150   76  197 1    
   151   76  198 1    
   152   76  199 1    
   153   77   78 2    
   154   77   79 am   BACKBONE|DICT|INTERRES
   155   79   80 1    
   156   79  200 1    
   157   80   81 1    
   158   80   82 1    
   159   80  201 1    
   160   81  202 1    
   161   81  203 1    
   162   81  204 1    
   163   82   83 2    
   164   82   84 am   BACKBONE|DICT|INTERRES
   165   84   85 1    
   166   84  205 1    
   167   85   86 1    
   168   85   87 1    
   169   85  206 1    
   170   86  207 1    
   171   86  208 1    
   172   86  209 1    
   173   87   88 2    
   174   87   89 am   BACKBONE|DICT|INTERRES
   175   89   90 1    
   176   89  210 1    
   177   90   91 1    
   178   90   92 1    
   179   90  211 1    
   180   91  212 1    
   181   91  213 1    
   182   91  214 1    
   183   92   93 2    
   184   92   94 am   BACKBONE|DICT|INTERRES
   185   94   95 1    
   186   94  215 1    
   187   95   96 1    
   188   95   97 1    
   189   95  216 1    
   190   96  217 1    
   191   96  218 1    
   192   96  219 1    
   193   97   98 2    
   194   97   99 am   BACKBONE|DICT|INTERRES
   195   99  100 1    
   196   99  220 1    
   197  100  101 1    
   198  100  102 1    
   199  100  221 1    
   200  101  222 1    
   201  101  223 1    
   202  101  224 1    
   203  102  103 2    
   204  102  104 am   BACKBONE|DICT|INTERRES
   205  104  105 1    
   206  104  225 1    
   207  105  106 1    
   208  105  107 1    
   209  105  226 1    
   210  106  227 1    
   211  106  228 1    
   212  106  229 1    
   213  107  108 2    
   214  107  109 am   BACKBONE|DICT|INTERRES
   215  109  110 1    
   216  109  230 1    
   217  110  111 1    
   218  110  112 1    
   219  110  231 1    
   220  111  232 1    
   221  111  233 1    
   222  111  234 1    
   223  112  113 2    
   224  112  114 am   BACKBONE|DICT|INTERRES
   225  114  115 1    
   226  114  235 1    
   227  115  116 1    
   228  115  117 1    
   229  115  236 1    
   230  116  237 1    
   231  116  238 1    
   232  116  239 1    
   233  117  118 2    
   234  117  119 am   BACKBONE|DICT|INTERRES
   235  119  120 1    
   236  119  240 1    
   237  120  121 1    
   238  120  124 1    
   239  120  241 1    
   240  121  122 am   BACKBONE|DICT|INTERRES
   241  121  123 2    
   242  122  242 1    
   243  122  243 1    
   244  124  125 1    
   245  124  244 1    
   246  124  245 1    
   247  125  126 1    
   248  126  246 1    
   249  126  247 1    
@<TRIPOS>SUBSTRUCTURE
     1 UNK         1 GROUP             0       ****    0 ROOT    
