@<TRIPOS>MOLECULE
3R540
247   249    1
SMALL
USER_CHARGES


@<TRIPOS>ATOM
      1 CA          5.2653   -9.9850  -48.9927 C.3       0 UNK        -0.1800 
      2 C           4.1204  -10.9729  -48.8179 C.2       0 UNK         0.5000 
      3 O           2.9593  -10.5902  -48.9608 O.2       0 UNK        -0.5000 
      4 N           4.4497  -12.2351  -48.5077 N.am      1 UNK        -0.5000 
      5 CA          3.5184  -13.3557  -48.2940 C.3       1 UNK         0.1400 
      6 C6          2.7196  -13.7654  -49.5612 C.3       23 UNK        -0.0398 
      7 S7          3.7931  -14.0945  -51.0023 S.3       23 UNK        -0.2404 
      8 C8          4.0334  -15.9005  -50.8710 C.3       23 UNK        -0.0205 
      9 C9          2.8362  -16.7795  -51.2417 C.ar      23 UNK        -0.0193 
     10 C10         1.6217  -16.2675  -51.7204 C.ar      23 UNK        -0.1150 
     11 C11         0.5622  -17.1217  -52.0343 C.ar      23 UNK        -0.0193 
     12 C12         0.7245  -18.5021  -51.8951 C.ar      23 UNK        -0.1150 
     13 C13         1.9257  -19.0301  -51.4183 C.ar      23 UNK        -0.0193 
     14 C14         2.9725  -18.1635  -51.0938 C.ar      23 UNK        -0.1150 
     15 C15         2.1073  -20.5334  -51.2702 C.3       23 UNK        -0.0205 
     16 S16         1.7737  -21.1079  -49.5748 S.3       23 UNK        -0.2404 
     17 C17        -0.0491  -21.2189  -49.5586 C.3       23 UNK        -0.0398 
     18 CA         -0.6642  -20.7414  -48.2145 C.3       11 UNK         0.1400 
     19 N          -0.3275  -19.3501  -47.8770 N.am      11 UNK        -0.5000 
     20 C          -0.6933  -18.2437  -48.5408 C.2       10 UNK         0.5000 
     21 O          -1.4366  -18.2608  -49.5225 O.2       10 UNK        -0.5000 
     22 CA         -0.1941  -16.8869  -47.9998 C.3       10 UNK         0.1400 
     23 CB         -1.3831  -15.9639  -47.6874 C.3       10 UNK        -0.1800 
     24 N           0.6185  -17.0178  -46.7877 N.am      10 UNK        -0.5000 
     25 C           1.9521  -17.1377  -46.7605 C.2       9 UNK         0.5000 
     26 O           2.6671  -17.0897  -47.7599 O.2       9 UNK        -0.5000 
     27 CA          2.6025  -17.3753  -45.3820 C.3       9 UNK         0.1400 
     28 CB          2.9456  -16.0425  -44.7029 C.3       9 UNK        -0.1800 
     29 N           1.7834  -18.1813  -44.4728 N.am      9 UNK        -0.5000 
     30 C           1.4401  -19.4608  -44.6809 C.2       8 UNK         0.5000 
     31 O           1.7601  -20.1038  -45.6796 O.2       8 UNK        -0.5000 
     32 CA          0.5425  -20.1145  -43.6184 C.3       8 UNK         0.1400 
     33 CB          1.3618  -20.5877  -42.4083 C.3       8 UNK        -0.1800 
     34 N          -0.5084  -19.1951  -43.1850 N.am      8 UNK        -0.5000 
     35 C          -1.6051  -18.9370  -43.9097 C.2       7 UNK         0.5000 
     36 O          -1.8694  -19.5159  -44.9610 O.2       7 UNK        -0.5000 
     37 CA         -2.5625  -17.8469  -43.3970 C.3       7 UNK         0.1400 
     38 CB         -3.6499  -18.4655  -42.5071 C.3       7 UNK        -0.1800 
     39 N          -1.8791  -16.7789  -42.6679 N.am      7 UNK        -0.5000 
     40 C          -1.0156  -15.9190  -43.2262 C.2       6 UNK         0.5000 
     41 O          -0.7289  -15.9196  -44.4222 O.2       6 UNK        -0.5000 
     42 CA         -0.3103  -14.9326  -42.2777 C.3       6 UNK         0.1400 
     43 CB         -1.1507  -13.6582  -42.1115 C.3       6 UNK        -0.1800 
     44 N          -0.0031  -15.4959  -40.9581 N.am      6 UNK        -0.5000 
     45 C           0.7520  -16.5824  -40.7440 C.2       5 UNK         0.5000 
     46 O           1.2482  -17.2494  -41.6541 O.2       5 UNK        -0.5000 
     47 CA          1.0224  -16.9458  -39.2732 C.3       5 UNK         0.1400 
     48 CB          1.7321  -18.3031  -39.1211 C.3       5 UNK        -0.1800 
     49 N           1.8632  -15.9033  -38.6947 N.am      5 UNK        -0.5000 
     50 C           1.4413  -14.8986  -37.9154 C.2       4 UNK         0.5000 
     51 O           0.3009  -14.8131  -37.4593 O.2       4 UNK        -0.5000 
     52 CA          2.4577  -13.7639  -37.6647 C.3       4 UNK         0.1400 
     53 CB          3.3307  -14.0755  -36.4397 C.3       4 UNK        -0.1800 
     54 N           3.3182  -13.5259  -38.8305 N.am      4 UNK        -0.5000 
     55 C           2.8647  -13.1012  -40.0183 C.2       3 UNK         0.5000 
     56 O           1.7059  -12.7180  -40.2042 O.2       3 UNK        -0.5000 
     57 CA          3.8415  -13.1694  -41.2041 C.3       3 UNK         0.1400 
     58 CB          4.4539  -14.5808  -41.3471 C.3       3 UNK        -0.1800 
     59 N           3.0922  -12.8241  -42.4074 N.am      3 UNK        -0.5000 
     60 C           3.5942  -12.5514  -43.6123 C.2       2 UNK         0.5000 
     61 O           4.8014  -12.5084  -43.8660 O.2       2 UNK        -0.5000 
     62 CA          2.5676  -12.2817  -44.7206 C.3       2 UNK         0.1400 
     63 CB          2.0789  -10.8246  -44.6898 C.3       2 UNK        -0.1800 
     64 N           3.1970  -12.5564  -46.0053 N.am      2 UNK        -0.5000 
     65 C           2.6091  -13.1219  -47.0649 C.2       1 UNK         0.5000 
     66 O           1.4211  -13.4453  -47.0921 O.2       1 UNK        -0.5000 
     67 C          -2.1769  -21.0634  -48.1282 C.2       11 UNK         0.5000 
     68 O          -2.5994  -22.1165  -48.6006 O.2       11 UNK        -0.5000 
     69 N          -2.9677  -20.1895  -47.4927 N.am      12 UNK        -0.5000 
     70 CA         -4.4028  -20.3487  -47.2576 C.3       12 UNK         0.1400 
     71 CB         -4.9853  -18.9995  -46.8122 C.3       12 UNK        -0.1800 
     72 C          -4.7207  -21.4442  -46.2233 C.2       12 UNK         0.5000 
     73 O          -5.7729  -22.0766  -46.3118 O.2       12 UNK        -0.5000 
     74 N          -3.7958  -21.6676  -45.2790 N.am      13 UNK        -0.5000 
     75 CA         -3.8788  -22.6939  -44.2356 C.3       13 UNK         0.1400 
     76 CB         -2.7620  -22.4491  -43.2087 C.3       13 UNK        -0.1800 
     77 C          -3.8081  -24.1410  -44.7681 C.2       13 UNK         0.5000 
     78 O          -4.2131  -25.0634  -44.0596 O.2       13 UNK        -0.5000 
     79 N          -3.3013  -24.3172  -45.9937 N.am      14 UNK        -0.5000 
     80 CA         -3.1812  -25.5944  -46.6893 C.3       14 UNK         0.1400 
     81 CB         -1.8044  -26.2184  -46.3912 C.3       14 UNK        -0.1800 
     82 C          -3.4359  -25.3566  -48.1855 C.2       14 UNK         0.5000 
     83 O          -2.5960  -25.6971  -49.0183 O.2       14 UNK        -0.5000 
     84 N          -4.5822  -24.7267  -48.4855 N.am      15 UNK        -0.5000 
     85 CA         -4.9511  -24.2048  -49.8048 C.3       15 UNK         0.1400 
     86 CB         -6.2756  -23.4354  -49.6876 C.3       15 UNK        -0.1800 
     87 C          -5.0539  -25.2485  -50.9282 C.2       15 UNK         0.5000 
     88 O          -4.8676  -24.8824  -52.0907 O.2       15 UNK        -0.5000 
     89 N          -5.3649  -26.5039  -50.5720 N.am      16 UNK        -0.5000 
     90 CA         -5.4873  -27.6647  -51.4630 C.3       16 UNK         0.1400 
     91 CB         -4.1015  -28.0549  -52.0203 C.3       16 UNK        -0.1800 
     92 C          -6.5452  -27.4512  -52.5669 C.2       16 UNK         0.5000 
     93 O          -6.2689  -27.6810  -53.7438 O.2       16 UNK        -0.5000 
     94 N          -7.7262  -26.9618  -52.1570 N.am      17 UNK        -0.5000 
     95 CA         -8.8515  -26.5485  -53.0087 C.3       17 UNK         0.1400 
     96 CB         -9.4517  -27.7523  -53.7660 C.3       17 UNK        -0.1800 
     97 C          -8.4898  -25.3634  -53.9325 C.2       17 UNK         0.5000 
     98 O          -8.9044  -25.3259  -55.0922 O.2       17 UNK        -0.5000 
     99 N          -7.7127  -24.4200  -53.3793 N.am      18 UNK        -0.5000 
    100 CA        -7.1711  -23.2135  -54.0147 C.3       18 UNK         0.1400 
    101 CB        -8.2978  -22.2423  -54.4240 C.3       18 UNK        -0.1800 
    102 C         -6.1752  -23.5139  -55.1551 C.2       18 UNK         0.5000 
    103 O         -6.1052  -22.7618  -56.1285 O.2       18 UNK        -0.5000 
    104 N         -5.4118  -24.6036  -55.0052 N.am      19 UNK        -0.5000 
    105 CA        -4.2961  -24.9559  -55.8809 C.3       19 UNK         0.1400 
    106 CB        -4.1999  -26.4835  -56.0048 C.3       19 UNK        -0.1800 
    107 C         -2.9741  -24.3749  -55.3515 C.2       19 UNK         0.5000 
    108 O         -2.1436  -23.9429  -56.1519 O.2       19 UNK        -0.5000 
    109 N         -2.7993  -24.3749  -54.0220 N.am      20 UNK        -0.5000 
    110 CA        -1.6210  -23.8318  -53.3468 C.3       20 UNK         0.1400 
    111 CB        -1.3150  -24.6715  -52.0987 C.3       20 UNK        -0.1800 
    112 C         -1.8224  -22.3579  -52.9637 C.2       20 UNK         0.5000 
    113 O         -0.8764  -21.5769  -53.0564 O.2       20 UNK        -0.5000 
    114 N         -3.0450  -21.9997  -52.5489 N.am      21 UNK        -0.5000 
    115 CA        -3.4336  -20.6210  -52.2542 C.3       21 UNK         0.1400 
    116 CB        -4.6896  -20.6255  -51.3718 C.3       21 UNK        -0.1800 
    117 C         -3.6848  -19.8294  -53.5498 C.2       21 UNK         0.5000 
    118 O         -4.0589  -20.4148  -54.5683 O.2       21 UNK        -0.5000 
    119 N         -3.5014  -18.5079  -53.4741 N.am      22 UNK        -0.5000 
    120 CA        -3.6589  -17.5758  -54.6059 C.3       22 UNK         0.1400 
    121 C         -5.1332  -17.1785  -54.9160 C.2       22 UNK         0.5000 
    122 N         -6.1147  -17.5599  -54.1074 N.am      22 UNK        -0.7600 
    123 O         -5.3934  -16.5156  -55.9165 O.2       22 UNK        -0.5000 
    124 C124       -2.7676  -16.3164  -54.4415 C.3       23 UNK        -0.0398 
    125 S125       -0.9942  -16.7239  -54.2863 S.3       23 UNK        -0.2404 
    126 C126       -0.7719  -16.5563  -52.4899 C.3       23 UNK        -0.0205 
    127 H127        6.2362  -10.4567  -48.8397 H         1 UNK         0.0600 
    128 H128        5.1679   -9.1678  -48.2780 H         1 UNK         0.0600 
    129 H129        5.2469   -9.5643  -49.9981 H         1 UNK         0.0600 
    130 H130        5.4281  -12.4708  -48.4182 H         1 UNK         0.3000 
    131 H131        4.1421  -14.2099  -48.0256 H         1 UNK         0.0600 
    132 H132        2.0123  -12.9825  -49.8383 H         1 UNK         0.0800 
    133 H133        2.1198  -14.6538  -49.3572 H         1 UNK         0.0800 
    134 H134        4.3468  -16.1373  -49.8531 H         1 UNK         0.0800 
    135 H135        4.8674  -16.1725  -51.5194 H         1 UNK         0.0800 
    136 H136        1.4816  -15.2045  -51.8450 H         1 UNK         0.1150 
    137 H137       -0.0933  -19.1618  -52.1477 H         1 UNK         0.1150 
    138 H138        3.9017  -18.5713  -50.7210 H         1 UNK         0.1150 
    139 H139        1.4731  -21.0708  -51.9756 H         1 UNK         0.0800 
    140 H140        3.1331  -20.7988  -51.5300 H         1 UNK         0.0800 
    141 H141       -0.3020  -22.2624  -49.7541 H         1 UNK         0.0800 
    142 H142       -0.4676  -20.6506  -50.3884 H         1 UNK         0.0800 
    143 H143       -0.2116  -21.3410  -47.4236 H         1 UNK         0.0600 
    144 H144        0.2978  -19.2436  -47.0884 H         1 UNK         0.3000 
    145 H145        0.3982  -16.4224  -48.7907 H         1 UNK         0.0600 
    146 H146       -1.0419  -14.9958  -47.3195 H         1 UNK         0.0600 
    147 H147       -2.0391  -16.3967  -46.9309 H         1 UNK         0.0600 
    148 H148       -1.9835  -15.7783  -48.5788 H         1 UNK         0.0600 
    149 H149        0.1209  -16.9620  -45.9044 H         1 UNK         0.3000 
    150 H150        3.5348  -17.9187  -45.5493 H         1 UNK         0.0600 
    151 H151        3.6408  -15.4639  -45.3115 H         1 UNK         0.0600 
    152 H152        3.4183  -16.2025  -43.7343 H         1 UNK         0.0600 
    153 H153        2.0557  -15.4332  -44.5477 H         1 UNK         0.0600 
    154 H154        1.4951  -17.7418  -43.6047 H         1 UNK         0.3000 
    155 H155        0.0786  -20.9945  -44.0687 H         1 UNK         0.0600 
    156 H156        2.0974  -21.3348  -42.7086 H         1 UNK         0.0600 
    157 H157        0.7222  -21.0461  -41.6540 H         1 UNK         0.0600 
    158 H158        1.9053  -19.7697  -41.9361 H         1 UNK         0.0600 
    159 H159       -0.3129  -18.6361  -42.3657 H         1 UNK         0.3000 
    160 H160       -3.0473  -17.4013  -44.2681 H         1 UNK         0.0600 
    161 H161       -3.2274  -18.9198  -41.6101 H         1 UNK         0.0600 
    162 H162       -4.1969  -19.2426  -43.0433 H         1 UNK         0.0600 
    163 H163       -4.3773  -17.7161  -42.1946 H         1 UNK         0.0600 
    164 H164       -2.0550  -16.7124  -41.6762 H         1 UNK         0.3000 
    165 H165        0.6382  -14.6562  -42.7408 H         1 UNK         0.0600 
    166 H166       -0.6269  -12.9101  -41.5172 H         1 UNK         0.0600 
    167 H167       -1.3688  -13.2055  -43.0798 H         1 UNK         0.0600 
    168 H168       -2.1037  -13.8655  -41.6233 H         1 UNK         0.0600 
    169 H169       -0.3420  -14.9793  -40.1584 H         1 UNK         0.3000 
    170 H170        0.0618  -17.0043  -38.7574 H         1 UNK         0.0600 
    171 H171        2.6978  -18.3166  -39.6282 H         1 UNK         0.0600 
    172 H172        1.9037  -18.5402  -38.0710 H         1 UNK         0.0600 
    173 H173        1.1277  -19.1082  -39.5407 H         1 UNK         0.0600 
    174 H174        2.8120  -15.8658  -39.0367 H         1 UNK         0.3000 
    175 H175        1.8953  -12.8498  -37.4627 H         1 UNK         0.0600 
    176 H176        3.9326  -14.9726  -36.5898 H         1 UNK         0.0600 
    177 H177        4.0070  -13.2499  -36.2174 H         1 UNK         0.0600 
    178 H178        2.7151  -14.2375  -35.5539 H         1 UNK         0.0600 
    179 H179        4.2865  -13.7979  -38.7402 H         1 UNK         0.3000 
    180 H180        4.6301  -12.4312  -41.0462 H         1 UNK         0.0600 
    181 H181        3.6804  -15.3438  -41.4433 H         1 UNK         0.0600 
    182 H182        5.0682  -14.8401  -40.4848 H         1 UNK         0.0600 
    183 H183        5.1001  -14.6534  -42.2216 H         1 UNK         0.0600 
    184 H184        2.0959  -12.7520  -42.2384 H         1 UNK         0.3000 
    185 H185        1.7180  -12.9516  -44.5710 H         1 UNK         0.0600 
    186 H186        2.9024  -10.1221  -44.8243 H         1 UNK         0.0600 
    187 H187        1.3495  -10.6386  -45.4784 H         1 UNK         0.0600 
    188 H188        1.5971  -10.5916  -43.7395 H         1 UNK         0.0600 
    189 H189        4.1896  -12.3615  -46.0332 H         1 UNK         0.3000 
    190 H190       -2.5202  -19.4062  -47.0354 H         1 UNK         0.3000 
    191 H191       -4.8761  -20.6319  -48.1984 H         1 UNK         0.0600 
    192 H192       -4.8084  -18.2276  -47.5617 H         1 UNK         0.0600 
    193 H193       -4.5464  -18.6624  -45.8728 H         1 UNK         0.0600 
    194 H194       -6.0638  -19.0694  -46.6650 H         1 UNK         0.0600 
    195 H195       -2.9815  -21.0599  -45.2620 H         1 UNK         0.3000 
    196 H196       -4.8398  -22.5812  -43.7296 H         1 UNK         0.0600 
    197 H197       -2.8559  -21.4669  -42.7469 H         1 UNK         0.0600 
    198 H198       -1.7753  -22.5141  -43.6676 H         1 UNK         0.0600 
    199 H199       -2.7990  -23.1860  -42.4053 H         1 UNK         0.0600 
    200 H200       -3.0298  -23.5023  -46.5286 H         1 UNK         0.3000 
    201 H201       -3.9560  -26.2823  -46.3446 H         1 UNK         0.0600 
    202 H202       -1.6760  -26.3982  -45.3238 H         1 UNK         0.0600 
    203 H203       -0.9911  -25.5713  -46.7220 H         1 UNK         0.0600 
    204 H204       -1.6913  -27.1777  -46.8976 H         1 UNK         0.0600 
    205 H205       -5.1940  -24.4711  -47.7231 H         1 UNK         0.3000 
    206 H206       -4.1718  -23.5052  -50.1075 H         1 UNK         0.0600 
    207 H207       -6.1852  -22.5980  -48.9967 H         1 UNK         0.0600 
    208 H208       -6.5827  -23.0243  -50.6496 H         1 UNK         0.0600 
    209 H209       -7.0831  -24.0763  -49.3316 H         1 UNK         0.0600 
    210 H210       -5.5063  -26.6865  -49.5887 H         1 UNK         0.3000 
    211 H211       -5.8438  -28.4955  -50.8526 H         1 UNK         0.0600 
    212 H212       -3.6810  -27.2726  -52.6522 H         1 UNK         0.0600 
    213 H213       -4.1604  -28.9645  -52.6190 H         1 UNK         0.0600 
    214 H214       -3.3939  -28.2429  -51.2128 H         1 UNK         0.0600 
    215 H215       -7.8498  -26.8066  -51.1661 H         1 UNK         0.3000 
    216 H216       -9.6226  -26.1753  -52.3331 H         1 UNK         0.0600 
    217 H217      -10.3731  -27.4707  -54.2768 H         1 UNK         0.0600 
    218 H218       -9.6964  -28.5657  -53.0830 H         1 UNK         0.0600 
    219 H219       -8.7683  -28.1417  -54.5210 H         1 UNK         0.0600 
    220 H220       -7.4009  -24.5821  -52.4335 H         1 UNK         0.3000 
    221 H221       -6.5829  -22.7146  -53.2447 H         1 UNK         0.0600 
    222 H222       -8.8956  -22.6368  -55.2459 H         1 UNK         0.0600 
    223 H223       -8.9669  -22.0396  -53.5879 H         1 UNK         0.0600 
    224 H224       -7.8881  -21.2850  -54.7489 H         1 UNK         0.0600 
    225 H225       -5.5320  -25.1632  -54.1701 H         1 UNK         0.3000 
    226 H226       -4.4672  -24.5517  -56.8809 H         1 UNK         0.0600 
    227 H227       -5.1328  -26.9082  -56.3760 H         1 UNK         0.0600 
    228 H228       -3.4107  -26.7687  -56.7015 H         1 UNK         0.0600 
    229 H229       -3.9766  -26.9542  -55.0474 H         1 UNK         0.0600 
    230 H230       -3.5436  -24.7210  -53.4236 H         1 UNK         0.3000 
    231 H231       -0.7545  -23.8931  -54.0088 H         1 UNK         0.0600 
    232 H232       -0.4059  -24.3232  -51.6071 H         1 UNK         0.0600 
    233 H233       -1.1690  -25.7216  -52.3519 H         1 UNK         0.0600 
    234 H234       -2.1216  -24.6121  -51.3694 H         1 UNK         0.0600 
    235 H235       -3.7770  -22.6938  -52.5507 H         1 UNK         0.3000 
    236 H236       -2.6260  -20.1394  -51.6976 H         1 UNK         0.0600 
    237 H237       -4.5145  -21.1796  -50.4519 H         1 UNK         0.0600 
    238 H238       -4.9708  -19.6116  -51.0851 H         1 UNK         0.0600 
    239 H239       -5.5431  -21.0721  -51.8811 H         1 UNK         0.0600 
    240 H240       -3.2212  -18.0975  -52.5963 H         1 UNK         0.3000 
    241 H241       -3.3100  -18.0912  -55.5032 H         1 UNK         0.0600 
    242 H242       -7.0639  -17.2986  -54.3235 H         1 UNK         0.3800 
    243 H243       -5.9199  -18.1087  -53.2865 H         1 UNK         0.3800 
    244 H244       -3.0900  -15.7248  -53.5830 H         1 UNK         0.0800 
    245 H245       -2.8700  -15.6637  -55.3104 H         1 UNK         0.0800 
    246 H246       -1.5725  -17.0772  -51.9651 H         1 UNK         0.0800 
    247 H247       -0.8589  -15.5046  -52.2126 H         1 UNK         0.0800 
@<TRIPOS>BOND
     1    1    2 1    
     2    1  127 1    
     3    1  128 1    
     4    1  129 1    
     5    2    3 2    
     6    2    4 am   BACKBONE|DICT|INTERRES
     7    4    5 1    
     8    4  130 1    
     9    5    6 1    
    10    5   65 1    
    11    5  131 1    
    12    6    7 1    
    13    6  132 1    
    14    6  133 1    
    15    7    8 1    
    16    8    9 1    
    17    8  134 1    
    18    8  135 1    
    19    9   10 ar   
    20    9   14 ar   
    21   10   11 ar   
    22   10  136 1    
    23   11   12 ar   
    24   11  126 1    
    25   12   13 ar   
    26   12  137 1    
    27   13   14 ar   
    28   13   15 1    
    29   14  138 1    
    30   15   16 1    
    31   15  139 1    
    32   15  140 1    
    33   16   17 1    
    34   17   18 1    
    35   17  141 1    
    36   17  142 1    
    37   18   19 1    
    38   18   67 1    
    39   18  143 1    
    40   19   20 am   BACKBONE|DICT|INTERRES
    41   19  144 1    
    42   20   21 2    
    43   20   22 1    
    44   22   23 1    
    45   22   24 1    
    46   22  145 1    
    47   23  146 1    
    48   23  147 1    
    49   23  148 1    
    50   24   25 am   BACKBONE|DICT|INTERRES
    51   24  149 1    
    52   25   26 2    
    53   25   27 1    
    54   27   28 1    
    55   27   29 1    
    56   27  150 1    
    57   28  151 1    
    58   28  152 1    
    59   28  153 1    
    60   29   30 am   BACKBONE|DICT|INTERRES
    61   29  154 1    
    62   30   31 2    
    63   30   32 1    
    64   32   33 1    
    65   32   34 1    
    66   32  155 1    
    67   33  156 1    
    68   33  157 1    
    69   33  158 1    
    70   34   35 am   BACKBONE|DICT|INTERRES
    71   34  159 1    
    72   35   36 2    
    73   35   37 1    
    74   37   38 1    
    75   37   39 1    
    76   37  160 1    
    77   38  161 1    
    78   38  162 1    
    79   38  163 1    
    80   39   40 am   BACKBONE|DICT|INTERRES
    81   39  164 1    
    82   40   41 2    
    83   40   42 1    
    84   42   43 1    
    85   42   44 1    
    86   42  165 1    
    87   43  166 1    
    88   43  167 1    
    89   43  168 1    
    90   44   45 am   BACKBONE|DICT|INTERRES
    91   44  169 1    
    92   45   46 2    
    93   45   47 1    
    94   47   48 1    
    95   47   49 1    
    96   47  170 1    
    97   48  171 1    
    98   48  172 1    
    99   48  173 1    
   100   49   50 am   BACKBONE|DICT|INTERRES
   101   49  174 1    
   102   50   51 2    
   103   50   52 1    
   104   52   53 1    
   105   52   54 1    
   106   52  175 1    
   107   53  176 1    
   108   53  177 1    
   109   53  178 1    
   110   54   55 am   BACKBONE|DICT|INTERRES
   111   54  179 1    
   112   55   56 2    
   113   55   57 1    
   114   57   58 1    
   115   57   59 1    
   116   57  180 1    
   117   58  181 1    
   118   58  182 1    
   119   58  183 1    
   120   59   60 am   BACKBONE|DICT|INTERRES
   121   59  184 1    
   122   60   61 2    
   123   60   62 1    
   124   62   63 1    
   125   62   64 1    
   126   62  185 1    
   127   63  186 1    
   128   63  187 1    
   129   63  188 1    
   130   64   65 am   BACKBONE|DICT|INTERRES
   131   64  189 1    
   132   65   66 2    
   133   67   68 2    
   134   67   69 am   BACKBONE|DICT|INTERRES
   135   69   70 1    
   136   69  190 1    
   137   70   71 1    
   138   70   72 1    
   139   70  191 1    
   140   71  192 1    
   141   71  193 1    
   142   71  194 1    
   143   72   73 2    
   144   72   74 am   BACKBONE|DICT|INTERRES
   145   74   75 1    
   146   74  195 1    
   147   75   76 1    
   148   75   77 1    
   149   75  196 1    
   150   76  197 1    
   151   76  198 1    
   152   76  199 1    
   153   77   78 2    
   154   77   79 am   BACKBONE|DICT|INTERRES
   155   79   80 1    
   156   79  200 1    
   157   80   81 1    
   158   80   82 1    
   159   80  201 1    
   160   81  202 1    
   161   81  203 1    
   162   81  204 1    
   163   82   83 2    
   164   82   84 am   BACKBONE|DICT|INTERRES
   165   84   85 1    
   166   84  205 1    
   167   85   86 1    
   168   85   87 1    
   169   85  206 1    
   170   86  207 1    
   171   86  208 1    
   172   86  209 1    
   173   87   88 2    
   174   87   89 am   BACKBONE|DICT|INTERRES
   175   89   90 1    
   176   89  210 1    
   177   90   91 1    
   178   90   92 1    
   179   90  211 1    
   180   91  212 1    
   181   91  213 1    
   182   91  214 1    
   183   92   93 2    
   184   92   94 am   BACKBONE|DICT|INTERRES
   185   94   95 1    
   186   94  215 1    
   187   95   96 1    
   188   95   97 1    
   189   95  216 1    
   190   96  217 1    
   191   96  218 1    
   192   96  219 1    
   193   97   98 2    
   194   97   99 am   BACKBONE|DICT|INTERRES
   195   99  100 1    
   196   99  220 1    
   197  100  101 1    
   198  100  102 1    
   199  100  221 1    
   200  101  222 1    
   201  101  223 1    
   202  101  224 1    
   203  102  103 2    
   204  102  104 am   BACKBONE|DICT|INTERRES
   205  104  105 1    
   206  104  225 1    
   207  105  106 1    
   208  105  107 1    
   209  105  226 1    
   210  106  227 1    
   211  106  228 1    
   212  106  229 1    
   213  107  108 2    
   214  107  109 am   BACKBONE|DICT|INTERRES
   215  109  110 1    
   216  109  230 1    
   217  110  111 1    
   218  110  112 1    
   219  110  231 1    
   220  111  232 1    
   221  111  233 1    
   222  111  234 1    
   223  112  113 2    
   224  112  114 am   BACKBONE|DICT|INTERRES
   225  114  115 1    
   226  114  235 1    
   227  115  116 1    
   228  115  117 1    
   229  115  236 1    
   230  116  237 1    
   231  116  238 1    
   232  116  239 1    
   233  117  118 2    
   234  117  119 am   BACKBONE|DICT|INTERRES
   235  119  120 1    
   236  119  240 1    
   237  120  121 1    
   238  120  124 1    
   239  120  241 1    
   240  121  122 am   BACKBONE|DICT|INTERRES
   241  121  123 2    
   242  122  242 1    
   243  122  243 1    
   244  124  125 1    
   245  124  244 1    
   246  124  245 1    
   247  125  126 1    
   248  126  246 1    
   249  126  247 1    
@<TRIPOS>SUBSTRUCTURE
     1 UNK         1 GROUP             0       ****    0 ROOT    
