@<TRIPOS>MOLECULE
3R540
247   249    1
SMALL
USER_CHARGES


@<TRIPOS>ATOM
      1 CA          9.1447  -12.1949  -48.0743 C.3       0 UNK        -0.1800 
      2 C           7.6349  -12.1406  -47.8851 C.2       0 UNK         0.5000 
      3 O           7.0461  -11.0678  -48.0135 O.2       0 UNK        -0.5000 
      4 N           7.0199  -13.2960  -47.5960 N.am      1 UNK        -0.5000 
      5 CA          5.5958  -13.4976  -47.3056 C.3       1 UNK         0.1400 
      6 C6          4.6452  -12.9902  -48.4283 C.3       23 UNK        -0.0398 
      7 S7          3.2055  -14.0882  -48.6600 S.3       23 UNK        -0.2404 
      8 C8          3.7466  -15.0037  -50.1380 C.3       23 UNK        -0.0205 
      9 C9          2.7712  -16.1010  -50.5365 C.ar      23 UNK        -0.0193 
     10 C10         1.4839  -15.7730  -50.9699 C.ar      23 UNK        -0.1150 
     11 C11         0.5963  -16.7706  -51.3814 C.ar      23 UNK        -0.0193 
     12 C12         1.0114  -18.1051  -51.3783 C.ar      23 UNK        -0.1150 
     13 C13         2.2977  -18.4472  -50.9510 C.ar      23 UNK        -0.0193 
     14 C14         3.1689  -17.4416  -50.5205 C.ar      23 UNK        -0.1150 
     15 C15         2.7631  -19.8958  -50.9906 C.3       23 UNK        -0.0205 
     16 S16         2.4593  -20.7612  -49.4196 S.3       23 UNK        -0.2404 
     17 C17         0.6658  -21.0668  -49.5267 C.3       23 UNK        -0.0398 
     18 CA          0.1922  -22.1282  -48.5065 C.3       11 UNK         0.1400 
     19 N           0.2421  -21.6434  -47.1231 N.am      11 UNK        -0.5000 
     20 C          -0.0004  -22.3927  -46.0379 C.2       10 UNK         0.5000 
     21 O          -0.2304  -23.6014  -46.0784 O.2       10 UNK        -0.5000 
     22 CA         -0.0485  -21.6643  -44.6822 C.3       10 UNK         0.1400 
     23 CB          1.3652  -21.4213  -44.1333 C.3       10 UNK        -0.1800 
     24 N          -0.7859  -20.4012  -44.7483 N.am      10 UNK        -0.5000 
     25 C          -2.0955  -20.3052  -45.0210 C.2       9 UNK         0.5000 
     26 O          -2.8279  -21.2785  -45.1923 O.2       9 UNK        -0.5000 
     27 CA         -2.6826  -18.8902  -45.1727 C.3       9 UNK         0.1400 
     28 CB         -2.9915  -18.2733  -43.8009 C.3       9 UNK        -0.1800 
     29 N          -1.8096  -17.9963  -45.9322 N.am      9 UNK        -0.5000 
     30 C          -1.4682  -18.1779  -47.2161 C.2       8 UNK         0.5000 
     31 O          -1.9058  -19.0890  -47.9178 O.2       8 UNK        -0.5000 
     32 CA         -0.4191  -17.2119  -47.7948 C.3       8 UNK         0.1400 
     33 CB         -1.0686  -15.8878  -48.2208 C.3       8 UNK        -0.1800 
     34 N           0.6732  -16.9481  -46.8565 N.am      8 UNK        -0.5000 
     35 C           1.5292  -17.8830  -46.4198 C.2       7 UNK         0.5000 
     36 O           1.4952  -19.0587  -46.7749 O.2       7 UNK        -0.5000 
     37 CA          2.5486  -17.4492  -45.3527 C.3       7 UNK         0.1400 
     38 CB          3.7425  -16.7243  -45.9848 C.3       7 UNK        -0.1800 
     39 N           1.9429  -16.6035  -44.3243 N.am      7 UNK        -0.5000 
     40 C           1.0229  -17.0378  -43.4513 C.2       6 UNK         0.5000 
     41 O           0.6391  -18.2049  -43.3838 O.2       6 UNK        -0.5000 
     42 CA          0.3903  -15.9787  -42.5366 C.3       6 UNK         0.1400 
     43 CB          1.2607  -15.7392  -41.2941 C.3       6 UNK        -0.1800 
     44 N           0.1778  -14.7095  -43.2278 N.am      6 UNK        -0.5000 
     45 C          -0.7042  -14.5018  -44.2144 C.2       5 UNK         0.5000 
     46 O          -1.4209  -15.3897  -44.6773 O.2       5 UNK        -0.5000 
     47 CA         -0.7738  -13.0658  -44.7820 C.3       5 UNK         0.1400 
     48 CB         -2.1190  -12.7562  -45.4721 C.3       5 UNK        -0.1800 
     49 N          -0.4468  -12.0366  -43.7843 N.am      5 UNK        -0.5000 
     50 C          -1.1066  -11.7854  -42.6426 C.2       4 UNK         0.5000 
     51 O          -2.1354  -12.3673  -42.2946 O.2       4 UNK        -0.5000 
     52 CA         -0.4516  -10.7693  -41.6926 C.3       4 UNK         0.1400 
     53 CB         -1.4905  -10.0296  -40.8316 C.3       4 UNK        -0.1800 
     54 N           0.4515  -11.5029  -40.8053 N.am      4 UNK        -0.5000 
     55 C           1.7687  -11.7104  -40.9380 C.2       3 UNK         0.5000 
     56 O           2.3787  -12.4319  -40.1482 O.2       3 UNK        -0.5000 
     57 CA          2.5566  -10.9986  -42.0614 C.3       3 UNK         0.1400 
     58 CB          3.0000   -9.6005  -41.6020 C.3       3 UNK        -0.1800 
     59 N           3.7402  -11.7585  -42.4547 N.am      3 UNK        -0.5000 
     60 C           3.7199  -12.8645  -43.2067 C.2       2 UNK         0.5000 
     61 O           2.6926  -13.3691  -43.6686 O.2       2 UNK        -0.5000 
     62 CA          5.0850  -13.5235  -43.4788 C.3       2 UNK         0.1400 
     63 CB          5.2148  -14.8227  -42.6685 C.3       2 UNK        -0.1800 
     64 N           5.3145  -13.8206  -44.8952 N.am      2 UNK        -0.5000 
     65 C           5.2499  -12.9416  -45.9064 C.2       1 UNK         0.5000 
     66 O           4.9889  -11.7460  -45.7591 O.2       1 UNK        -0.5000 
     67 C          -1.2084  -22.6573  -48.8743 C.2       11 UNK         0.5000 
     68 O          -1.3109  -23.7616  -49.4101 O.2       11 UNK        -0.5000 
     69 N          -2.2579  -21.8943  -48.5350 N.am      12 UNK        -0.5000 
     70 CA         -3.6542  -22.2859  -48.7224 C.3       12 UNK         0.1400 
     71 CB         -4.5826  -21.1234  -48.3435 C.3       12 UNK        -0.1800 
     72 C          -4.0216  -23.5513  -47.9296 C.2       12 UNK         0.5000 
     73 O          -4.6380  -24.4533  -48.4927 O.2       12 UNK        -0.5000 
     74 N          -3.6087  -23.6174  -46.6557 N.am      13 UNK        -0.5000 
     75 CA         -3.8168  -24.7645  -45.7702 C.3       13 UNK         0.1400 
     76 CB         -3.3591  -24.4148  -44.3467 C.3       13 UNK        -0.1800 
     77 C          -3.1227  -26.0442  -46.2691 C.2       13 UNK         0.5000 
     78 O          -3.7376  -27.1107  -46.2456 O.2       13 UNK        -0.5000 
     79 N          -1.8822  -25.9141  -46.7614 N.am      14 UNK        -0.5000 
     80 CA         -1.1117  -26.9998  -47.3760 C.3       14 UNK         0.1400 
     81 CB          0.3212  -26.5181  -47.6486 C.3       14 UNK        -0.1800 
     82 C          -1.7575  -27.5469  -48.6651 C.2       14 UNK         0.5000 
     83 O          -1.6622  -28.7446  -48.9342 O.2       14 UNK        -0.5000 
     84 N          -2.4357  -26.6675  -49.4119 N.am      15 UNK        -0.5000 
     85 CA         -3.2216  -26.9863  -50.6038 C.3       15 UNK         0.1400 
     86 CB         -3.1588  -25.7802  -51.5518 C.3       15 UNK        -0.1800 
     87 C          -4.6846  -27.3684  -50.2851 C.2       15 UNK         0.5000 
     88 O          -5.4817  -27.5069  -51.2141 O.2       15 UNK        -0.5000 
     89 N          -5.0312  -27.5064  -48.9947 N.am      16 UNK        -0.5000 
     90 CA         -6.3528  -27.8558  -48.4555 C.3       16 UNK         0.1400 
     91 CB         -6.6970  -29.3214  -48.7922 C.3       16 UNK        -0.1800 
     92 C          -7.4728  -26.8715  -48.8632 C.2       16 UNK         0.5000 
     93 O          -8.6284  -27.2748  -49.0033 O.2       16 UNK        -0.5000 
     94 N          -7.0971  -25.6006  -49.0681 N.am      17 UNK        -0.5000 
     95 CA         -7.9044  -24.4704  -49.5378 C.3       17 UNK         0.1400 
     96 CB         -9.0151  -24.1295  -48.5236 C.3       17 UNK        -0.1800 
     97 C          -8.4446  -24.6200  -50.9779 C.2       17 UNK         0.5000 
     98 O          -9.2842  -23.8182  -51.3906 O.2       17 UNK        -0.5000 
     99 N          -7.9539  -25.6143  -51.7322 N.am      18 UNK        -0.5000 
    100 CA        -8.3467  -25.8690  -53.1198 C.3       18 UNK         0.1400 
    101 CB        -8.1253  -27.3568  -53.4338 C.3       18 UNK        -0.1800 
    102 C         -7.5809  -24.9874  -54.1245 C.2       18 UNK         0.5000 
    103 O         -8.0288  -24.8379  -55.2622 O.2       18 UNK        -0.5000 
    104 N         -6.4446  -24.4287  -53.6956 N.am      19 UNK        -0.5000 
    105 CA        -5.5375  -23.5905  -54.4695 C.3       19 UNK         0.1400 
    106 CB        -4.7340  -24.4646  -55.4564 C.3       19 UNK        -0.1800 
    107 C         -4.6154  -22.8406  -53.4928 C.2       19 UNK         0.5000 
    108 O         -4.7846  -22.9598  -52.2771 O.2       19 UNK        -0.5000 
    109 N         -3.6503  -22.0929  -54.0473 N.am      20 UNK        -0.5000 
    110 CA        -2.5100  -21.4587  -53.3681 C.3       20 UNK         0.1400 
    111 CB        -1.5897  -22.5324  -52.7559 C.3       20 UNK        -0.1800 
    112 C         -2.8670  -20.3514  -52.3521 C.2       20 UNK         0.5000 
    113 O         -2.0050  -19.9439  -51.5745 O.2       20 UNK        -0.5000 
    114 N         -4.1098  -19.8564  -52.3981 N.am      21 UNK        -0.5000 
    115 CA        -4.5988  -18.7492  -51.5737 C.3       21 UNK         0.1400 
    116 CB        -6.1005  -18.9555  -51.3198 C.3       21 UNK        -0.1800 
    117 C         -4.3323  -17.3683  -52.2052 C.2       21 UNK         0.5000 
    118 O         -4.4960  -16.3575  -51.5208 O.2       21 UNK        -0.5000 
    119 N         -3.9203  -17.3506  -53.4815 N.am      22 UNK        -0.5000 
    120 CA        -3.6652  -16.1597  -54.3112 C.3       22 UNK         0.1400 
    121 C         -4.9574  -15.3447  -54.6393 C.2       22 UNK         0.5000 
    122 N         -4.8397  -14.1769  -55.2587 N.am      22 UNK        -0.7600 
    123 O         -6.0809  -15.7760  -54.3869 O.2       22 UNK        -0.5000 
    124 C124       -2.5043  -15.2751  -53.7670 C.3       23 UNK        -0.0398 
    125 S125       -0.9173  -16.1684  -53.6144 S.3       23 UNK        -0.2404 
    126 C126       -0.8124  -16.4022  -51.8140 C.3       23 UNK        -0.0205 
    127 H127        9.5355  -13.2043  -47.9436 H         1 UNK         0.0600 
    128 H128        9.4098  -11.8554  -49.0757 H         1 UNK         0.0600 
    129 H129        9.6368  -11.5441  -47.3515 H         1 UNK         0.0600 
    130 H130        7.5890  -14.1263  -47.5056 H         1 UNK         0.3000 
    131 H131        5.4953  -14.5830  -47.2581 H         1 UNK         0.0600 
    132 H132        4.2928  -11.9745  -48.2411 H         1 UNK         0.0800 
    133 H133        5.1811  -12.9295  -49.3763 H         1 UNK         0.0800 
    134 H134        3.8555  -14.3092  -50.9723 H         1 UNK         0.0800 
    135 H135        4.7368  -15.4231  -49.9525 H         1 UNK         0.0800 
    136 H136        1.1737  -14.7376  -50.9845 H         1 UNK         0.1150 
    137 H137        0.3329  -18.8770  -51.7114 H         1 UNK         0.1150 
    138 H138        4.1657  -17.7040  -50.1950 H         1 UNK         0.1150 
    139 H139        2.2793  -20.4298  -51.8099 H         1 UNK         0.0800 
    140 H140        3.8327  -19.9288  -51.2029 H         1 UNK         0.0800 
    141 H141        0.4480  -21.3921  -50.5440 H         1 UNK         0.0800 
    142 H142        0.1319  -20.1262  -49.3857 H         1 UNK         0.0800 
    143 H143        0.8710  -22.9816  -48.5699 H         1 UNK         0.0600 
    144 H144        0.4918  -20.6654  -46.9978 H         1 UNK         0.3000 
    145 H145       -0.5718  -22.3141  -43.9779 H         1 UNK         0.0600 
    146 H146        1.3302  -20.9701  -43.1416 H         1 UNK         0.0600 
    147 H147        1.9149  -22.3591  -44.0453 H         1 UNK         0.0600 
    148 H148        1.9440  -20.7621  -44.7797 H         1 UNK         0.0600 
    149 H149       -0.2566  -19.5541  -44.5685 H         1 UNK         0.3000 
    150 H150       -3.6219  -18.9789  -45.7223 H         1 UNK         0.0600 
    151 H151       -3.6720  -18.9082  -43.2324 H         1 UNK         0.0600 
    152 H152       -3.4665  -17.2976  -43.9055 H         1 UNK         0.0600 
    153 H153       -2.0888  -18.1427  -43.2043 H         1 UNK         0.0600 
    154 H154       -1.4539  -17.1813  -45.4410 H         1 UNK         0.3000 
    155 H155        0.0115  -17.6827  -48.6800 H         1 UNK         0.0600 
    156 H156       -0.3398  -15.2175  -48.6766 H         1 UNK         0.0600 
    157 H157       -1.5183  -15.3704  -47.3749 H         1 UNK         0.0600 
    158 H158       -1.8582  -16.0615  -48.9527 H         1 UNK         0.0600 
    159 H159        0.7490  -16.0108  -46.4940 H         1 UNK         0.3000 
    160 H160        2.9236  -18.3559  -44.8729 H         1 UNK         0.0600 
    161 H161        3.4669  -15.7227  -46.3099 H         1 UNK         0.0600 
    162 H162        4.1208  -17.2646  -46.8540 H         1 UNK         0.0600 
    163 H163        4.5635  -16.6373  -45.2743 H         1 UNK         0.0600 
    164 H164        2.1950  -15.6237  -44.3126 H         1 UNK         0.3000 
    165 H165       -0.5811  -16.3542  -42.2088 H         1 UNK         0.0600 
    166 H166        2.2384  -15.3335  -41.5566 H         1 UNK         0.0600 
    167 H167        0.7834  -15.0388  -40.6085 H         1 UNK         0.0600 
    168 H168        1.4257  -16.6685  -40.7474 H         1 UNK         0.0600 
    169 H169        0.8146  -13.9575  -42.9957 H         1 UNK         0.3000 
    170 H170        0.0058  -13.0093  -45.5431 H         1 UNK         0.0600 
    171 H171       -2.2889  -13.4188  -46.3203 H         1 UNK         0.0600 
    172 H172       -2.9623  -12.8794  -44.7921 H         1 UNK         0.0600 
    173 H173       -2.1410  -11.7352  -45.8528 H         1 UNK         0.0600 
    174 H174        0.3986  -11.5202  -43.9786 H         1 UNK         0.3000 
    175 H175        0.0692  -10.0117  -42.2781 H         1 UNK         0.0600 
    176 H176       -1.0119   -9.2857  -40.1943 H         1 UNK         0.0600 
    177 H177       -2.2127   -9.5044  -41.4579 H         1 UNK         0.0600 
    178 H178       -2.0480  -10.7099  -40.1863 H         1 UNK         0.0600 
    179 H179       -0.0163  -11.9904  -40.0553 H         1 UNK         0.3000 
    180 H180        1.9416  -10.8938  -42.9536 H         1 UNK         0.0600 
    181 H181        3.6553   -9.6524  -40.7314 H         1 UNK         0.0600 
    182 H182        2.1427   -8.9845  -41.3282 H         1 UNK         0.0600 
    183 H183        3.5352   -9.0760  -42.3938 H         1 UNK         0.0600 
    184 H184        4.6207  -11.4342  -42.0827 H         1 UNK         0.3000 
    185 H185        5.8751  -12.8404  -43.1606 H         1 UNK         0.0600 
    186 H186        6.2023  -15.2684  -42.7889 H         1 UNK         0.0600 
    187 H187        5.0726  -14.6340  -41.6034 H         1 UNK         0.0600 
    188 H188        4.4726  -15.5627  -42.9699 H         1 UNK         0.0600 
    189 H189        5.5599  -14.7760  -45.1042 H         1 UNK         0.3000 
    190 H190       -2.0920  -20.9711  -48.1415 H         1 UNK         0.3000 
    191 H191       -3.7943  -22.5010  -49.7836 H         1 UNK         0.0600 
    192 H192       -4.3362  -20.2252  -48.9055 H         1 UNK         0.0600 
    193 H193       -5.6228  -21.3700  -48.5593 H         1 UNK         0.0600 
    194 H194       -4.5144  -20.8781  -47.2838 H         1 UNK         0.0600 
    195 H195       -3.1445  -22.8091  -46.2481 H         1 UNK         0.3000 
    196 H196       -4.8900  -24.9638  -45.7399 H         1 UNK         0.0600 
    197 H197       -3.5203  -25.2523  -43.6669 H         1 UNK         0.0600 
    198 H198       -3.9154  -23.5644  -43.9522 H         1 UNK         0.0600 
    199 H199       -2.2986  -24.1643  -44.3146 H         1 UNK         0.0600 
    200 H200       -1.4255  -25.0073  -46.7060 H         1 UNK         0.3000 
    201 H201       -1.0637  -27.8210  -46.6580 H         1 UNK         0.0600 
    202 H202        0.8135  -26.2056  -46.7275 H         1 UNK         0.0600 
    203 H203        0.3373  -25.6740  -48.3385 H         1 UNK         0.0600 
    204 H204        0.9251  -27.3135  -48.0870 H         1 UNK         0.0600 
    205 H205       -2.4322  -25.6939  -49.1294 H         1 UNK         0.3000 
    206 H206       -2.7741  -27.8401  -51.1160 H         1 UNK         0.0600 
    207 H207       -3.7261  -25.9549  -52.4665 H         1 UNK         0.0600 
    208 H208       -3.5637  -24.8889  -51.0734 H         1 UNK         0.0600 
    209 H209       -2.1315  -25.5623  -51.8436 H         1 UNK         0.0600 
    210 H210       -4.3207  -27.3296  -48.2947 H         1 UNK         0.3000 
    211 H211       -6.2668  -27.7780  -47.3710 H         1 UNK         0.0600 
    212 H212       -6.8588  -29.4631  -49.8613 H         1 UNK         0.0600 
    213 H213       -7.6048  -29.6398  -48.2787 H         1 UNK         0.0600 
    214 H214       -5.8980  -29.9947  -48.4815 H         1 UNK         0.0600 
    215 H215       -6.1164  -25.3694  -48.9085 H         1 UNK         0.3000 
    216 H216       -7.2215  -23.6201  -49.5699 H         1 UNK         0.0600 
    217 H217       -8.6078  -24.0075  -47.5199 H         1 UNK         0.0600 
    218 H218       -9.7808  -24.9045  -48.4845 H         1 UNK         0.0600 
    219 H219       -9.5118  -23.1946  -48.7853 H         1 UNK         0.0600 
    220 H220       -7.2534  -26.2331  -51.3394 H         1 UNK         0.3000 
    221 H221       -9.4115  -25.6559  -53.2350 H         1 UNK         0.0600 
    222 H222       -7.0695  -27.6256  -53.3877 H         1 UNK         0.0600 
    223 H223       -8.6647  -27.9936  -52.7323 H         1 UNK         0.0600 
    224 H224       -8.4810  -27.6010  -54.4355 H         1 UNK         0.0600 
    225 H225       -6.1728  -24.5403  -52.7267 H         1 UNK         0.3000 
    226 H226       -6.1197  -22.8495  -55.0206 H         1 UNK         0.0600 
    227 H227       -5.3908  -25.0200  -56.1258 H         1 UNK         0.0600 
    228 H228       -4.0811  -23.8617  -56.0879 H         1 UNK         0.0600 
    229 H229       -4.1086  -25.1874  -54.9310 H         1 UNK         0.0600 
    230 H230       -3.6270  -22.0312  -55.0557 H         1 UNK         0.3000 
    231 H231       -1.9420  -20.9586  -54.1538 H         1 UNK         0.0600 
    232 H232       -1.3659  -23.3216  -53.4736 H         1 UNK         0.0600 
    233 H233       -2.0450  -22.9944  -51.8806 H         1 UNK         0.0600 
    234 H234       -0.6383  -22.1025  -52.4456 H         1 UNK         0.0600 
    235 H235       -4.7639  -20.2668  -53.0477 H         1 UNK         0.3000 
    236 H236       -4.0840  -18.7583  -50.6116 H         1 UNK         0.0600 
    237 H237       -6.4970  -18.1780  -50.6657 H         1 UNK         0.0600 
    238 H238       -6.6728  -18.9277  -52.2479 H         1 UNK         0.0600 
    239 H239       -6.2901  -19.9141  -50.8361 H         1 UNK         0.0600 
    240 H240       -3.8298  -18.2364  -53.9545 H         1 UNK         0.3000 
    241 H241       -3.3449  -16.5571  -55.2749 H         1 UNK         0.0600 
    242 H242       -3.9445  -13.7980  -55.5246 H         1 UNK         0.3800 
    243 H243       -5.6772  -13.6627  -55.4856 H         1 UNK         0.3800 
    244 H244       -2.3119  -14.4408  -54.4418 H         1 UNK         0.0800 
    245 H245       -2.7773  -14.8213  -52.8138 H         1 UNK         0.0800 
    246 H246       -1.1238  -15.4890  -51.3053 H         1 UNK         0.0800 
    247 H247       -1.5083  -17.1821  -51.5038 H         1 UNK         0.0800 
@<TRIPOS>BOND
     1    1    2 1    
     2    1  127 1    
     3    1  128 1    
     4    1  129 1    
     5    2    3 2    
     6    2    4 am   BACKBONE|DICT|INTERRES
     7    4    5 1    
     8    4  130 1    
     9    5    6 1    
    10    5   65 1    
    11    5  131 1    
    12    6    7 1    
    13    6  132 1    
    14    6  133 1    
    15    7    8 1    
    16    8    9 1    
    17    8  134 1    
    18    8  135 1    
    19    9   10 ar   
    20    9   14 ar   
    21   10   11 ar   
    22   10  136 1    
    23   11   12 ar   
    24   11  126 1    
    25   12   13 ar   
    26   12  137 1    
    27   13   14 ar   
    28   13   15 1    
    29   14  138 1    
    30   15   16 1    
    31   15  139 1    
    32   15  140 1    
    33   16   17 1    
    34   17   18 1    
    35   17  141 1    
    36   17  142 1    
    37   18   19 1    
    38   18   67 1    
    39   18  143 1    
    40   19   20 am   BACKBONE|DICT|INTERRES
    41   19  144 1    
    42   20   21 2    
    43   20   22 1    
    44   22   23 1    
    45   22   24 1    
    46   22  145 1    
    47   23  146 1    
    48   23  147 1    
    49   23  148 1    
    50   24   25 am   BACKBONE|DICT|INTERRES
    51   24  149 1    
    52   25   26 2    
    53   25   27 1    
    54   27   28 1    
    55   27   29 1    
    56   27  150 1    
    57   28  151 1    
    58   28  152 1    
    59   28  153 1    
    60   29   30 am   BACKBONE|DICT|INTERRES
    61   29  154 1    
    62   30   31 2    
    63   30   32 1    
    64   32   33 1    
    65   32   34 1    
    66   32  155 1    
    67   33  156 1    
    68   33  157 1    
    69   33  158 1    
    70   34   35 am   BACKBONE|DICT|INTERRES
    71   34  159 1    
    72   35   36 2    
    73   35   37 1    
    74   37   38 1    
    75   37   39 1    
    76   37  160 1    
    77   38  161 1    
    78   38  162 1    
    79   38  163 1    
    80   39   40 am   BACKBONE|DICT|INTERRES
    81   39  164 1    
    82   40   41 2    
    83   40   42 1    
    84   42   43 1    
    85   42   44 1    
    86   42  165 1    
    87   43  166 1    
    88   43  167 1    
    89   43  168 1    
    90   44   45 am   BACKBONE|DICT|INTERRES
    91   44  169 1    
    92   45   46 2    
    93   45   47 1    
    94   47   48 1    
    95   47   49 1    
    96   47  170 1    
    97   48  171 1    
    98   48  172 1    
    99   48  173 1    
   100   49   50 am   BACKBONE|DICT|INTERRES
   101   49  174 1    
   102   50   51 2    
   103   50   52 1    
   104   52   53 1    
   105   52   54 1    
   106   52  175 1    
   107   53  176 1    
   108   53  177 1    
   109   53  178 1    
   110   54   55 am   BACKBONE|DICT|INTERRES
   111   54  179 1    
   112   55   56 2    
   113   55   57 1    
   114   57   58 1    
   115   57   59 1    
   116   57  180 1    
   117   58  181 1    
   118   58  182 1    
   119   58  183 1    
   120   59   60 am   BACKBONE|DICT|INTERRES
   121   59  184 1    
   122   60   61 2    
   123   60   62 1    
   124   62   63 1    
   125   62   64 1    
   126   62  185 1    
   127   63  186 1    
   128   63  187 1    
   129   63  188 1    
   130   64   65 am   BACKBONE|DICT|INTERRES
   131   64  189 1    
   132   65   66 2    
   133   67   68 2    
   134   67   69 am   BACKBONE|DICT|INTERRES
   135   69   70 1    
   136   69  190 1    
   137   70   71 1    
   138   70   72 1    
   139   70  191 1    
   140   71  192 1    
   141   71  193 1    
   142   71  194 1    
   143   72   73 2    
   144   72   74 am   BACKBONE|DICT|INTERRES
   145   74   75 1    
   146   74  195 1    
   147   75   76 1    
   148   75   77 1    
   149   75  196 1    
   150   76  197 1    
   151   76  198 1    
   152   76  199 1    
   153   77   78 2    
   154   77   79 am   BACKBONE|DICT|INTERRES
   155   79   80 1    
   156   79  200 1    
   157   80   81 1    
   158   80   82 1    
   159   80  201 1    
   160   81  202 1    
   161   81  203 1    
   162   81  204 1    
   163   82   83 2    
   164   82   84 am   BACKBONE|DICT|INTERRES
   165   84   85 1    
   166   84  205 1    
   167   85   86 1    
   168   85   87 1    
   169   85  206 1    
   170   86  207 1    
   171   86  208 1    
   172   86  209 1    
   173   87   88 2    
   174   87   89 am   BACKBONE|DICT|INTERRES
   175   89   90 1    
   176   89  210 1    
   177   90   91 1    
   178   90   92 1    
   179   90  211 1    
   180   91  212 1    
   181   91  213 1    
   182   91  214 1    
   183   92   93 2    
   184   92   94 am   BACKBONE|DICT|INTERRES
   185   94   95 1    
   186   94  215 1    
   187   95   96 1    
   188   95   97 1    
   189   95  216 1    
   190   96  217 1    
   191   96  218 1    
   192   96  219 1    
   193   97   98 2    
   194   97   99 am   BACKBONE|DICT|INTERRES
   195   99  100 1    
   196   99  220 1    
   197  100  101 1    
   198  100  102 1    
   199  100  221 1    
   200  101  222 1    
   201  101  223 1    
   202  101  224 1    
   203  102  103 2    
   204  102  104 am   BACKBONE|DICT|INTERRES
   205  104  105 1    
   206  104  225 1    
   207  105  106 1    
   208  105  107 1    
   209  105  226 1    
   210  106  227 1    
   211  106  228 1    
   212  106  229 1    
   213  107  108 2    
   214  107  109 am   BACKBONE|DICT|INTERRES
   215  109  110 1    
   216  109  230 1    
   217  110  111 1    
   218  110  112 1    
   219  110  231 1    
   220  111  232 1    
   221  111  233 1    
   222  111  234 1    
   223  112  113 2    
   224  112  114 am   BACKBONE|DICT|INTERRES
   225  114  115 1    
   226  114  235 1    
   227  115  116 1    
   228  115  117 1    
   229  115  236 1    
   230  116  237 1    
   231  116  238 1    
   232  116  239 1    
   233  117  118 2    
   234  117  119 am   BACKBONE|DICT|INTERRES
   235  119  120 1    
   236  119  240 1    
   237  120  121 1    
   238  120  124 1    
   239  120  241 1    
   240  121  122 am   BACKBONE|DICT|INTERRES
   241  121  123 2    
   242  122  242 1    
   243  122  243 1    
   244  124  125 1    
   245  124  244 1    
   246  124  245 1    
   247  125  126 1    
   248  126  246 1    
   249  126  247 1    
@<TRIPOS>SUBSTRUCTURE
     1 UNK         1 GROUP             0       ****    0 ROOT    
