@<TRIPOS>MOLECULE
3R540
247   249    1
SMALL
USER_CHARGES


@<TRIPOS>ATOM
      1 CA          1.2204  -13.1220  -54.6732 C.3       0 UNK        -0.1800 
      2 C           1.3224  -13.6482  -53.2484 C.2       0 UNK         0.5000 
      3 O           2.3971  -14.0795  -52.8321 O.2       0 UNK        -0.5000 
      4 N           0.2086  -13.6099  -52.5034 N.am      1 UNK        -0.5000 
      5 CA          0.1254  -14.0214  -51.0973 C.3       1 UNK         0.1400 
      6 C6         -1.3539  -14.1672  -50.6492 C.3       23 UNK        -0.0398 
      7 S7         -1.5947  -14.7216  -48.9223 S.3       23 UNK        -0.2404 
      8 C8         -1.9993  -16.4859  -49.1172 C.3       23 UNK        -0.0205 
      9 C9         -0.7729  -17.3162  -49.4633 C.ar      23 UNK        -0.0193 
     10 C10        -0.4419  -17.5528  -50.7990 C.ar      23 UNK        -0.1150 
     11 C11         0.7052  -18.2783  -51.1285 C.ar      23 UNK        -0.0193 
     12 C12         1.5172  -18.7835  -50.1090 C.ar      23 UNK        -0.1150 
     13 C13         1.1901  -18.5683  -48.7664 C.ar      23 UNK        -0.0193 
     14 C14         0.0368  -17.8415  -48.4509 C.ar      23 UNK        -0.1150 
     15 C15         2.1139  -19.0711  -47.6622 C.3       23 UNK        -0.0205 
     16 S16         2.2409  -20.8890  -47.6116 S.3       23 UNK        -0.2404 
     17 C17         0.5711  -21.3160  -47.0355 C.3       23 UNK        -0.0398 
     18 CA          0.3856  -22.8276  -46.7696 C.3       11 UNK         0.1400 
     19 N           1.2670  -23.3477  -45.7199 N.am      11 UNK        -0.5000 
     20 C           1.5238  -24.6522  -45.5429 C.2       10 UNK         0.5000 
     21 O           1.0499  -25.5370  -46.2540 O.2       10 UNK        -0.5000 
     22 CA          2.4033  -25.0481  -44.3414 C.3       10 UNK         0.1400 
     23 CB          3.8873  -25.0331  -44.7350 C.3       10 UNK        -0.1800 
     24 N           2.2070  -24.1981  -43.1667 N.am      10 UNK        -0.5000 
     25 C           1.0428  -24.0101  -42.5307 C.2       9 UNK         0.5000 
     26 O          -0.0045  -24.5737  -42.8526 O.2       9 UNK        -0.5000 
     27 CA          1.0258  -22.9759  -41.3850 C.3       9 UNK         0.1400 
     28 CB          2.4164  -22.7153  -40.7658 C.3       9 UNK        -0.1800 
     29 N           0.4151  -21.7037  -41.7906 N.am      9 UNK        -0.5000 
     30 C           0.7360  -20.9500  -42.8546 C.2       8 UNK         0.5000 
     31 O           1.5779  -21.2602  -43.6984 O.2       8 UNK        -0.5000 
     32 CA         -0.0150  -19.6169  -43.0118 C.3       8 UNK         0.1400 
     33 CB         -1.3559  -19.8405  -43.7264 C.3       8 UNK        -0.1800 
     34 N          -0.2635  -18.8904  -41.7638 N.am      8 UNK        -0.5000 
     35 C           0.6633  -18.4831  -40.8835 C.2       7 UNK         0.5000 
     36 O           1.8663  -18.7313  -40.9816 O.2       7 UNK        -0.5000 
     37 CA          0.1320  -17.6331  -39.7074 C.3       7 UNK         0.1400 
     38 CB          1.2501  -17.0601  -38.8105 C.3       7 UNK        -0.1800 
     39 N          -0.7799  -16.5727  -40.1585 N.am      7 UNK        -0.5000 
     40 C          -0.4882  -15.5673  -40.9974 C.2       6 UNK         0.5000 
     41 O           0.6351  -15.3415  -41.4521 O.2       6 UNK        -0.5000 
     42 CA         -1.6662  -14.6764  -41.4297 C.3       6 UNK         0.1400 
     43 CB         -1.4001  -13.1965  -41.1106 C.3       6 UNK        -0.1800 
     44 N          -1.8867  -14.8273  -42.8648 N.am      6 UNK        -0.5000 
     45 C          -2.4265  -15.9136  -43.4378 C.2       5 UNK         0.5000 
     46 O          -2.9281  -16.8406  -42.8006 O.2       5 UNK        -0.5000 
     47 CA         -2.3774  -15.9889  -44.9785 C.3       5 UNK         0.1400 
     48 CB         -3.6561  -15.3875  -45.5809 C.3       5 UNK        -0.1800 
     49 N          -1.2132  -15.3044  -45.5401 N.am      5 UNK        -0.5000 
     50 C           0.0676  -15.6300  -45.3109 C.2       4 UNK         0.5000 
     51 O           0.4059  -16.6669  -44.7430 O.2       4 UNK        -0.5000 
     52 CA          1.1545  -14.6349  -45.7733 C.3       4 UNK         0.1400 
     53 CB          2.1257  -15.3060  -46.7562 C.3       4 UNK        -0.1800 
     54 N           0.6331  -13.3926  -46.3620 N.am      4 UNK        -0.5000 
     55 C          -0.0131  -12.4331  -45.6791 C.2       3 UNK         0.5000 
     56 O          -0.2321  -12.5117  -44.4690 O.2       3 UNK        -0.5000 
     57 CA         -0.5815  -11.2321  -46.4685 C.3       3 UNK         0.1400 
     58 CB         -0.5208   -9.9145  -45.6672 C.3       3 UNK        -0.1800 
     59 N          -0.0287  -11.0658  -47.8178 N.am      3 UNK        -0.5000 
     60 C           1.2191  -10.7101  -48.1599 C.2       2 UNK         0.5000 
     61 O           2.1040  -10.4351  -47.3480 O.2       2 UNK        -0.5000 
     62 CA          1.5157  -10.6846  -49.6791 C.3       2 UNK         0.1400 
     63 CB          3.0260  -10.6882  -49.9944 C.3       2 UNK        -0.1800 
     64 N           0.8379  -11.7571  -50.4251 N.am      2 UNK        -0.5000 
     65 C           0.9314  -13.0749  -50.1807 C.2       1 UNK         0.5000 
     66 O           1.6130  -13.5491  -49.2743 O.2       1 UNK        -0.5000 
     67 C          -1.0977  -23.1346  -46.4849 C.2       11 UNK         0.5000 
     68 O          -1.8728  -23.2257  -47.4354 O.2       11 UNK        -0.5000 
     69 N          -1.4816  -23.2984  -45.2103 N.am      12 UNK        -0.5000 
     70 CA         -2.8262  -23.7353  -44.8312 C.3       12 UNK         0.1400 
     71 CB         -3.1442  -23.3186  -43.3876 C.3       12 UNK        -0.1800 
     72 C          -2.9799  -25.2523  -45.0179 C.2       12 UNK         0.5000 
     73 O          -3.9991  -25.6944  -45.5466 O.2       12 UNK        -0.5000 
     74 N          -1.9453  -26.0137  -44.6316 N.am      13 UNK        -0.5000 
     75 CA         -1.8681  -27.4679  -44.7937 C.3       13 UNK         0.1400 
     76 CB         -0.6136  -27.9941  -44.0805 C.3       13 UNK        -0.1800 
     77 C          -1.8866  -27.9116  -46.2699 C.2       13 UNK         0.5000 
     78 O          -2.5730  -28.8764  -46.6077 O.2       13 UNK        -0.5000 
     79 N          -1.1637  -27.1764  -47.1259 N.am      14 UNK        -0.5000 
     80 CA         -1.1310  -27.3706  -48.5777 C.3       14 UNK         0.1400 
     81 CB          0.1425  -26.7103  -49.1312 C.3       14 UNK        -0.1800 
     82 C          -2.3718  -26.8109  -49.3043 C.2       14 UNK         0.5000 
     83 O          -2.5388  -27.0824  -50.4934 O.2       14 UNK        -0.5000 
     84 N          -3.1881  -26.0125  -48.5983 N.am      15 UNK        -0.5000 
     85 CA         -4.3587  -25.2631  -49.0748 C.3       15 UNK         0.1400 
     86 CB         -5.4520  -26.2060  -49.6166 C.3       15 UNK        -0.1800 
     87 C          -4.0175  -24.1254  -50.0625 C.2       15 UNK         0.5000 
     88 O          -4.9198  -23.5658  -50.6866 O.2       15 UNK        -0.5000 
     89 N          -2.7330  -23.7568  -50.1462 N.am      16 UNK        -0.5000 
     90 CA         -2.2113  -22.6417  -50.9327 C.3       16 UNK         0.1400 
     91 CB         -0.6759  -22.6660  -50.8860 C.3       16 UNK        -0.1800 
     92 C          -2.7485  -21.2872  -50.4439 C.2       16 UNK         0.5000 
     93 O          -3.1294  -20.4575  -51.2669 O.2       16 UNK        -0.5000 
     94 N          -2.8270  -21.1134  -49.1166 N.am      17 UNK        -0.5000 
     95 CA         -3.3868  -19.9194  -48.4817 C.3       17 UNK         0.1400 
     96 CB         -2.9411  -19.8449  -47.0129 C.3       17 UNK        -0.1800 
     97 C          -4.9192  -19.8459  -48.5834 C.2       17 UNK         0.5000 
     98 O          -5.4688  -18.7448  -48.6076 O.2       17 UNK        -0.5000 
     99 N          -5.5770  -21.0121  -48.6417 N.am      18 UNK        -0.5000 
    100 CA        -7.0236  -21.1313  -48.8157 C.3       18 UNK         0.1400 
    101 CB        -7.4786  -22.5438  -48.4156 C.3       18 UNK        -0.1800 
    102 C         -7.4490  -20.7955  -50.2554 C.2       18 UNK         0.5000 
    103 O         -8.4316  -20.0781  -50.4466 O.2       18 UNK        -0.5000 
    104 N         -6.6920  -21.3055  -51.2369 N.am      19 UNK        -0.5000 
    105 CA        -6.8874  -21.0273  -52.6577 C.3       19 UNK         0.1400 
    106 CB        -6.1053  -22.0574  -53.4887 C.3       19 UNK        -0.1800 
    107 C         -6.4671  -19.5961  -53.0357 C.2       19 UNK         0.5000 
    108 O         -7.2056  -18.9156  -53.7474 O.2       19 UNK        -0.5000 
    109 N         -5.2733  -19.1880  -52.5767 N.am      20 UNK        -0.5000 
    110 CA        -4.5809  -17.9171  -52.8326 C.3       20 UNK         0.1400 
    111 CB        -5.3738  -16.7289  -52.2541 C.3       20 UNK        -0.1800 
    112 C         -4.1740  -17.6922  -54.3070 C.2       20 UNK         0.5000 
    113 O         -3.6871  -16.6117  -54.6443 O.2       20 UNK        -0.5000 
    114 N         -4.3380  -18.7174  -55.1568 N.am      21 UNK        -0.5000 
    115 CA        -4.0726  -18.6982  -56.5988 C.3       21 UNK         0.1400 
    116 CB        -4.5876  -20.0093  -57.2123 C.3       21 UNK        -0.1800 
    117 C         -2.5909  -18.4771  -56.9574 C.2       21 UNK         0.5000 
    118 O         -2.2944  -17.9776  -58.0434 O.2       21 UNK        -0.5000 
    119 N         -1.6964  -18.8302  -56.0283 N.am      22 UNK        -0.5000 
    120 CA        -0.2615  -18.5221  -56.0655 C.3       22 UNK         0.1400 
    121 C          0.0907  -17.0260  -55.8031 C.2       22 UNK         0.5000 
    122 N         -0.8411  -16.1727  -55.3909 N.am      22 UNK        -0.7600 
    123 O          1.2361  -16.6280  -55.9934 O.2       22 UNK        -0.5000 
    124 C124        0.5458  -19.4829  -55.1527 C.3       23 UNK        -0.0398 
    125 S125       -0.0798  -19.5807  -53.4374 S.3       23 UNK        -0.2404 
    126 C126        1.0833  -18.4720  -52.5873 C.3       23 UNK        -0.0205 
    127 H127        0.2017  -12.8286  -54.9276 H         1 UNK         0.0600 
    128 H128        1.5420  -13.8865  -55.3804 H         1 UNK         0.0600 
    129 H129        1.8652  -12.2520  -54.7968 H         1 UNK         0.0600 
    130 H130       -0.6412  -13.2438  -52.9082 H         1 UNK         0.3000 
    131 H131        0.5955  -15.0033  -51.0203 H         1 UNK         0.0600 
    132 H132       -1.8717  -13.2130  -50.7579 H         1 UNK         0.0800 
    133 H133       -1.8740  -14.8563  -51.3155 H         1 UNK         0.0800 
    134 H134       -2.7774  -16.6101  -49.8722 H         1 UNK         0.0800 
    135 H135       -2.4258  -16.8464  -48.1808 H         1 UNK         0.0800 
    136 H136       -1.0645  -17.1566  -51.5885 H         1 UNK         0.1150 
    137 H137        2.4136  -19.3344  -50.3565 H         1 UNK         0.1150 
    138 H138       -0.2174  -17.6599  -47.4167 H         1 UNK         0.1150 
    139 H139        1.7895  -18.7063  -46.6859 H         1 UNK         0.0800 
    140 H140        3.1093  -18.6559  -47.8248 H         1 UNK         0.0800 
    141 H141       -0.1244  -20.9790  -47.8059 H         1 UNK         0.0800 
    142 H142        0.3581  -20.7330  -46.1402 H         1 UNK         0.0800 
    143 H143        0.6354  -23.3520  -47.6946 H         1 UNK         0.0600 
    144 H144        1.6520  -22.6677  -45.0697 H         1 UNK         0.3000 
    145 H145        2.1356  -26.0675  -44.0578 H         1 UNK         0.0600 
    146 H146        4.0693  -25.6778  -45.5959 H         1 UNK         0.0600 
    147 H147        4.5157  -25.3949  -43.9210 H         1 UNK         0.0600 
    148 H148        4.2230  -24.0294  -44.9993 H         1 UNK         0.0600 
    149 H149        3.0038  -23.6564  -42.8654 H         1 UNK         0.3000 
    150 H150        0.3895  -23.3965  -40.6050 H         1 UNK         0.0600 
    151 H151        3.0913  -22.2122  -41.4592 H         1 UNK         0.0600 
    152 H152        2.8902  -23.6463  -40.4515 H         1 UNK         0.0600 
    153 H153        2.3322  -22.0842  -39.8809 H         1 UNK         0.0600 
    154 H154       -0.3139  -21.3598  -41.1823 H         1 UNK         0.3000 
    155 H155        0.6103  -18.9845  -43.6430 H         1 UNK         0.0600 
    156 H156       -1.7323  -18.9094  -44.1422 H         1 UNK         0.0600 
    157 H157       -2.1123  -20.2258  -43.0439 H         1 UNK         0.0600 
    158 H158       -1.2686  -20.5459  -44.5507 H         1 UNK         0.0600 
    159 H159       -1.2173  -18.5939  -41.6128 H         1 UNK         0.3000 
    160 H160       -0.4630  -18.3085  -39.0909 H         1 UNK         0.0600 
    161 H161        1.9273  -16.4109  -39.3660 H         1 UNK         0.0600 
    162 H162        1.8502  -17.8613  -38.3776 H         1 UNK         0.0600 
    163 H163        0.8355  -16.4833  -37.9839 H         1 UNK         0.0600 
    164 H164       -1.7401  -16.6747  -39.8594 H         1 UNK         0.3000 
    165 H165       -2.5702  -14.9809  -40.8980 H         1 UNK         0.0600 
    166 H166       -2.2473  -12.5733  -41.3972 H         1 UNK         0.0600 
    167 H167       -1.2349  -13.0523  -40.0423 H         1 UNK         0.0600 
    168 H168       -0.5188  -12.8220  -41.6334 H         1 UNK         0.0600 
    169 H169       -1.4448  -14.1350  -43.4573 H         1 UNK         0.3000 
    170 H170       -2.3219  -17.0376  -45.2710 H         1 UNK         0.0600 
    171 H171       -3.6725  -15.4846  -46.6657 H         1 UNK         0.0600 
    172 H172       -3.7553  -14.3286  -45.3388 H         1 UNK         0.0600 
    173 H173       -4.5423  -15.8961  -45.1991 H         1 UNK         0.0600 
    174 H174       -1.3936  -14.4607  -46.0624 H         1 UNK         0.3000 
    175 H175        1.7231  -14.3627  -44.8818 H         1 UNK         0.0600 
    176 H176        2.5896  -16.1876  -46.3128 H         1 UNK         0.0600 
    177 H177        1.6160  -15.6267  -47.6645 H         1 UNK         0.0600 
    178 H178        2.9294  -14.6278  -47.0429 H         1 UNK         0.0600 
    179 H179        0.7881  -13.2764  -47.3578 H         1 UNK         0.3000 
    180 H180       -1.6370  -11.4637  -46.6180 H         1 UNK         0.0600 
    181 H181        0.5005   -9.6536  -45.3892 H         1 UNK         0.0600 
    182 H182       -1.0970   -9.9910  -44.7443 H         1 UNK         0.0600 
    183 H183       -0.9370   -9.0848  -46.2383 H         1 UNK         0.0600 
    184 H184       -0.6657  -11.2828  -48.5712 H         1 UNK         0.3000 
    185 H185        1.1051   -9.7444  -50.0497 H         1 UNK         0.0600 
    186 H186        3.5214   -9.8220  -49.5543 H         1 UNK         0.0600 
    187 H187        3.5178  -11.5801  -49.6049 H         1 UNK         0.0600 
    188 H188        3.2040  -10.6509  -51.0692 H         1 UNK         0.0600 
    189 H189        0.2600  -11.4565  -51.1973 H         1 UNK         0.3000 
    190 H190       -0.7851  -23.2825  -44.4772 H         1 UNK         0.3000 
    191 H191       -3.5558  -23.2456  -45.4803 H         1 UNK         0.0600 
    192 H192       -3.1479  -22.2357  -43.2846 H         1 UNK         0.0600 
    193 H193       -4.1338  -23.6698  -43.0926 H         1 UNK         0.0600 
    194 H194       -2.4300  -23.7236  -42.6718 H         1 UNK         0.0600 
    195 H195       -1.1637  -25.5646  -44.1653 H         1 UNK         0.3000 
    196 H196       -2.7434  -27.9013  -44.3056 H         1 UNK         0.0600 
    197 H197       -0.5662  -29.0826  -44.1285 H         1 UNK         0.0600 
    198 H198       -0.6105  -27.7135  -43.0270 H         1 UNK         0.0600 
    199 H199        0.2992  -27.6068  -44.5330 H         1 UNK         0.0600 
    200 H200       -0.5550  -26.4514  -46.7546 H         1 UNK         0.3000 
    201 H201       -1.0810  -28.4409  -48.7881 H         1 UNK         0.0600 
    202 H202        0.2338  -26.8691  -50.2065 H         1 UNK         0.0600 
    203 H203        1.0363  -27.1264  -48.6659 H         1 UNK         0.0600 
    204 H204        0.1453  -25.6336  -48.9567 H         1 UNK         0.0600 
    205 H205       -2.9671  -25.8738  -47.6212 H         1 UNK         0.3000 
    206 H206       -4.7664  -24.7694  -48.1917 H         1 UNK         0.0600 
    207 H207       -5.6831  -26.9935  -48.8994 H         1 UNK         0.0600 
    208 H208       -6.3776  -25.6625  -49.8089 H         1 UNK         0.0600 
    209 H209       -5.1552  -26.6788  -50.5528 H         1 UNK         0.0600 
    210 H210       -2.0823  -24.2105  -49.5217 H         1 UNK         0.3000 
    211 H211       -2.5303  -22.7772  -51.9681 H         1 UNK         0.0600 
    212 H212       -0.3001  -22.5616  -49.8682 H         1 UNK         0.0600 
    213 H213       -0.2539  -21.8495  -51.4725 H         1 UNK         0.0600 
    214 H214       -0.2832  -23.5970  -51.2949 H         1 UNK         0.0600 
    215 H215       -2.5205  -21.8692  -48.5089 H         1 UNK         0.3000 
    216 H216       -2.9926  -19.0484  -49.0036 H         1 UNK         0.0600 
    217 H217       -3.4100  -19.0018  -46.5037 H         1 UNK         0.0600 
    218 H218       -1.8655  -19.7012  -46.9340 H         1 UNK         0.0600 
    219 H219       -3.2074  -20.7479  -46.4626 H         1 UNK         0.0600 
    220 H220       -5.0419  -21.8664  -48.6443 H         1 UNK         0.3000 
    221 H221       -7.5114  -20.4195  -48.1461 H         1 UNK         0.0600 
    222 H222       -7.0448  -23.3096  -49.0579 H         1 UNK         0.0600 
    223 H223       -7.2006  -22.7718  -47.3864 H         1 UNK         0.0600 
    224 H224       -8.5630  -22.6356  -48.4870 H         1 UNK         0.0600 
    225 H225       -5.9393  -21.9445  -50.9975 H         1 UNK         0.3000 
    226 H226       -7.9486  -21.1399  -52.8896 H         1 UNK         0.0600 
    227 H227       -6.2346  -21.8802  -54.5572 H         1 UNK         0.0600 
    228 H228       -5.0361  -22.0236  -53.2741 H         1 UNK         0.0600 
    229 H229       -6.4515  -23.0705  -53.2829 H         1 UNK         0.0600 
    230 H230       -4.7213  -19.8406  -52.0243 H         1 UNK         0.3000 
    231 H231       -3.6429  -17.9774  -52.2789 H         1 UNK         0.0600 
    232 H232       -6.3042  -16.5589  -52.7962 H         1 UNK         0.0600 
    233 H233       -4.7926  -15.8076  -52.3060 H         1 UNK         0.0600 
    234 H234       -5.6206  -16.8962  -51.2053 H         1 UNK         0.0600 
    235 H235       -4.7320  -19.5680  -54.7854 H         1 UNK         0.3000 
    236 H236       -4.6393  -17.8702  -57.0294 H         1 UNK         0.0600 
    237 H237       -4.0731  -20.8769  -56.7972 H         1 UNK         0.0600 
    238 H238       -5.6560  -20.1352  -57.0350 H         1 UNK         0.0600 
    239 H239       -4.4350  -20.0223  -58.2923 H         1 UNK         0.0600 
    240 H240       -2.0326  -19.2267  -55.1629 H         1 UNK         0.3000 
    241 H241        0.0747  -18.7114  -57.0868 H         1 UNK         0.0600 
    242 H242       -1.7983  -16.4667  -55.2274 H         1 UNK         0.3800 
    243 H243       -0.5927  -15.2084  -55.2559 H         1 UNK         0.3800 
    244 H244        1.6071  -19.2279  -55.1516 H         1 UNK         0.0800 
    245 H245        0.4947  -20.4897  -55.5689 H         1 UNK         0.0800 
    246 H246        2.0932  -18.8755  -52.6742 H         1 UNK         0.0800 
    247 H247        1.0941  -17.4985  -53.0793 H         1 UNK         0.0800 
@<TRIPOS>BOND
     1    1    2 1    
     2    1  127 1    
     3    1  128 1    
     4    1  129 1    
     5    2    3 2    
     6    2    4 am   BACKBONE|DICT|INTERRES
     7    4    5 1    
     8    4  130 1    
     9    5    6 1    
    10    5   65 1    
    11    5  131 1    
    12    6    7 1    
    13    6  132 1    
    14    6  133 1    
    15    7    8 1    
    16    8    9 1    
    17    8  134 1    
    18    8  135 1    
    19    9   10 ar   
    20    9   14 ar   
    21   10   11 ar   
    22   10  136 1    
    23   11   12 ar   
    24   11  126 1    
    25   12   13 ar   
    26   12  137 1    
    27   13   14 ar   
    28   13   15 1    
    29   14  138 1    
    30   15   16 1    
    31   15  139 1    
    32   15  140 1    
    33   16   17 1    
    34   17   18 1    
    35   17  141 1    
    36   17  142 1    
    37   18   19 1    
    38   18   67 1    
    39   18  143 1    
    40   19   20 am   BACKBONE|DICT|INTERRES
    41   19  144 1    
    42   20   21 2    
    43   20   22 1    
    44   22   23 1    
    45   22   24 1    
    46   22  145 1    
    47   23  146 1    
    48   23  147 1    
    49   23  148 1    
    50   24   25 am   BACKBONE|DICT|INTERRES
    51   24  149 1    
    52   25   26 2    
    53   25   27 1    
    54   27   28 1    
    55   27   29 1    
    56   27  150 1    
    57   28  151 1    
    58   28  152 1    
    59   28  153 1    
    60   29   30 am   BACKBONE|DICT|INTERRES
    61   29  154 1    
    62   30   31 2    
    63   30   32 1    
    64   32   33 1    
    65   32   34 1    
    66   32  155 1    
    67   33  156 1    
    68   33  157 1    
    69   33  158 1    
    70   34   35 am   BACKBONE|DICT|INTERRES
    71   34  159 1    
    72   35   36 2    
    73   35   37 1    
    74   37   38 1    
    75   37   39 1    
    76   37  160 1    
    77   38  161 1    
    78   38  162 1    
    79   38  163 1    
    80   39   40 am   BACKBONE|DICT|INTERRES
    81   39  164 1    
    82   40   41 2    
    83   40   42 1    
    84   42   43 1    
    85   42   44 1    
    86   42  165 1    
    87   43  166 1    
    88   43  167 1    
    89   43  168 1    
    90   44   45 am   BACKBONE|DICT|INTERRES
    91   44  169 1    
    92   45   46 2    
    93   45   47 1    
    94   47   48 1    
    95   47   49 1    
    96   47  170 1    
    97   48  171 1    
    98   48  172 1    
    99   48  173 1    
   100   49   50 am   BACKBONE|DICT|INTERRES
   101   49  174 1    
   102   50   51 2    
   103   50   52 1    
   104   52   53 1    
   105   52   54 1    
   106   52  175 1    
   107   53  176 1    
   108   53  177 1    
   109   53  178 1    
   110   54   55 am   BACKBONE|DICT|INTERRES
   111   54  179 1    
   112   55   56 2    
   113   55   57 1    
   114   57   58 1    
   115   57   59 1    
   116   57  180 1    
   117   58  181 1    
   118   58  182 1    
   119   58  183 1    
   120   59   60 am   BACKBONE|DICT|INTERRES
   121   59  184 1    
   122   60   61 2    
   123   60   62 1    
   124   62   63 1    
   125   62   64 1    
   126   62  185 1    
   127   63  186 1    
   128   63  187 1    
   129   63  188 1    
   130   64   65 am   BACKBONE|DICT|INTERRES
   131   64  189 1    
   132   65   66 2    
   133   67   68 2    
   134   67   69 am   BACKBONE|DICT|INTERRES
   135   69   70 1    
   136   69  190 1    
   137   70   71 1    
   138   70   72 1    
   139   70  191 1    
   140   71  192 1    
   141   71  193 1    
   142   71  194 1    
   143   72   73 2    
   144   72   74 am   BACKBONE|DICT|INTERRES
   145   74   75 1    
   146   74  195 1    
   147   75   76 1    
   148   75   77 1    
   149   75  196 1    
   150   76  197 1    
   151   76  198 1    
   152   76  199 1    
   153   77   78 2    
   154   77   79 am   BACKBONE|DICT|INTERRES
   155   79   80 1    
   156   79  200 1    
   157   80   81 1    
   158   80   82 1    
   159   80  201 1    
   160   81  202 1    
   161   81  203 1    
   162   81  204 1    
   163   82   83 2    
   164   82   84 am   BACKBONE|DICT|INTERRES
   165   84   85 1    
   166   84  205 1    
   167   85   86 1    
   168   85   87 1    
   169   85  206 1    
   170   86  207 1    
   171   86  208 1    
   172   86  209 1    
   173   87   88 2    
   174   87   89 am   BACKBONE|DICT|INTERRES
   175   89   90 1    
   176   89  210 1    
   177   90   91 1    
   178   90   92 1    
   179   90  211 1    
   180   91  212 1    
   181   91  213 1    
   182   91  214 1    
   183   92   93 2    
   184   92   94 am   BACKBONE|DICT|INTERRES
   185   94   95 1    
   186   94  215 1    
   187   95   96 1    
   188   95   97 1    
   189   95  216 1    
   190   96  217 1    
   191   96  218 1    
   192   96  219 1    
   193   97   98 2    
   194   97   99 am   BACKBONE|DICT|INTERRES
   195   99  100 1    
   196   99  220 1    
   197  100  101 1    
   198  100  102 1    
   199  100  221 1    
   200  101  222 1    
   201  101  223 1    
   202  101  224 1    
   203  102  103 2    
   204  102  104 am   BACKBONE|DICT|INTERRES
   205  104  105 1    
   206  104  225 1    
   207  105  106 1    
   208  105  107 1    
   209  105  226 1    
   210  106  227 1    
   211  106  228 1    
   212  106  229 1    
   213  107  108 2    
   214  107  109 am   BACKBONE|DICT|INTERRES
   215  109  110 1    
   216  109  230 1    
   217  110  111 1    
   218  110  112 1    
   219  110  231 1    
   220  111  232 1    
   221  111  233 1    
   222  111  234 1    
   223  112  113 2    
   224  112  114 am   BACKBONE|DICT|INTERRES
   225  114  115 1    
   226  114  235 1    
   227  115  116 1    
   228  115  117 1    
   229  115  236 1    
   230  116  237 1    
   231  116  238 1    
   232  116  239 1    
   233  117  118 2    
   234  117  119 am   BACKBONE|DICT|INTERRES
   235  119  120 1    
   236  119  240 1    
   237  120  121 1    
   238  120  124 1    
   239  120  241 1    
   240  121  122 am   BACKBONE|DICT|INTERRES
   241  121  123 2    
   242  122  242 1    
   243  122  243 1    
   244  124  125 1    
   245  124  244 1    
   246  124  245 1    
   247  125  126 1    
   248  126  246 1    
   249  126  247 1    
@<TRIPOS>SUBSTRUCTURE
     1 UNK         1 GROUP             0       ****    0 ROOT    
