@<TRIPOS>MOLECULE
3R540
247   249    1
SMALL
USER_CHARGES


@<TRIPOS>ATOM
      1 CA          5.2638  -22.5156  -42.7943 C.3       0 UNK        -0.1800 
      2 C           4.1674  -22.7822  -43.8150 C.2       0 UNK         0.5000 
      3 O           3.5887  -23.8680  -43.8259 O.2       0 UNK        -0.5000 
      4 N           3.8718  -21.7907  -44.6644 N.am      1 UNK        -0.5000 
      5 CA          2.8560  -21.8561  -45.7278 C.3       1 UNK         0.1400 
      6 C6          3.1979  -20.9254  -46.9198 C.3       23 UNK        -0.0398 
      7 S7          4.8812  -21.2148  -47.5738 S.3       23 UNK        -0.2404 
      8 C8          4.5639  -22.2488  -49.0498 C.3       23 UNK        -0.0205 
      9 C9          3.9394  -21.5289  -50.2474 C.ar      23 UNK        -0.0193 
     10 C10         3.3189  -22.2913  -51.2436 C.ar      23 UNK        -0.1150 
     11 C11         2.7153  -21.6829  -52.3506 C.ar      23 UNK        -0.0193 
     12 C12         2.7445  -20.2890  -52.4565 C.ar      23 UNK        -0.1150 
     13 C13         3.3426  -19.5119  -51.4655 C.ar      23 UNK        -0.0193 
     14 C14         3.9682  -20.1362  -50.3845 C.ar      23 UNK        -0.1150 
     15 C15         3.2416  -17.9950  -51.5187 C.3       23 UNK        -0.0205 
     16 S16         1.6204  -17.4236  -50.9031 S.3       23 UNK        -0.2404 
     17 C17         1.5743  -18.2445  -49.2717 C.3       23 UNK        -0.0398 
     18 CA          0.5217  -17.7545  -48.2514 C.3       11 UNK         0.1400 
     19 N           0.6814  -16.3540  -47.8443 N.am      11 UNK        -0.5000 
     20 C           0.1855  -15.2328  -48.3868 C.2       10 UNK         0.5000 
     21 O          -0.4433  -15.1872  -49.4438 O.2       10 UNK        -0.5000 
     22 CA          0.3841  -13.9351  -47.5720 C.3       10 UNK         0.1400 
     23 CB         -0.9487  -13.4967  -46.9435 C.3       10 UNK        -0.1800 
     24 N           1.3735  -14.0749  -46.4995 N.am      10 UNK        -0.5000 
     25 C           2.7014  -14.0661  -46.6798 C.2       9 UNK         0.5000 
     26 O           3.2453  -13.8244  -47.7573 O.2       9 UNK        -0.5000 
     27 CA          3.5607  -14.4419  -45.4576 C.3       9 UNK         0.1400 
     28 CB          3.7984  -13.2186  -44.5596 C.3       9 UNK        -0.1800 
     29 N           2.9659  -15.5223  -44.6664 N.am      9 UNK        -0.5000 
     30 C           2.7843  -16.7776  -45.1013 C.2       8 UNK         0.5000 
     31 O           3.1577  -17.1818  -46.2007 O.2       8 UNK        -0.5000 
     32 CA          2.0029  -17.7300  -44.1848 C.3       8 UNK         0.1400 
     33 CB          2.9367  -18.3903  -43.1600 C.3       8 UNK        -0.1800 
     34 N           0.9060  -17.0537  -43.4957 N.am      8 UNK        -0.5000 
     35 C          -0.2372  -16.6547  -44.0710 C.2       7 UNK         0.5000 
     36 O          -0.5104  -16.8407  -45.2543 O.2       7 UNK        -0.5000 
     37 CA         -1.2473  -15.9130  -43.1814 C.3       7 UNK         0.1400 
     38 CB         -2.2032  -16.9010  -42.4972 C.3       7 UNK        -0.1800 
     39 N          -0.5902  -15.0838  -42.1736 N.am      7 UNK        -0.5000 
     40 C           0.1017  -13.9699  -42.4499 C.2       6 UNK         0.5000 
     41 O           0.2249  -13.5020  -43.5828 O.2       6 UNK        -0.5000 
     42 CA          0.8142  -13.3021  -41.2601 C.3       6 UNK         0.1400 
     43 CB         -0.1623  -12.4250  -40.4625 C.3       6 UNK        -0.1800 
     44 N           1.4359  -14.2806  -40.3636 N.am      6 UNK        -0.5000 
     45 C           2.4812  -15.0479  -40.7022 C.2       5 UNK         0.5000 
     46 O           3.0345  -14.9996  -41.8001 O.2       5 UNK        -0.5000 
     47 CA          2.9658  -16.0676  -39.6556 C.3       5 UNK         0.1400 
     48 CB          3.9112  -15.3973  -38.6475 C.3       5 UNK        -0.1800 
     49 N           1.8847  -16.7460  -38.9332 N.am      5 UNK        -0.5000 
     50 C           0.9482  -17.5150  -39.5033 C.2       4 UNK         0.5000 
     51 O           0.8188  -17.6513  -40.7209 O.2       4 UNK        -0.5000 
     52 CA         -0.0277  -18.2292  -38.5617 C.3       4 UNK         0.1400 
     53 CB         -1.3054  -17.3937  -38.3843 C.3       4 UNK        -0.1800 
     54 N          -0.3796  -19.5235  -39.1428 N.am      4 UNK        -0.5000 
     55 C          -0.1986  -20.7128  -38.5557 C.2       3 UNK         0.5000 
     56 O           0.2470  -20.8494  -37.4153 O.2       3 UNK        -0.5000 
     57 CA         -0.5894  -21.9711  -39.3596 C.3       3 UNK         0.1400 
     58 CB         -1.9292  -22.5303  -38.8546 C.3       3 UNK        -0.1800 
     59 N          -0.6891  -21.7536  -40.8059 N.am      3 UNK        -0.5000 
     60 C           0.3568  -21.6339  -41.6327 C.2       2 UNK         0.5000 
     61 O           1.5340  -21.6747  -41.2634 O.2       2 UNK        -0.5000 
     62 CA          0.0230  -21.4231  -43.1191 C.3       2 UNK         0.1400 
     63 CB         -0.7116  -20.0880  -43.3282 C.3       2 UNK        -0.1800 
     64 N           1.2677  -21.4671  -43.8779 N.am      2 UNK        -0.5000 
     65 C           1.4191  -21.6108  -45.2011 C.2       1 UNK         0.5000 
     66 O           0.4836  -21.5622  -46.0011 O.2       1 UNK        -0.5000 
     67 C          -0.9393  -18.1712  -48.5318 C.2       11 UNK         0.5000 
     68 O          -1.2204  -18.9287  -49.4626 O.2       11 UNK        -0.5000 
     69 N          -1.8457  -17.6647  -47.6850 N.am      12 UNK        -0.5000 
     70 CA         -3.2949  -17.7779  -47.8196 C.3       12 UNK         0.1400 
     71 CB         -3.9664  -16.8814  -46.7690 C.3       12 UNK        -0.1800 
     72 C          -3.8133  -19.2200  -47.7135 C.2       12 UNK         0.5000 
     73 O          -4.7190  -19.5886  -48.4611 O.2       12 UNK        -0.5000 
     74 N          -3.2293  -20.0127  -46.8044 N.am      13 UNK        -0.5000 
     75 CA         -3.6044  -21.4121  -46.5962 C.3       13 UNK         0.1400 
     76 CB         -3.0779  -21.9019  -45.2432 C.3       13 UNK        -0.1800 
     77 C          -3.1160  -22.3197  -47.7368 C.2       13 UNK         0.5000 
     78 O          -3.8667  -23.1927  -48.1704 O.2       13 UNK        -0.5000 
     79 N          -1.8964  -22.0695  -48.2369 N.am      14 UNK        -0.5000 
     80 CA         -1.3157  -22.7640  -49.3901 C.3       14 UNK         0.1400 
     81 CB          0.1571  -22.3619  -49.5515 C.3       14 UNK        -0.1800 
     82 C          -2.1006  -22.5043  -50.6898 C.2       14 UNK         0.5000 
     83 O          -2.3145  -23.4334  -51.4678 O.2       14 UNK        -0.5000 
     84 N          -2.5647  -21.2592  -50.8623 N.am      15 UNK        -0.5000 
     85 CA         -3.4490  -20.8335  -51.9472 C.3       15 UNK         0.1400 
     86 CB         -3.3533  -19.3038  -52.0703 C.3       15 UNK        -0.1800 
     87 C          -4.9202  -21.2623  -51.7555 C.2       15 UNK         0.5000 
     88 O          -5.7274  -21.0405  -52.6592 O.2       15 UNK        -0.5000 
     89 N          -5.2628  -21.8126  -50.5808 N.am      16 UNK        -0.5000 
     90 CA         -6.6007  -22.2236  -50.1410 C.3       16 UNK         0.1400 
     91 CB         -7.0643  -23.4668  -50.9269 C.3       16 UNK        -0.1800 
     92 C          -7.6200  -21.0670  -50.1980 C.2       16 UNK         0.5000 
     93 O          -8.7116  -21.2300  -50.7417 O.2       16 UNK        -0.5000 
     94 N          -7.2145  -19.8915  -49.6954 N.am      17 UNK        -0.5000 
     95 CA         -7.9356  -18.6129  -49.7624 C.3       17 UNK         0.1400 
     96 CB         -9.2100  -18.6535  -48.8942 C.3       17 UNK        -0.1800 
     97 C          -8.2038  -18.1572  -51.2156 C.2       17 UNK         0.5000 
     98 O          -9.2472  -17.5700  -51.5040 O.2       17 UNK        -0.5000 
     99 N          -7.2439  -18.4673  -52.0987 N.am      18 UNK        -0.5000 
    100 CA        -7.2215  -18.2562  -53.5486 C.3       18 UNK         0.1400 
    101 CB        -7.4179  -16.7715  -53.9170 C.3       18 UNK        -0.1800 
    102 C         -8.1479  -19.1970  -54.3481 C.2       18 UNK         0.5000 
    103 O         -8.2788  -19.0113  -55.5588 O.2       18 UNK        -0.5000 
    104 N         -8.7394  -20.2140  -53.7015 N.am      19 UNK        -0.5000 
    105 CA        -9.5455  -21.2433  -54.3667 C.3       19 UNK         0.1400 
    106 CB       -10.4290  -21.9597  -53.3350 C.3       19 UNK        -0.1800 
    107 C         -8.6902  -22.2660  -55.1406 C.2       19 UNK         0.5000 
    108 O         -9.2024  -22.9052  -56.0603 O.2       19 UNK        -0.5000 
    109 N         -7.4113  -22.3968  -54.7694 N.am      20 UNK        -0.5000 
    110 CA        -6.4207  -23.2503  -55.4175 C.3       20 UNK         0.1400 
    111 CB        -6.3378  -24.6004  -54.6815 C.3       20 UNK        -0.1800 
    112 C         -5.0880  -22.4881  -55.4500 C.2       20 UNK         0.5000 
    113 O         -4.0776  -22.9804  -54.9463 O.2       20 UNK        -0.5000 
    114 N         -5.1411  -21.2597  -55.9858 N.am      21 UNK        -0.5000 
    115 CA        -4.0497  -20.2873  -56.0102 C.3       21 UNK         0.1400 
    116 CB        -4.5323  -19.0072  -56.7086 C.3       21 UNK        -0.1800 
    117 C         -2.7671  -20.8205  -56.6752 C.2       21 UNK         0.5000 
    118 O         -2.8303  -21.3923  -57.7661 O.2       21 UNK        -0.5000 
    119 N         -1.6363  -20.6122  -55.9955 N.am      22 UNK        -0.5000 
    120 CA        -0.2895  -20.9949  -56.4369 C.3       22 UNK         0.1400 
    121 C          0.1769  -20.1948  -57.6856 C.2       22 UNK         0.5000 
    122 N          0.8784  -20.8323  -58.6125 N.am      22 UNK        -0.7600 
    123 O         -0.0539  -18.9930  -57.7997 O.2       22 UNK        -0.5000 
    124 C124        0.7267  -20.8317  -55.2803 C.3       23 UNK        -0.0398 
    125 S125        0.3695  -21.9502  -53.8761 S.3       23 UNK        -0.2404 
    126 C126        2.0364  -22.5423  -53.4151 C.3       23 UNK        -0.0205 
    127 H127        4.8611  -22.5955  -41.7851 H         1 UNK         0.0600 
    128 H128        5.6936  -21.5209  -42.9106 H         1 UNK         0.0600 
    129 H129        6.0647  -23.2464  -42.9029 H         1 UNK         0.0600 
    130 H130        4.4025  -20.9330  -44.6238 H         1 UNK         0.3000 
    131 H131        2.8510  -22.8749  -46.1204 H         1 UNK         0.0600 
    132 H132        2.4771  -21.0504  -47.7290 H         1 UNK         0.0800 
    133 H133        3.1327  -19.8802  -46.6162 H         1 UNK         0.0800 
    134 H134        3.9314  -23.0871  -48.7534 H         1 UNK         0.0800 
    135 H135        5.5128  -22.6786  -49.3726 H         1 UNK         0.0800 
    136 H136        3.2985  -23.3682  -51.1501 H         1 UNK         0.1150 
    137 H137        2.2702  -19.7948  -53.2888 H         1 UNK         0.1150 
    138 H138        4.4377  -19.5213  -49.6313 H         1 UNK         0.1150 
    139 H139        4.0353  -17.5357  -50.9273 H         1 UNK         0.0800 
    140 H140        3.3801  -17.6481  -52.5436 H         1 UNK         0.0800 
    141 H141        2.5598  -18.1270  -48.8193 H         1 UNK         0.0800 
    142 H142        1.4514  -19.3154  -49.4319 H         1 UNK         0.0800 
    143 H143        0.7513  -18.3062  -47.3382 H         1 UNK         0.0600 
    144 H144        1.1692  -16.2387  -46.9680 H         1 UNK         0.3000 
    145 H145        0.7143  -13.1556  -48.2616 H         1 UNK         0.0600 
    146 H146       -0.8380  -12.5606  -46.3959 H         1 UNK         0.0600 
    147 H147       -1.7104  -13.3387  -47.7080 H         1 UNK         0.0600 
    148 H148       -1.3307  -14.2464  -46.2495 H         1 UNK         0.0600 
    149 H149        1.0119  -14.2213  -45.5644 H         1 UNK         0.3000 
    150 H150        4.5287  -14.7889  -45.8250 H         1 UNK         0.0600 
    151 H151        4.2532  -12.4026  -45.1225 H         1 UNK         0.0600 
    152 H152        4.4707  -13.4600  -43.7361 H         1 UNK         0.0600 
    153 H153        2.8677  -12.8452  -44.1317 H         1 UNK         0.0600 
    154 H154        2.6960  -15.2927  -43.7144 H         1 UNK         0.3000 
    155 H155        1.5753  -18.5172  -44.8087 H         1 UNK         0.0600 
    156 H156        3.3992  -17.6533  -42.5043 H         1 UNK         0.0600 
    157 H157        3.7393  -18.9351  -43.6572 H         1 UNK         0.0600 
    158 H158        2.3982  -19.1013  -42.5335 H         1 UNK         0.0600 
    159 H159        1.0003  -16.9517  -42.4894 H         1 UNK         0.3000 
    160 H160       -1.8393  -15.2618  -43.8282 H         1 UNK         0.0600 
    161 H161       -2.9734  -16.3759  -41.9322 H         1 UNK         0.0600 
    162 H162       -1.6780  -17.5636  -41.8098 H         1 UNK         0.0600 
    163 H163       -2.7102  -17.5267  -43.2330 H         1 UNK         0.0600 
    164 H164       -0.5989  -15.4263  -41.2247 H         1 UNK         0.3000 
    165 H165        1.6003  -12.6591  -41.6620 H         1 UNK         0.0600 
    166 H166        0.3519  -11.8886  -39.6648 H         1 UNK         0.0600 
    167 H167       -0.6300  -11.6784  -41.1058 H         1 UNK         0.0600 
    168 H168       -0.9603  -13.0152  -40.0103 H         1 UNK         0.0600 
    169 H169        1.0360  -14.3840  -39.4427 H         1 UNK         0.3000 
    170 H170        3.5322  -16.8343  -40.1879 H         1 UNK         0.0600 
    171 H171        4.7366  -14.8989  -39.1577 H         1 UNK         0.0600 
    172 H172        3.3952  -14.6470  -38.0472 H         1 UNK         0.0600 
    173 H173        4.3472  -16.1299  -37.9680 H         1 UNK         0.0600 
    174 H174        1.9066  -16.6707  -37.9264 H         1 UNK         0.3000 
    175 H175        0.4529  -18.3538  -37.5892 H         1 UNK         0.0600 
    176 H176       -1.8171  -17.2280  -39.3331 H         1 UNK         0.0600 
    177 H177       -2.0055  -17.8883  -37.7109 H         1 UNK         0.0600 
    178 H178       -1.0792  -16.4162  -37.9566 H         1 UNK         0.0600 
    179 H179       -0.6681  -19.4994  -40.1101 H         1 UNK         0.3000 
    180 H180        0.1809  -22.7237  -39.1773 H         1 UNK         0.0600 
    181 H181       -2.7463  -21.8266  -39.0186 H         1 UNK         0.0600 
    182 H182       -1.8877  -22.7411  -37.7851 H         1 UNK         0.0600 
    183 H183       -2.1824  -23.4639  -39.3575 H         1 UNK         0.0600 
    184 H184       -1.6237  -21.7089  -41.1855 H         1 UNK         0.3000 
    185 H185       -0.6038  -22.2541  -43.4447 H         1 UNK         0.0600 
    186 H186       -1.7346  -20.1404  -42.9562 H         1 UNK         0.0600 
    187 H187       -0.2140  -19.2919  -42.7800 H         1 UNK         0.0600 
    188 H188       -0.7635  -19.7988  -44.3773 H         1 UNK         0.0600 
    189 H189        2.0862  -21.5419  -43.2855 H         1 UNK         0.3000 
    190 H190       -1.4976  -17.1248  -46.8974 H         1 UNK         0.3000 
    191 H191       -3.5639  -17.4048  -48.8099 H         1 UNK         0.0600 
    192 H192       -5.0533  -16.9289  -46.8502 H         1 UNK         0.0600 
    193 H193       -3.6762  -15.8385  -46.8989 H         1 UNK         0.0600 
    194 H194       -3.6976  -17.1786  -45.7545 H         1 UNK         0.0600 
    195 H195       -2.4809  -19.6402  -46.2393 H         1 UNK         0.3000 
    196 H196       -4.6949  -21.4716  -46.5681 H         1 UNK         0.0600 
    197 H197       -3.4124  -22.9200  -45.0403 H         1 UNK         0.0600 
    198 H198       -3.4323  -21.2729  -44.4269 H         1 UNK         0.0600 
    199 H199       -1.9907  -21.9073  -45.2262 H         1 UNK         0.0600 
    200 H200       -1.3306  -21.3527  -47.8049 H         1 UNK         0.3000 
    201 H201       -1.3534  -23.8362  -49.1868 H         1 UNK         0.0600 
    202 H202        0.6138  -22.9032  -50.3804 H         1 UNK         0.0600 
    203 H203        0.7329  -22.5924  -48.6555 H         1 UNK         0.0600 
    204 H204        0.2639  -21.2980  -49.7607 H         1 UNK         0.0600 
    205 H205       -2.2859  -20.5417  -50.2004 H         1 UNK         0.3000 
    206 H206       -3.0972  -21.2800  -52.8793 H         1 UNK         0.0600 
    207 H207       -2.3292  -18.9897  -52.2740 H         1 UNK         0.0600 
    208 H208       -3.9758  -18.9259  -52.8810 H         1 UNK         0.0600 
    209 H209       -3.6755  -18.8089  -51.1532 H         1 UNK         0.0600 
    210 H210       -4.5305  -21.9438  -49.8957 H         1 UNK         0.3000 
    211 H211       -6.5096  -22.5055  -49.0914 H         1 UNK         0.0600 
    212 H212       -6.3222  -24.2635  -50.8788 H         1 UNK         0.0600 
    213 H213       -7.2431  -23.2367  -51.9769 H         1 UNK         0.0600 
    214 H214       -7.9945  -23.8625  -50.5180 H         1 UNK         0.0600 
    215 H215       -6.2869  -19.8468  -49.2726 H         1 UNK         0.3000 
    216 H216       -7.2676  -17.8666  -49.3303 H         1 UNK         0.0600 
    217 H217       -9.6693  -17.6668  -48.8283 H         1 UNK         0.0600 
    218 H218       -8.9831  -18.9731  -47.8774 H         1 UNK         0.0600 
    219 H219       -9.9579  -19.3344  -49.3012 H         1 UNK         0.0600 
    220 H220       -6.4715  -19.0178  -51.7502 H         1 UNK         0.3000 
    221 H221       -6.2111  -18.5264  -53.8565 H         1 UNK         0.0600 
    222 H222       -8.4402  -16.4387  -53.7372 H         1 UNK         0.0600 
    223 H223       -6.7478  -16.1302  -53.3447 H         1 UNK         0.0600 
    224 H224       -7.2040  -16.6005  -54.9725 H         1 UNK         0.0600 
    225 H225       -8.5867  -20.3301  -52.7064 H         1 UNK         0.3000 
    226 H226      -10.2047  -20.7510  -55.0847 H         1 UNK         0.0600 
    227 H227      -11.1457  -22.6166  -53.8291 H         1 UNK         0.0600 
    228 H228       -9.8381  -22.5779  -52.6590 H         1 UNK         0.0600 
    229 H229      -10.9974  -21.2494  -52.7345 H         1 UNK         0.0600 
    230 H230       -7.0523  -21.8177  -54.0152 H         1 UNK         0.3000 
    231 H231       -6.7040  -23.4366  -56.4552 H         1 UNK         0.0600 
    232 H232       -7.3059  -25.1006  -54.6630 H         1 UNK         0.0600 
    233 H233       -6.0041  -24.4764  -53.6511 H         1 UNK         0.0600 
    234 H234       -5.6339  -25.2703  -55.1762 H         1 UNK         0.0600 
    235 H235       -6.0198  -20.9506  -56.3743 H         1 UNK         0.3000 
    236 H236       -3.8265  -20.0411  -54.9721 H         1 UNK         0.0600 
    237 H237       -5.3989  -18.5800  -56.2049 H         1 UNK         0.0600 
    238 H238       -3.7509  -18.2463  -56.7118 H         1 UNK         0.0600 
    239 H239       -4.8085  -19.1974  -57.7461 H         1 UNK         0.0600 
    240 H240       -1.6777  -20.1284  -55.1120 H         1 UNK         0.3000 
    241 H241       -0.3268  -22.0510  -56.7116 H         1 UNK         0.0600 
    242 H242        1.2002  -20.3216  -59.4205 H         1 UNK         0.3800 
    243 H243        1.0844  -21.8168  -58.5383 H         1 UNK         0.3800 
    244 H244        1.7392  -21.0219  -55.6394 H         1 UNK         0.0800 
    245 H245        0.7198  -19.8018  -54.9207 H         1 UNK         0.0800 
    246 H246        2.6795  -22.6093  -54.2929 H         1 UNK         0.0800 
    247 H247        1.9254  -23.5635  -53.0477 H         1 UNK         0.0800 
@<TRIPOS>BOND
     1    1    2 1    
     2    1  127 1    
     3    1  128 1    
     4    1  129 1    
     5    2    3 2    
     6    2    4 am   BACKBONE|DICT|INTERRES
     7    4    5 1    
     8    4  130 1    
     9    5    6 1    
    10    5   65 1    
    11    5  131 1    
    12    6    7 1    
    13    6  132 1    
    14    6  133 1    
    15    7    8 1    
    16    8    9 1    
    17    8  134 1    
    18    8  135 1    
    19    9   10 ar   
    20    9   14 ar   
    21   10   11 ar   
    22   10  136 1    
    23   11   12 ar   
    24   11  126 1    
    25   12   13 ar   
    26   12  137 1    
    27   13   14 ar   
    28   13   15 1    
    29   14  138 1    
    30   15   16 1    
    31   15  139 1    
    32   15  140 1    
    33   16   17 1    
    34   17   18 1    
    35   17  141 1    
    36   17  142 1    
    37   18   19 1    
    38   18   67 1    
    39   18  143 1    
    40   19   20 am   BACKBONE|DICT|INTERRES
    41   19  144 1    
    42   20   21 2    
    43   20   22 1    
    44   22   23 1    
    45   22   24 1    
    46   22  145 1    
    47   23  146 1    
    48   23  147 1    
    49   23  148 1    
    50   24   25 am   BACKBONE|DICT|INTERRES
    51   24  149 1    
    52   25   26 2    
    53   25   27 1    
    54   27   28 1    
    55   27   29 1    
    56   27  150 1    
    57   28  151 1    
    58   28  152 1    
    59   28  153 1    
    60   29   30 am   BACKBONE|DICT|INTERRES
    61   29  154 1    
    62   30   31 2    
    63   30   32 1    
    64   32   33 1    
    65   32   34 1    
    66   32  155 1    
    67   33  156 1    
    68   33  157 1    
    69   33  158 1    
    70   34   35 am   BACKBONE|DICT|INTERRES
    71   34  159 1    
    72   35   36 2    
    73   35   37 1    
    74   37   38 1    
    75   37   39 1    
    76   37  160 1    
    77   38  161 1    
    78   38  162 1    
    79   38  163 1    
    80   39   40 am   BACKBONE|DICT|INTERRES
    81   39  164 1    
    82   40   41 2    
    83   40   42 1    
    84   42   43 1    
    85   42   44 1    
    86   42  165 1    
    87   43  166 1    
    88   43  167 1    
    89   43  168 1    
    90   44   45 am   BACKBONE|DICT|INTERRES
    91   44  169 1    
    92   45   46 2    
    93   45   47 1    
    94   47   48 1    
    95   47   49 1    
    96   47  170 1    
    97   48  171 1    
    98   48  172 1    
    99   48  173 1    
   100   49   50 am   BACKBONE|DICT|INTERRES
   101   49  174 1    
   102   50   51 2    
   103   50   52 1    
   104   52   53 1    
   105   52   54 1    
   106   52  175 1    
   107   53  176 1    
   108   53  177 1    
   109   53  178 1    
   110   54   55 am   BACKBONE|DICT|INTERRES
   111   54  179 1    
   112   55   56 2    
   113   55   57 1    
   114   57   58 1    
   115   57   59 1    
   116   57  180 1    
   117   58  181 1    
   118   58  182 1    
   119   58  183 1    
   120   59   60 am   BACKBONE|DICT|INTERRES
   121   59  184 1    
   122   60   61 2    
   123   60   62 1    
   124   62   63 1    
   125   62   64 1    
   126   62  185 1    
   127   63  186 1    
   128   63  187 1    
   129   63  188 1    
   130   64   65 am   BACKBONE|DICT|INTERRES
   131   64  189 1    
   132   65   66 2    
   133   67   68 2    
   134   67   69 am   BACKBONE|DICT|INTERRES
   135   69   70 1    
   136   69  190 1    
   137   70   71 1    
   138   70   72 1    
   139   70  191 1    
   140   71  192 1    
   141   71  193 1    
   142   71  194 1    
   143   72   73 2    
   144   72   74 am   BACKBONE|DICT|INTERRES
   145   74   75 1    
   146   74  195 1    
   147   75   76 1    
   148   75   77 1    
   149   75  196 1    
   150   76  197 1    
   151   76  198 1    
   152   76  199 1    
   153   77   78 2    
   154   77   79 am   BACKBONE|DICT|INTERRES
   155   79   80 1    
   156   79  200 1    
   157   80   81 1    
   158   80   82 1    
   159   80  201 1    
   160   81  202 1    
   161   81  203 1    
   162   81  204 1    
   163   82   83 2    
   164   82   84 am   BACKBONE|DICT|INTERRES
   165   84   85 1    
   166   84  205 1    
   167   85   86 1    
   168   85   87 1    
   169   85  206 1    
   170   86  207 1    
   171   86  208 1    
   172   86  209 1    
   173   87   88 2    
   174   87   89 am   BACKBONE|DICT|INTERRES
   175   89   90 1    
   176   89  210 1    
   177   90   91 1    
   178   90   92 1    
   179   90  211 1    
   180   91  212 1    
   181   91  213 1    
   182   91  214 1    
   183   92   93 2    
   184   92   94 am   BACKBONE|DICT|INTERRES
   185   94   95 1    
   186   94  215 1    
   187   95   96 1    
   188   95   97 1    
   189   95  216 1    
   190   96  217 1    
   191   96  218 1    
   192   96  219 1    
   193   97   98 2    
   194   97   99 am   BACKBONE|DICT|INTERRES
   195   99  100 1    
   196   99  220 1    
   197  100  101 1    
   198  100  102 1    
   199  100  221 1    
   200  101  222 1    
   201  101  223 1    
   202  101  224 1    
   203  102  103 2    
   204  102  104 am   BACKBONE|DICT|INTERRES
   205  104  105 1    
   206  104  225 1    
   207  105  106 1    
   208  105  107 1    
   209  105  226 1    
   210  106  227 1    
   211  106  228 1    
   212  106  229 1    
   213  107  108 2    
   214  107  109 am   BACKBONE|DICT|INTERRES
   215  109  110 1    
   216  109  230 1    
   217  110  111 1    
   218  110  112 1    
   219  110  231 1    
   220  111  232 1    
   221  111  233 1    
   222  111  234 1    
   223  112  113 2    
   224  112  114 am   BACKBONE|DICT|INTERRES
   225  114  115 1    
   226  114  235 1    
   227  115  116 1    
   228  115  117 1    
   229  115  236 1    
   230  116  237 1    
   231  116  238 1    
   232  116  239 1    
   233  117  118 2    
   234  117  119 am   BACKBONE|DICT|INTERRES
   235  119  120 1    
   236  119  240 1    
   237  120  121 1    
   238  120  124 1    
   239  120  241 1    
   240  121  122 am   BACKBONE|DICT|INTERRES
   241  121  123 2    
   242  122  242 1    
   243  122  243 1    
   244  124  125 1    
   245  124  244 1    
   246  124  245 1    
   247  125  126 1    
   248  126  246 1    
   249  126  247 1    
@<TRIPOS>SUBSTRUCTURE
     1 UNK         1 GROUP             0       ****    0 ROOT    
