@<TRIPOS>MOLECULE
3R540
247   249    1
SMALL
USER_CHARGES


@<TRIPOS>ATOM
      1 CA         -4.5861  -14.4317  -48.8164 C.3       0 UNK        -0.1800 
      2 C          -3.1373  -14.4298  -49.2816 C.2       0 UNK         0.5000 
      3 O          -2.4150  -15.3921  -49.0248 O.2       0 UNK        -0.5000 
      4 N          -2.7158  -13.3511  -49.9563 N.am      1 UNK        -0.5000 
      5 CA         -1.3914  -13.0969  -50.5497 C.3       1 UNK         0.1400 
      6 C6         -0.9440  -14.1465  -51.6017 C.3       23 UNK        -0.0398 
      7 S7         -2.1218  -14.4064  -52.9799 S.3       23 UNK        -0.2404 
      8 C8         -2.7026  -16.1226  -52.7280 C.3       23 UNK        -0.0205 
      9 C9         -1.5620  -17.1065  -52.5011 C.ar      23 UNK        -0.0193 
     10 C10        -0.6239  -17.3642  -53.5026 C.ar      23 UNK        -0.1150 
     11 C11         0.4703  -18.1985  -53.2517 C.ar      23 UNK        -0.0193 
     12 C12         0.6125  -18.7909  -51.9909 C.ar      23 UNK        -0.1150 
     13 C13        -0.3160  -18.5307  -50.9731 C.ar      23 UNK        -0.0193 
     14 C14        -1.4088  -17.7089  -51.2519 C.ar      23 UNK        -0.1150 
     15 C15        -0.1892  -19.0788  -49.5521 C.3       23 UNK        -0.0205 
     16 S16         1.4871  -19.5956  -49.0459 S.3       23 UNK        -0.2404 
     17 C17         1.2481  -19.8133  -47.2477 C.3       23 UNK        -0.0398 
     18 CA          0.9317  -21.2712  -46.8316 C.3       11 UNK         0.1400 
     19 N           1.1363  -21.4858  -45.3995 N.am      11 UNK        -0.5000 
     20 C           1.1038  -22.6781  -44.7878 C.2       10 UNK         0.5000 
     21 O           0.9795  -23.7513  -45.3793 O.2       10 UNK        -0.5000 
     22 CA          1.1723  -22.6615  -43.2494 C.3       10 UNK         0.1400 
     23 CB          2.6227  -22.5195  -42.7645 C.3       10 UNK        -0.1800 
     24 N           0.3495  -21.6019  -42.6613 N.am      10 UNK        -0.5000 
     25 C          -0.9852  -21.5298  -42.7778 C.2       9 UNK         0.5000 
     26 O          -1.6688  -22.3704  -43.3634 O.2       9 UNK        -0.5000 
     27 CA         -1.6678  -20.2883  -42.1769 C.3       9 UNK         0.1400 
     28 CB         -1.8162  -20.4339  -40.6552 C.3       9 UNK        -0.1800 
     29 N          -0.9619  -19.0449  -42.4930 N.am      9 UNK        -0.5000 
     30 C          -0.8004  -18.5630  -43.7341 C.2       8 UNK         0.5000 
     31 O          -1.2610  -19.0981  -44.7393 O.2       8 UNK        -0.5000 
     32 CA          0.0727  -17.3107  -43.9017 C.3       8 UNK         0.1400 
     33 CB         -0.7102  -16.0312  -43.5741 C.3       8 UNK        -0.1800 
     34 N           1.2918  -17.3667  -43.1034 N.am      8 UNK        -0.5000 
     35 C           2.2632  -18.2763  -43.2527 C.2       7 UNK         0.5000 
     36 O           2.2510  -19.1595  -44.1098 O.2       7 UNK        -0.5000 
     37 CA          3.4170  -18.2160  -42.2404 C.3       7 UNK         0.1400 
     38 CB          4.4301  -17.1288  -42.6277 C.3       7 UNK        -0.1800 
     39 N           2.9318  -17.9755  -40.8821 N.am      7 UNK        -0.5000 
     40 C           2.2384  -18.8652  -40.1589 C.2       6 UNK         0.5000 
     41 O           1.9520  -19.9966  -40.5535 O.2       6 UNK        -0.5000 
     42 CA          1.7571  -18.3938  -38.7745 C.3       6 UNK         0.1400 
     43 CB          2.8958  -18.4707  -37.7463 C.3       6 UNK        -0.1800 
     44 N           1.2110  -17.0347  -38.7969 N.am      6 UNK        -0.5000 
     45 C           0.0769  -16.6955  -39.4242 C.2       5 UNK         0.5000 
     46 O          -0.6181  -17.4900  -40.0560 O.2       5 UNK        -0.5000 
     47 CA         -0.3399  -15.2142  -39.3670 C.3       5 UNK         0.1400 
     48 CB         -1.0423  -14.9045  -38.0362 C.3       5 UNK        -0.1800 
     49 N           0.7412  -14.2448  -39.5827 N.am      5 UNK        -0.5000 
     50 C           1.5851  -14.2346  -40.6235 C.2       4 UNK         0.5000 
     51 O           1.6738  -15.1529  -41.4369 O.2       4 UNK        -0.5000 
     52 CA          2.4506  -12.9735  -40.7949 C.3       4 UNK         0.1400 
     53 CB          3.9530  -13.2788  -40.6347 C.3       4 UNK        -0.1800 
     54 N           2.1389  -12.2971  -42.0623 N.am      4 UNK        -0.5000 
     55 C           2.4209  -12.6909  -43.3139 C.2       3 UNK         0.5000 
     56 O           3.1666  -13.6282  -43.6104 O.2       3 UNK        -0.5000 
     57 CA          1.7574  -11.8753  -44.4356 C.3       3 UNK         0.1400 
     58 CB          2.5358  -10.5775  -44.7071 C.3       3 UNK        -0.1800 
     59 N           1.7393  -12.6822  -45.6523 N.am      3 UNK        -0.5000 
     60 C           0.6711  -12.9333  -46.4143 C.2       2 UNK         0.5000 
     61 O          -0.4448  -12.4428  -46.2238 O.2       2 UNK        -0.5000 
     62 CA          0.8997  -13.9421  -47.5562 C.3       2 UNK         0.1400 
     63 CB          0.9198  -15.3806  -47.0146 C.3       2 UNK        -0.1800 
     64 N          -0.1216  -13.8693  -48.5962 N.am      2 UNK        -0.5000 
     65 C          -0.2702  -12.8986  -49.5027 C.2       1 UNK         0.5000 
     66 O           0.4490  -11.8997  -49.5595 O.2       1 UNK        -0.5000 
     67 C          -0.4872  -21.6973  -47.2571 C.2       11 UNK         0.5000 
     68 O          -0.6225  -22.4950  -48.1823 O.2       11 UNK        -0.5000 
     69 N          -1.5170  -21.1855  -46.5667 N.am      12 UNK        -0.5000 
     70 CA         -2.9302  -21.4385  -46.8530 C.3       12 UNK         0.1400 
     71 CB         -3.8137  -20.6085  -45.9110 C.3       12 UNK        -0.1800 
     72 C          -3.3244  -22.9218  -46.7816 C.2       12 UNK         0.5000 
     73 O          -4.1334  -23.3627  -47.5974 O.2       12 UNK        -0.5000 
     74 N          -2.7287  -23.6659  -45.8404 N.am      13 UNK        -0.5000 
     75 CA         -2.9038  -25.1110  -45.6936 C.3       13 UNK         0.1400 
     76 CB         -2.2011  -25.5797  -44.4106 C.3       13 UNK        -0.1800 
     77 C          -2.4003  -25.9085  -46.9126 C.2       13 UNK         0.5000 
     78 O          -3.0359  -26.8908  -47.2971 O.2       13 UNK        -0.5000 
     79 N          -1.2864  -25.4634  -47.5092 N.am      14 UNK        -0.5000 
     80 CA         -0.7180  -26.0418  -48.7264 C.3       14 UNK         0.1400 
     81 CB          0.7788  -25.7012  -48.7974 C.3       14 UNK        -0.1800 
     82 C          -1.4491  -25.5530  -49.9900 C.2       14 UNK         0.5000 
     83 O          -1.7025  -26.3469  -50.8956 O.2       14 UNK        -0.5000 
     84 N          -1.7833  -24.2575  -50.0204 N.am      15 UNK        -0.5000 
     85 CA         -2.3796  -23.5472  -51.1519 C.3       15 UNK         0.1400 
     86 CB         -1.9062  -22.0843  -51.1118 C.3       15 UNK        -0.1800 
     87 C          -3.9167  -23.6374  -51.2224 C.2       15 UNK         0.5000 
     88 O          -4.5286  -22.8008  -51.8857 O.2       15 UNK        -0.5000 
     89 N          -4.5191  -24.6248  -50.5439 N.am      16 UNK        -0.5000 
     90 CA         -5.9486  -24.9610  -50.5586 C.3       16 UNK         0.1400 
     91 CB         -6.3327  -25.5732  -51.9220 C.3       16 UNK        -0.1800 
     92 C          -6.8532  -23.7756  -50.1582 C.2       16 UNK         0.5000 
     93 O          -7.7455  -23.3874  -50.9144 O.2       16 UNK        -0.5000 
     94 N          -6.5737  -23.2171  -48.9735 N.am      17 UNK        -0.5000 
     95 CA         -7.1874  -22.0256  -48.3803 C.3       17 UNK         0.1400 
     96 CB         -8.7151  -22.1766  -48.2141 C.3       17 UNK        -0.1800 
     97 C          -6.7622  -20.7308  -49.1018 C.2       17 UNK         0.5000 
     98 O          -7.5808  -19.8301  -49.2925 O.2       17 UNK        -0.5000 
     99 N          -5.4683  -20.6634  -49.4524 N.am      18 UNK        -0.5000 
    100 CA        -4.7670  -19.5185  -50.0459 C.3       18 UNK         0.1400 
    101 CB        -4.7195  -18.3350  -49.0557 C.3       18 UNK        -0.1800 
    102 C         -5.3066  -19.1267  -51.4357 C.2       18 UNK         0.5000 
    103 O         -5.5651  -17.9493  -51.6947 O.2       18 UNK        -0.5000 
    104 N         -5.4650  -20.1263  -52.3120 N.am      19 UNK        -0.5000 
    105 CA        -5.8230  -19.9348  -53.7145 C.3       19 UNK         0.1400 
    106 CB        -6.2512  -21.2851  -54.3107 C.3       19 UNK        -0.1800 
    107 C         -4.6445  -19.3487  -54.5132 C.2       19 UNK         0.5000 
    108 O         -3.4859  -19.6489  -54.2166 O.2       19 UNK        -0.5000 
    109 N         -4.9647  -18.5745  -55.5586 N.am      20 UNK        -0.5000 
    110 CA        -4.0043  -17.9296  -56.4644 C.3       20 UNK         0.1400 
    111 CB        -4.7645  -16.9557  -57.3779 C.3       20 UNK        -0.1800 
    112 C         -3.1530  -18.9094  -57.3009 C.2       20 UNK         0.5000 
    113 O         -2.1421  -18.4985  -57.8707 O.2       20 UNK        -0.5000 
    114 N         -3.5639  -20.1841  -57.3480 N.am      21 UNK        -0.5000 
    115 CA        -2.8036  -21.2987  -57.9136 C.3       21 UNK         0.1400 
    116 CB        -3.7500  -22.4976  -58.0850 C.3       21 UNK        -0.1800 
    117 C         -1.5751  -21.6978  -57.0661 C.2       21 UNK         0.5000 
    118 O         -0.6947  -22.3848  -57.5870 O.2       21 UNK        -0.5000 
    119 N         -1.5343  -21.2635  -55.7971 N.am      22 UNK        -0.5000 
    120 CA        -0.4822  -21.5343  -54.8032 C.3       22 UNK         0.1400 
    121 C         -0.4373  -23.0230  -54.3372 C.2       22 UNK         0.5000 
    122 N          0.5194  -23.3997  -53.4974 N.am      22 UNK        -0.7600 
    123 O         -1.2784  -23.8459  -54.6928 O.2       22 UNK        -0.5000 
    124 C124        0.9203  -21.0022  -55.2236 C.3       23 UNK        -0.0398 
    125 S125        0.9188  -19.2652  -55.7870 S.3       23 UNK        -0.2404 
    126 C126        1.5387  -18.3863  -54.3197 C.3       23 UNK        -0.0205 
    127 H127       -5.1541  -15.1815  -49.3671 H         1 UNK         0.0600 
    128 H128       -5.0626  -13.4630  -48.9686 H         1 UNK         0.0600 
    129 H129       -4.6394  -14.6735  -47.7549 H         1 UNK         0.0600 
    130 H130       -3.3757  -12.5995  -50.0979 H         1 UNK         0.3000 
    131 H131       -1.4938  -12.1443  -51.0721 H         1 UNK         0.0600 
    132 H132       -0.0018  -13.8337  -52.0553 H         1 UNK         0.0800 
    133 H133       -0.7216  -15.0900  -51.1075 H         1 UNK         0.0800 
    134 H134       -3.3938  -16.1355  -51.8839 H         1 UNK         0.0800 
    135 H135       -3.2817  -16.4379  -53.5961 H         1 UNK         0.0800 
    136 H136       -0.7255  -16.8863  -54.4669 H         1 UNK         0.1150 
    137 H137        1.4660  -19.4241  -51.7987 H         1 UNK         0.1150 
    138 H138       -2.1222  -17.4966  -50.4708 H         1 UNK         0.1150 
    139 H139       -0.5319  -18.3137  -48.8529 H         1 UNK         0.0800 
    140 H140       -0.8717  -19.9192  -49.4478 H         1 UNK         0.0800 
    141 H141        0.4944  -19.1176  -46.8759 H         1 UNK         0.0800 
    142 H142        2.1834  -19.5025  -46.7805 H         1 UNK         0.0800 
    143 H143        1.6368  -21.9262  -47.3483 H         1 UNK         0.0600 
    144 H144        1.3016  -20.6554  -44.8368 H         1 UNK         0.3000 
    145 H145        0.7869  -23.6185  -42.8914 H         1 UNK         0.0600 
    146 H146        2.6824  -22.5855  -41.6780 H         1 UNK         0.0600 
    147 H147        3.2507  -23.3115  -43.1740 H         1 UNK         0.0600 
    148 H148        3.0579  -21.5661  -43.0646 H         1 UNK         0.0600 
    149 H149        0.8371  -20.8823  -42.1391 H         1 UNK         0.3000 
    150 H150       -2.6686  -20.2208  -42.6081 H         1 UNK         0.0600 
    151 H151       -2.3291  -21.3616  -40.3983 H         1 UNK         0.0600 
    152 H152       -2.4007  -19.6140  -40.2376 H         1 UNK         0.0600 
    153 H153       -0.8474  -20.4427  -40.1546 H         1 UNK         0.0600 
    154 H154       -0.5906  -18.5214  -41.7053 H         1 UNK         0.3000 
    155 H155        0.3746  -17.2690  -44.9485 H         1 UNK         0.0600 
    156 H156       -1.0167  -16.0048  -42.5282 H         1 UNK         0.0600 
    157 H157       -0.1093  -15.1423  -43.7691 H         1 UNK         0.0600 
    158 H158       -1.6104  -15.9565  -44.1852 H         1 UNK         0.0600 
    159 H159        1.4084  -16.6408  -42.3975 H         1 UNK         0.3000 
    160 H160        3.9291  -19.1804  -42.2561 H         1 UNK         0.0600 
    161 H161        5.2718  -17.1073  -41.9355 H         1 UNK         0.0600 
    162 H162        3.9753  -16.1378  -42.6347 H         1 UNK         0.0600 
    163 H163        4.8324  -17.3099  -43.6252 H         1 UNK         0.0600 
    164 H164        3.0529  -17.0424  -40.5163 H         1 UNK         0.3000 
    165 H165        0.9639  -19.0720  -38.4524 H         1 UNK         0.0600 
    166 H166        2.5408  -18.2216  -36.7461 H         1 UNK         0.0600 
    167 H167        3.3123  -19.4779  -37.7006 H         1 UNK         0.0600 
    168 H168        3.7109  -17.7892  -37.9930 H         1 UNK         0.0600 
    169 H169        1.7315  -16.3177  -38.3132 H         1 UNK         0.3000 
    170 H170       -1.0645  -15.0588  -40.1687 H         1 UNK         0.0600 
    171 H171       -0.3563  -14.9795  -37.1916 H         1 UNK         0.0600 
    172 H172       -1.4658  -13.9000  -38.0371 H         1 UNK         0.0600 
    173 H173       -1.8631  -15.6001  -37.8554 H         1 UNK         0.0600 
    174 H174        0.7522  -13.4574  -38.9505 H         1 UNK         0.3000 
    175 H175        2.1813  -12.2656  -40.0094 H         1 UNK         0.0600 
    176 H176        4.5571  -12.3874  -40.8031 H         1 UNK         0.0600 
    177 H177        4.2948  -14.0512  -41.3234 H         1 UNK         0.0600 
    178 H178        4.1678  -13.6326  -39.6259 H         1 UNK         0.0600 
    179 H179        1.5257  -11.5002  -41.9620 H         1 UNK         0.3000 
    180 H180        0.7402  -11.6287  -44.1238 H         1 UNK         0.0600 
    181 H181        3.5674  -10.7805  -44.9975 H         1 UNK         0.0600 
    182 H182        2.5621   -9.9415  -43.8215 H         1 UNK         0.0600 
    183 H183        2.0705  -10.0010  -45.5069 H         1 UNK         0.0600 
    184 H184        2.5923  -13.2020  -45.8124 H         1 UNK         0.3000 
    185 H185        1.8674  -13.7261  -48.0137 H         1 UNK         0.0600 
    186 H186        1.6591  -15.4993  -46.2212 H         1 UNK         0.0600 
    187 H187       -0.0530  -15.6597  -46.6085 H         1 UNK         0.0600 
    188 H188        1.1694  -16.0952  -47.7996 H         1 UNK         0.0600 
    189 H189       -0.8157  -14.6134  -48.6075 H         1 UNK         0.3000 
    190 H190       -1.3305  -20.5186  -45.8188 H         1 UNK         0.3000 
    191 H191       -3.1119  -21.1004  -47.8737 H         1 UNK         0.0600 
    192 H192       -3.6039  -19.5436  -46.0060 H         1 UNK         0.0600 
    193 H193       -4.8711  -20.7510  -46.1360 H         1 UNK         0.0600 
    194 H194       -3.6576  -20.8864  -44.8682 H         1 UNK         0.0600 
    195 H195       -2.1225  -23.2073  -45.1673 H         1 UNK         0.3000 
    196 H196       -3.9727  -25.3076  -45.5885 H         1 UNK         0.0600 
    197 H197       -2.3235  -26.6539  -44.2666 H         1 UNK         0.0600 
    198 H198       -2.6148  -25.0844  -43.5320 H         1 UNK         0.0600 
    199 H199       -1.1312  -25.3701  -44.4388 H         1 UNK         0.0600 
    200 H200       -0.8380  -24.6311  -47.1479 H         1 UNK         0.3000 
    201 H201       -0.8129  -27.1289  -48.6812 H         1 UNK         0.0600 
    202 H202        1.3115  -26.0874  -47.9281 H         1 UNK         0.0600 
    203 H203        0.9488  -24.6248  -48.8404 H         1 UNK         0.0600 
    204 H204        1.2375  -26.1417  -49.6834 H         1 UNK         0.0600 
    205 H205       -1.4909  -23.6725  -49.2397 H         1 UNK         0.3000 
    206 H206       -2.0082  -23.9961  -52.0730 H         1 UNK         0.0600 
    207 H207       -0.8179  -22.0196  -51.1179 H         1 UNK         0.0600 
    208 H208       -2.2677  -21.5166  -51.9704 H         1 UNK         0.0600 
    209 H209       -2.2643  -21.5891  -50.2116 H         1 UNK         0.0600 
    210 H210       -3.9293  -25.2288  -49.9894 H         1 UNK         0.3000 
    211 H211       -6.0941  -25.7306  -49.7991 H         1 UNK         0.0600 
    212 H212       -6.2260  -24.8529  -52.7340 H         1 UNK         0.0600 
    213 H213       -7.3689  -25.9132  -51.9197 H         1 UNK         0.0600 
    214 H214       -5.7089  -26.4358  -52.1560 H         1 UNK         0.0600 
    215 H215       -5.7638  -23.5688  -48.4657 H         1 UNK         0.3000 
    216 H216       -6.7681  -21.9530  -47.3759 H         1 UNK         0.0600 
    217 H217       -9.1199  -21.3652  -47.6082 H         1 UNK         0.0600 
    218 H218       -8.9677  -23.1113  -47.7137 H         1 UNK         0.0600 
    219 H219       -9.2367  -22.1543  -49.1709 H         1 UNK         0.0600 
    220 H220       -4.9145  -21.4952  -49.3085 H         1 UNK         0.3000 
    221 H221       -3.7375  -19.8335  -50.2121 H         1 UNK         0.0600 
    222 H222       -5.7147  -17.9595  -48.8178 H         1 UNK         0.0600 
    223 H223       -4.2346  -18.6180  -48.1230 H         1 UNK         0.0600 
    224 H224       -4.1549  -17.5004  -49.4684 H         1 UNK         0.0600 
    225 H225       -5.1918  -21.0712  -52.0498 H         1 UNK         0.3000 
    226 H226       -6.6687  -19.2459  -53.7652 H         1 UNK         0.0600 
    227 H227       -7.0576  -21.7349  -53.7306 H         1 UNK         0.0600 
    228 H228       -6.6115  -21.1666  -55.3331 H         1 UNK         0.0600 
    229 H229       -5.4232  -21.9951  -54.3347 H         1 UNK         0.0600 
    230 H230       -5.9402  -18.3938  -55.7487 H         1 UNK         0.3000 
    231 H231       -3.3081  -17.3513  -55.8538 H         1 UNK         0.0600 
    232 H232       -5.4934  -17.4754  -58.0010 H         1 UNK         0.0600 
    233 H233       -4.0805  -16.4277  -58.0437 H         1 UNK         0.0600 
    234 H234       -5.2945  -16.2009  -56.7965 H         1 UNK         0.0600 
    235 H235       -4.4149  -20.4215  -56.8618 H         1 UNK         0.3000 
    236 H236       -2.4409  -21.0023  -58.9000 H         1 UNK         0.0600 
    237 H237       -4.5907  -22.2490  -58.7329 H         1 UNK         0.0600 
    238 H238       -3.2310  -23.3433  -58.5381 H         1 UNK         0.0600 
    239 H239       -4.1494  -22.8335  -57.1271 H         1 UNK         0.0600 
    240 H240       -2.3072  -20.7075  -55.4469 H         1 UNK         0.3000 
    241 H241       -0.7919  -20.9717  -53.9219 H         1 UNK         0.0600 
    242 H242        1.2182  -22.7608  -53.1548 H         1 UNK         0.3800 
    243 H243        0.5436  -24.3612  -53.1972 H         1 UNK         0.3800 
    244 H244        1.6288  -21.0952  -54.4004 H         1 UNK         0.0800 
    245 H245        1.3279  -21.6112  -56.0316 H         1 UNK         0.0800 
    246 H246        1.8895  -17.4019  -54.6323 H         1 UNK         0.0800 
    247 H247        2.4130  -18.9019  -53.9197 H         1 UNK         0.0800 
@<TRIPOS>BOND
     1    1    2 1    
     2    1  127 1    
     3    1  128 1    
     4    1  129 1    
     5    2    3 2    
     6    2    4 am   BACKBONE|DICT|INTERRES
     7    4    5 1    
     8    4  130 1    
     9    5    6 1    
    10    5   65 1    
    11    5  131 1    
    12    6    7 1    
    13    6  132 1    
    14    6  133 1    
    15    7    8 1    
    16    8    9 1    
    17    8  134 1    
    18    8  135 1    
    19    9   10 ar   
    20    9   14 ar   
    21   10   11 ar   
    22   10  136 1    
    23   11   12 ar   
    24   11  126 1    
    25   12   13 ar   
    26   12  137 1    
    27   13   14 ar   
    28   13   15 1    
    29   14  138 1    
    30   15   16 1    
    31   15  139 1    
    32   15  140 1    
    33   16   17 1    
    34   17   18 1    
    35   17  141 1    
    36   17  142 1    
    37   18   19 1    
    38   18   67 1    
    39   18  143 1    
    40   19   20 am   BACKBONE|DICT|INTERRES
    41   19  144 1    
    42   20   21 2    
    43   20   22 1    
    44   22   23 1    
    45   22   24 1    
    46   22  145 1    
    47   23  146 1    
    48   23  147 1    
    49   23  148 1    
    50   24   25 am   BACKBONE|DICT|INTERRES
    51   24  149 1    
    52   25   26 2    
    53   25   27 1    
    54   27   28 1    
    55   27   29 1    
    56   27  150 1    
    57   28  151 1    
    58   28  152 1    
    59   28  153 1    
    60   29   30 am   BACKBONE|DICT|INTERRES
    61   29  154 1    
    62   30   31 2    
    63   30   32 1    
    64   32   33 1    
    65   32   34 1    
    66   32  155 1    
    67   33  156 1    
    68   33  157 1    
    69   33  158 1    
    70   34   35 am   BACKBONE|DICT|INTERRES
    71   34  159 1    
    72   35   36 2    
    73   35   37 1    
    74   37   38 1    
    75   37   39 1    
    76   37  160 1    
    77   38  161 1    
    78   38  162 1    
    79   38  163 1    
    80   39   40 am   BACKBONE|DICT|INTERRES
    81   39  164 1    
    82   40   41 2    
    83   40   42 1    
    84   42   43 1    
    85   42   44 1    
    86   42  165 1    
    87   43  166 1    
    88   43  167 1    
    89   43  168 1    
    90   44   45 am   BACKBONE|DICT|INTERRES
    91   44  169 1    
    92   45   46 2    
    93   45   47 1    
    94   47   48 1    
    95   47   49 1    
    96   47  170 1    
    97   48  171 1    
    98   48  172 1    
    99   48  173 1    
   100   49   50 am   BACKBONE|DICT|INTERRES
   101   49  174 1    
   102   50   51 2    
   103   50   52 1    
   104   52   53 1    
   105   52   54 1    
   106   52  175 1    
   107   53  176 1    
   108   53  177 1    
   109   53  178 1    
   110   54   55 am   BACKBONE|DICT|INTERRES
   111   54  179 1    
   112   55   56 2    
   113   55   57 1    
   114   57   58 1    
   115   57   59 1    
   116   57  180 1    
   117   58  181 1    
   118   58  182 1    
   119   58  183 1    
   120   59   60 am   BACKBONE|DICT|INTERRES
   121   59  184 1    
   122   60   61 2    
   123   60   62 1    
   124   62   63 1    
   125   62   64 1    
   126   62  185 1    
   127   63  186 1    
   128   63  187 1    
   129   63  188 1    
   130   64   65 am   BACKBONE|DICT|INTERRES
   131   64  189 1    
   132   65   66 2    
   133   67   68 2    
   134   67   69 am   BACKBONE|DICT|INTERRES
   135   69   70 1    
   136   69  190 1    
   137   70   71 1    
   138   70   72 1    
   139   70  191 1    
   140   71  192 1    
   141   71  193 1    
   142   71  194 1    
   143   72   73 2    
   144   72   74 am   BACKBONE|DICT|INTERRES
   145   74   75 1    
   146   74  195 1    
   147   75   76 1    
   148   75   77 1    
   149   75  196 1    
   150   76  197 1    
   151   76  198 1    
   152   76  199 1    
   153   77   78 2    
   154   77   79 am   BACKBONE|DICT|INTERRES
   155   79   80 1    
   156   79  200 1    
   157   80   81 1    
   158   80   82 1    
   159   80  201 1    
   160   81  202 1    
   161   81  203 1    
   162   81  204 1    
   163   82   83 2    
   164   82   84 am   BACKBONE|DICT|INTERRES
   165   84   85 1    
   166   84  205 1    
   167   85   86 1    
   168   85   87 1    
   169   85  206 1    
   170   86  207 1    
   171   86  208 1    
   172   86  209 1    
   173   87   88 2    
   174   87   89 am   BACKBONE|DICT|INTERRES
   175   89   90 1    
   176   89  210 1    
   177   90   91 1    
   178   90   92 1    
   179   90  211 1    
   180   91  212 1    
   181   91  213 1    
   182   91  214 1    
   183   92   93 2    
   184   92   94 am   BACKBONE|DICT|INTERRES
   185   94   95 1    
   186   94  215 1    
   187   95   96 1    
   188   95   97 1    
   189   95  216 1    
   190   96  217 1    
   191   96  218 1    
   192   96  219 1    
   193   97   98 2    
   194   97   99 am   BACKBONE|DICT|INTERRES
   195   99  100 1    
   196   99  220 1    
   197  100  101 1    
   198  100  102 1    
   199  100  221 1    
   200  101  222 1    
   201  101  223 1    
   202  101  224 1    
   203  102  103 2    
   204  102  104 am   BACKBONE|DICT|INTERRES
   205  104  105 1    
   206  104  225 1    
   207  105  106 1    
   208  105  107 1    
   209  105  226 1    
   210  106  227 1    
   211  106  228 1    
   212  106  229 1    
   213  107  108 2    
   214  107  109 am   BACKBONE|DICT|INTERRES
   215  109  110 1    
   216  109  230 1    
   217  110  111 1    
   218  110  112 1    
   219  110  231 1    
   220  111  232 1    
   221  111  233 1    
   222  111  234 1    
   223  112  113 2    
   224  112  114 am   BACKBONE|DICT|INTERRES
   225  114  115 1    
   226  114  235 1    
   227  115  116 1    
   228  115  117 1    
   229  115  236 1    
   230  116  237 1    
   231  116  238 1    
   232  116  239 1    
   233  117  118 2    
   234  117  119 am   BACKBONE|DICT|INTERRES
   235  119  120 1    
   236  119  240 1    
   237  120  121 1    
   238  120  124 1    
   239  120  241 1    
   240  121  122 am   BACKBONE|DICT|INTERRES
   241  121  123 2    
   242  122  242 1    
   243  122  243 1    
   244  124  125 1    
   245  124  244 1    
   246  124  245 1    
   247  125  126 1    
   248  126  246 1    
   249  126  247 1    
@<TRIPOS>SUBSTRUCTURE
     1 UNK         1 GROUP             0       ****    0 ROOT    
