@<TRIPOS>MOLECULE
3R540
247   249    1
SMALL
USER_CHARGES


@<TRIPOS>ATOM
      1 CA         -4.6681  -14.6792  -42.8642 C.3       0 UNK        -0.1800 
      2 C          -3.4056  -14.2352  -43.5896 C.2       0 UNK         0.5000 
      3 O          -2.3470  -14.8244  -43.3830 O.2       0 UNK        -0.5000 
      4 N          -3.5210  -13.2095  -44.4424 N.am      1 UNK        -0.5000 
      5 CA         -2.4348  -12.6088  -45.2244 C.3       1 UNK         0.1400 
      6 C6         -1.7606  -13.6174  -46.2034 C.3       23 UNK        -0.0398 
      7 S7         -1.2022  -12.8374  -47.7604 S.3       23 UNK        -0.2404 
      8 C8         -2.7657  -12.6005  -48.6710 C.3       23 UNK        -0.0205 
      9 C9         -3.3337  -13.9130  -49.1851 C.ar      23 UNK        -0.0193 
     10 C10        -2.9953  -14.3771  -50.4578 C.ar      23 UNK        -0.1150 
     11 C11        -3.5098  -15.5866  -50.9316 C.ar      23 UNK        -0.0193 
     12 C12        -4.3385  -16.3533  -50.1041 C.ar      23 UNK        -0.1150 
     13 C13        -4.6893  -15.8975  -48.8275 C.ar      23 UNK        -0.0193 
     14 C14        -4.2093  -14.6584  -48.3931 C.ar      23 UNK        -0.1150 
     15 C15        -5.6187  -16.7304  -47.9477 C.3       23 UNK        -0.0205 
     16 S16        -5.2014  -16.7169  -46.1641 S.3       23 UNK        -0.2404 
     17 C17        -3.5166  -17.4264  -46.1178 C.3       23 UNK        -0.0398 
     18 CA         -3.4428  -18.9228  -46.5002 C.3       11 UNK         0.1400 
     19 N          -2.0618  -19.3607  -46.7026 N.am      11 UNK        -0.5000 
     20 C          -1.7249  -20.4990  -47.3237 C.2       10 UNK         0.5000 
     21 O          -2.5416  -21.2986  -47.7795 O.2       10 UNK        -0.5000 
     22 CA         -0.2263  -20.8240  -47.4120 C.3       10 UNK         0.1400 
     23 CB          0.4569  -19.9481  -48.4726 C.3       10 UNK        -0.1800 
     24 N           0.4526  -20.6801  -46.1245 N.am      10 UNK        -0.5000 
     25 C           0.1436  -21.3842  -45.0251 C.2       9 UNK         0.5000 
     26 O          -0.7243  -22.2563  -44.9904 O.2       9 UNK        -0.5000 
     27 CA          0.9003  -21.0311  -43.7349 C.3       9 UNK         0.1400 
     28 CB          2.2867  -21.6914  -43.7258 C.3       9 UNK        -0.1800 
     29 N           1.0314  -19.5885  -43.5259 N.am      9 UNK        -0.5000 
     30 C           0.0014  -18.7447  -43.3612 C.2       8 UNK         0.5000 
     31 O          -1.1785  -19.0942  -43.3674 O.2       8 UNK        -0.5000 
     32 CA          0.3411  -17.2518  -43.2175 C.3       8 UNK         0.1400 
     33 CB          0.9343  -16.9415  -41.8351 C.3       8 UNK        -0.1800 
     34 N           1.2535  -16.7887  -44.2581 N.am      8 UNK        -0.5000 
     35 C           0.9833  -16.8012  -45.5707 C.2       7 UNK         0.5000 
     36 O          -0.0871  -17.1722  -46.0565 O.2       7 UNK        -0.5000 
     37 CA          2.1337  -16.3730  -46.4960 C.3       7 UNK         0.1400 
     38 CB          2.2534  -14.8413  -46.5491 C.3       7 UNK        -0.1800 
     39 N           3.4116  -16.9527  -46.0771 N.am      7 UNK        -0.5000 
     40 C           3.7054  -18.2600  -46.1339 C.2       6 UNK         0.5000 
     41 O           2.9348  -19.1188  -46.5611 O.2       6 UNK        -0.5000 
     42 CA          5.0798  -18.6836  -45.5856 C.3       6 UNK         0.1400 
     43 CB          6.1857  -18.4100  -46.6159 C.3       6 UNK        -0.1800 
     44 N           5.4134  -18.0208  -44.3246 N.am      6 UNK        -0.5000 
     45 C           4.7527  -18.2108  -43.1741 C.2       5 UNK         0.5000 
     46 O           3.7973  -18.9746  -43.0503 O.2       5 UNK        -0.5000 
     47 CA          5.2088  -17.3767  -41.9651 C.3       5 UNK         0.1400 
     48 CB          6.3635  -18.0757  -41.2322 C.3       5 UNK        -0.1800 
     49 N           5.6042  -16.0067  -42.3010 N.am      5 UNK        -0.5000 
     50 C           4.8083  -15.1009  -42.8837 C.2       4 UNK         0.5000 
     51 O           3.6796  -15.3494  -43.3143 O.2       4 UNK        -0.5000 
     52 CA          5.3777  -13.6777  -43.0216 C.3       4 UNK         0.1400 
     53 CB          5.6993  -13.3676  -44.4920 C.3       4 UNK        -0.1800 
     54 N           4.4372  -12.6791  -42.5175 N.am      4 UNK        -0.5000 
     55 C           4.0002  -12.5911  -41.2522 C.2       3 UNK         0.5000 
     56 O           4.4443  -13.2765  -40.3297 O.2       3 UNK        -0.5000 
     57 CA          2.8894  -11.5602  -40.9547 C.3       3 UNK         0.1400 
     58 CB          3.4488  -10.3862  -40.1352 C.3       3 UNK        -0.1800 
     59 N           2.2303  -11.0251  -42.1506 N.am      3 UNK        -0.5000 
     60 C           1.4215  -11.7205  -42.9604 C.2       2 UNK         0.5000 
     61 O           1.1342  -12.9062  -42.7864 O.2       2 UNK        -0.5000 
     62 CA          0.9033  -10.9581  -44.1957 C.3       2 UNK         0.1400 
     63 CB          2.0308  -10.7854  -45.2282 C.3       2 UNK        -0.1800 
     64 N          -0.2142  -11.6294  -44.8545 N.am      2 UNK        -0.5000 
     65 C          -1.4361  -11.8206  -44.3420 C.2       1 UNK         0.5000 
     66 O          -1.7987  -11.3598  -43.2557 O.2       1 UNK        -0.5000 
     67 C          -4.2099  -19.8468  -45.5273 C.2       11 UNK         0.5000 
     68 O          -5.3567  -20.1930  -45.8128 O.2       11 UNK        -0.5000 
     69 N          -3.5591  -20.2936  -44.4415 N.am      12 UNK        -0.5000 
     70 CA         -4.1145  -21.2512  -43.4774 C.3       12 UNK         0.1400 
     71 CB         -3.1591  -21.4001  -42.2843 C.3       12 UNK        -0.1800 
     72 C          -4.4273  -22.6294  -44.0939 C.2       12 UNK         0.5000 
     73 O          -5.4305  -23.2444  -43.7316 O.2       12 UNK        -0.5000 
     74 N          -3.5894  -23.0682  -45.0421 N.am      13 UNK        -0.5000 
     75 CA         -3.7770  -24.2826  -45.8386 C.3       13 UNK         0.1400 
     76 CB         -2.4030  -24.7420  -46.3550 C.3       13 UNK        -0.1800 
     77 C          -4.7578  -24.1006  -47.0171 C.2       13 UNK         0.5000 
     78 O          -4.9665  -25.0538  -47.7709 O.2       13 UNK        -0.5000 
     79 N          -5.2943  -22.8824  -47.2035 N.am      14 UNK        -0.5000 
     80 CA         -6.1409  -22.4398  -48.3201 C.3       14 UNK         0.1400 
     81 CB         -7.5289  -23.1072  -48.2438 C.3       14 UNK        -0.1800 
     82 C          -5.4635  -22.6331  -49.6939 C.2       14 UNK         0.5000 
     83 O          -6.1381  -22.9059  -50.6893 O.2       14 UNK        -0.5000 
     84 N          -4.1238  -22.5534  -49.7039 N.am      15 UNK        -0.5000 
     85 CA         -3.2081  -22.8174  -50.8138 C.3       15 UNK         0.1400 
     86 CB         -3.3197  -21.6819  -51.8435 C.3       15 UNK        -0.1800 
     87 C          -3.3721  -24.2141  -51.4524 C.2       15 UNK         0.5000 
     88 O          -3.0357  -24.3853  -52.6259 O.2       15 UNK        -0.5000 
     89 N          -3.9254  -25.1756  -50.6959 N.am      16 UNK        -0.5000 
     90 CA         -4.3674  -26.4997  -51.1488 C.3       16 UNK         0.1400 
     91 CB         -3.1565  -27.3843  -51.5110 C.3       16 UNK        -0.1800 
     92 C          -5.4168  -26.4163  -52.2826 C.2       16 UNK         0.5000 
     93 O          -5.3774  -27.2170  -53.2169 O.2       16 UNK        -0.5000 
     94 N          -6.3147  -25.4224  -52.1842 N.am      17 UNK        -0.5000 
     95 CA         -7.3014  -25.0074  -53.1871 C.3       17 UNK         0.1400 
     96 CB         -8.3086  -26.1341  -53.5026 C.3       17 UNK        -0.1800 
     97 C          -6.6271  -24.4059  -54.4384 C.2       17 UNK         0.5000 
     98 O          -6.9854  -24.7503  -55.5660 O.2       17 UNK        -0.5000 
     99 N          -5.6586  -23.5088  -54.1945 N.am      18 UNK        -0.5000 
    100 CA        -4.8409  -22.7834  -55.1764 C.3       18 UNK         0.1400 
    101 CB        -5.7045  -21.7860  -55.9758 C.3       18 UNK        -0.1800 
    102 C         -3.9986  -23.7167  -56.0711 C.2       18 UNK         0.5000 
    103 O         -3.9273  -23.5179  -57.2859 O.2       18 UNK        -0.5000 
    104 N         -3.3841  -24.7258  -55.4435 N.am      19 UNK        -0.5000 
    105 CA        -2.5245  -25.7185  -56.0877 C.3       19 UNK         0.1400 
    106 CB        -3.1302  -27.1156  -55.8852 C.3       19 UNK        -0.1800 
    107 C         -1.0914  -25.6732  -55.5337 C.2       19 UNK         0.5000 
    108 O         -0.1485  -25.9030  -56.2921 O.2       19 UNK        -0.5000 
    109 N         -0.9437  -25.3800  -54.2348 N.am      20 UNK        -0.5000 
    110 CA         0.3424  -25.3057  -53.5392 C.3       20 UNK         0.1400 
    111 CB         0.1829  -25.9215  -52.1395 C.3       20 UNK        -0.1800 
    112 C          0.8684  -23.8636  -53.4284 C.2       20 UNK         0.5000 
    113 O          2.0480  -23.6787  -53.1257 O.2       20 UNK        -0.5000 
    114 N          0.0009  -22.8717  -53.6617 N.am      21 UNK        -0.5000 
    115 CA         0.3036  -21.4458  -53.5884 C.3       21 UNK         0.1400 
    116 CB         0.3820  -20.9879  -52.1139 C.3       21 UNK        -0.1800 
    117 C         -0.7194  -20.6571  -54.4276 C.2       21 UNK         0.5000 
    118 O         -1.3550  -21.2299  -55.3155 O.2       21 UNK        -0.5000 
    119 N         -0.8467  -19.3589  -54.1333 N.am      22 UNK        -0.5000 
    120 CA        -1.6707  -18.3640  -54.8403 C.3       22 UNK         0.1400 
    121 C         -3.2028  -18.6310  -54.9065 C.2       22 UNK         0.5000 
    122 N         -3.7818  -19.3925  -53.9898 N.am      22 UNK        -0.7600 
    123 O         -3.8754  -18.1276  -55.8017 O.2       22 UNK        -0.5000 
    124 C124       -1.3814  -16.9346  -54.3089 C.3       23 UNK        -0.0398 
    125 S125       -1.5395  -16.7626  -52.4903 S.3       23 UNK        -0.2404 
    126 C126       -3.1993  -16.0324  -52.3524 C.3       23 UNK        -0.0205 
    127 H127       -5.5424  -14.1138  -43.1875 H         1 UNK         0.0600 
    128 H128       -4.5508  -14.5429  -41.7892 H         1 UNK         0.0600 
    129 H129       -4.8578  -15.7353  -43.0568 H         1 UNK         0.0600 
    130 H130       -4.4165  -12.7509  -44.5321 H         1 UNK         0.3000 
    131 H131       -2.9372  -11.8440  -45.8163 H         1 UNK         0.0600 
    132 H132       -0.9157  -14.1210  -45.7294 H         1 UNK         0.0800 
    133 H133       -2.4413  -14.4281  -46.4507 H         1 UNK         0.0800 
    134 H134       -3.4986  -12.0926  -48.0437 H         1 UNK         0.0800 
    135 H135       -2.5782  -11.9295  -49.5107 H         1 UNK         0.0800 
    136 H136       -2.3377  -13.7925  -51.0860 H         1 UNK         0.1150 
    137 H137       -4.7282  -17.2950  -50.4647 H         1 UNK         0.1150 
    138 H138       -4.5001  -14.2814  -47.4231 H         1 UNK         0.1150 
    139 H139       -6.6303  -16.3393  -48.0621 H         1 UNK         0.0800 
    140 H140       -5.6559  -17.7627  -48.2969 H         1 UNK         0.0800 
    141 H141       -3.1008  -17.2685  -45.1207 H         1 UNK         0.0800 
    142 H142       -2.8882  -16.8439  -46.7928 H         1 UNK         0.0800 
    143 H143       -3.9288  -19.0296  -47.4714 H         1 UNK         0.0600 
    144 H144       -1.3295  -18.7471  -46.3572 H         1 UNK         0.3000 
    145 H145       -0.1336  -21.8667  -47.7228 H         1 UNK         0.0600 
    146 H146        1.4795  -20.2779  -48.6561 H         1 UNK         0.0600 
    147 H147       -0.0764  -19.9954  -49.4220 H         1 UNK         0.0600 
    148 H148        0.4922  -18.9011  -48.1707 H         1 UNK         0.0600 
    149 H149        1.2075  -20.0021  -46.0835 H         1 UNK         0.3000 
    150 H150        0.3292  -21.4344  -42.8964 H         1 UNK         0.0600 
    151 H151        2.2093  -22.7677  -43.8848 H         1 UNK         0.0600 
    152 H152        2.7881  -21.5404  -42.7698 H         1 UNK         0.0600 
    153 H153        2.9296  -21.2876  -44.5091 H         1 UNK         0.0600 
    154 H154        1.9809  -19.2261  -43.4847 H         1 UNK         0.3000 
    155 H155       -0.5883  -16.6922  -43.3217 H         1 UNK         0.0600 
    156 H156        0.2530  -17.2487  -41.0409 H         1 UNK         0.0600 
    157 H157        1.1125  -15.8719  -41.7174 H         1 UNK         0.0600 
    158 H158        1.8813  -17.4569  -41.6760 H         1 UNK         0.0600 
    159 H159        2.1511  -16.4260  -43.9495 H         1 UNK         0.3000 
    160 H160        1.9099  -16.7339  -47.5022 H         1 UNK         0.0600 
    161 H161        2.4372  -14.4132  -45.5629 H         1 UNK         0.0600 
    162 H162        1.3356  -14.3954  -46.9323 H         1 UNK         0.0600 
    163 H163        3.0639  -14.5295  -47.2078 H         1 UNK         0.0600 
    164 H164        4.0745  -16.3254  -45.6465 H         1 UNK         0.3000 
    165 H165        5.0453  -19.7596  -45.4017 H         1 UNK         0.0600 
    166 H166        7.1486  -18.7859  -46.2694 H         1 UNK         0.0600 
    167 H167        5.9668  -18.9047  -47.5631 H         1 UNK         0.0600 
    168 H168        6.2948  -17.3440  -46.8196 H         1 UNK         0.0600 
    169 H169        6.1828  -17.3679  -44.3364 H         1 UNK         0.3000 
    170 H170        4.3628  -17.3110  -41.2780 H         1 UNK         0.0600 
    171 H171        6.0891  -19.0940  -40.9529 H         1 UNK         0.0600 
    172 H172        7.2582  -18.1354  -41.8532 H         1 UNK         0.0600 
    173 H173        6.6253  -17.5488  -40.3144 H         1 UNK         0.0600 
    174 H174        6.5186  -15.7179  -41.9845 H         1 UNK         0.3000 
    175 H175        6.2980  -13.5989  -42.4394 H         1 UNK         0.0600 
    176 H176        4.8053  -13.4000  -45.1163 H         1 UNK         0.0600 
    177 H177        6.1458  -12.3787  -44.5981 H         1 UNK         0.0600 
    178 H178        6.4095  -14.0892  -44.8976 H         1 UNK         0.0600 
    179 H179        3.9956  -12.0910  -43.2065 H         1 UNK         0.3000 
    180 H180        2.1339  -12.0680  -40.3515 H         1 UNK         0.0600 
    181 H181        4.2041   -9.8307  -40.6925 H         1 UNK         0.0600 
    182 H182        3.9141  -10.7378  -39.2133 H         1 UNK         0.0600 
    183 H183        2.6590   -9.6901  -39.8519 H         1 UNK         0.0600 
    184 H184        2.4256  -10.0583  -42.3686 H         1 UNK         0.3000 
    185 H185        0.5627   -9.9722  -43.8727 H         1 UNK         0.0600 
    186 H186        1.6852  -10.2298  -46.1004 H         1 UNK         0.0600 
    187 H187        2.4100  -11.7481  -45.5743 H         1 UNK         0.0600 
    188 H188        2.8727  -10.2322  -44.8103 H         1 UNK         0.0600 
    189 H189       -0.0170  -12.0276  -45.7620 H         1 UNK         0.3000 
    190 H190       -2.6238  -19.9457  -44.2422 H         1 UNK         0.3000 
    191 H191       -5.0548  -20.8374  -43.1073 H         1 UNK         0.0600 
    192 H192       -2.1820  -21.7697  -42.5964 H         1 UNK         0.0600 
    193 H193       -3.0108  -20.4468  -41.7768 H         1 UNK         0.0600 
    194 H194       -3.5565  -22.1006  -41.5487 H         1 UNK         0.0600 
    195 H195       -2.7513  -22.5296  -45.2378 H         1 UNK         0.3000 
    196 H196       -4.1808  -25.0688  -45.1977 H         1 UNK         0.0600 
    197 H197       -1.7104  -24.9144  -45.5310 H         1 UNK         0.0600 
    198 H198       -1.9554  -23.9997  -47.0172 H         1 UNK         0.0600 
    199 H199       -2.4805  -25.6765  -46.9122 H         1 UNK         0.0600 
    200 H200       -5.0521  -22.1536  -46.5425 H         1 UNK         0.3000 
    201 H201       -6.2786  -21.3649  -48.1971 H         1 UNK         0.0600 
    202 H202       -8.2066  -22.6880  -48.9884 H         1 UNK         0.0600 
    203 H203       -7.9864  -22.9519  -47.2667 H         1 UNK         0.0600 
    204 H204       -7.4727  -24.1816  -48.4213 H         1 UNK         0.0600 
    205 H205       -3.6640  -22.2682  -48.8403 H         1 UNK         0.3000 
    206 H206       -2.1998  -22.7961  -50.3982 H         1 UNK         0.0600 
    207 H207       -4.3285  -21.6054  -52.2480 H         1 UNK         0.0600 
    208 H208       -2.6402  -21.8403  -52.6783 H         1 UNK         0.0600 
    209 H209       -3.0680  -20.7235  -51.3889 H         1 UNK         0.0600 
    210 H210       -4.1809  -24.9437  -49.7417 H         1 UNK         0.3000 
    211 H211       -4.8719  -26.9603  -50.2984 H         1 UNK         0.0600 
    212 H212       -2.4285  -27.4083  -50.7002 H         1 UNK         0.0600 
    213 H213       -3.4672  -28.4125  -51.6986 H         1 UNK         0.0600 
    214 H214       -2.6491  -27.0304  -52.4077 H         1 UNK         0.0600 
    215 H215       -6.2279  -24.7838  -51.3997 H         1 UNK         0.3000 
    216 H216       -7.8652  -24.1926  -52.7302 H         1 UNK         0.0600 
    217 H217       -9.1224  -25.7615  -54.1255 H         1 UNK         0.0600 
    218 H218       -7.8448  -26.9618  -54.0393 H         1 UNK         0.0600 
    219 H219       -8.7540  -26.5316  -52.5908 H         1 UNK         0.0600 
    220 H220       -5.4405  -23.3230  -53.2258 H         1 UNK         0.3000 
    221 H221       -4.1189  -22.1993  -54.6070 H         1 UNK         0.0600 
    222 H222       -5.0801  -21.1460  -56.6007 H         1 UNK         0.0600 
    223 H223       -6.4123  -22.2949  -56.6306 H         1 UNK         0.0600 
    224 H224       -6.2709  -21.1337  -55.3115 H         1 UNK         0.0600 
    225 H225       -3.4790  -24.7848  -54.4343 H         1 UNK         0.3000 
    226 H226       -2.4613  -25.5318  -57.1615 H         1 UNK         0.0600 
    227 H227       -4.1432  -27.1672  -56.2849 H         1 UNK         0.0600 
    228 H228       -2.5379  -27.8762  -56.3952 H         1 UNK         0.0600 
    229 H229       -3.1747  -27.3867  -54.8302 H         1 UNK         0.0600 
    230 H230       -1.7628  -25.1646  -53.6726 H         1 UNK         0.3000 
    231 H231        1.0942  -25.8875  -54.0765 H         1 UNK         0.0600 
    232 H232        1.1270  -25.9032  -51.5936 H         1 UNK         0.0600 
    233 H233       -0.1325  -26.9629  -52.2022 H         1 UNK         0.0600 
    234 H234       -0.5515  -25.3823  -51.5408 H         1 UNK         0.0600 
    235 H235       -0.9274  -23.0981  -53.9923 H         1 UNK         0.3000 
    236 H236        1.2759  -21.2768  -54.0556 H         1 UNK         0.0600 
    237 H237        1.0985  -21.5843  -51.5494 H         1 UNK         0.0600 
    238 H238        0.7106  -19.9517  -52.0302 H         1 UNK         0.0600 
    239 H239       -0.5801  -21.0727  -51.6117 H         1 UNK         0.0600 
    240 H240       -0.3119  -18.9887  -53.3612 H         1 UNK         0.3000 
    241 H241       -1.3358  -18.3896  -55.8789 H         1 UNK         0.0600 
    242 H242       -4.7766  -19.5391  -54.0335 H         1 UNK         0.3800 
    243 H243       -3.2397  -19.7833  -53.2388 H         1 UNK         0.3800 
    244 H244       -2.0038  -16.1930  -54.8130 H         1 UNK         0.0800 
    245 H245       -0.3567  -16.6641  -54.5666 H         1 UNK         0.0800 
    246 H246       -3.9437  -16.7530  -52.6932 H         1 UNK         0.0800 
    247 H247       -3.2759  -15.1729  -53.0201 H         1 UNK         0.0800 
@<TRIPOS>BOND
     1    1    2 1    
     2    1  127 1    
     3    1  128 1    
     4    1  129 1    
     5    2    3 2    
     6    2    4 am   BACKBONE|DICT|INTERRES
     7    4    5 1    
     8    4  130 1    
     9    5    6 1    
    10    5   65 1    
    11    5  131 1    
    12    6    7 1    
    13    6  132 1    
    14    6  133 1    
    15    7    8 1    
    16    8    9 1    
    17    8  134 1    
    18    8  135 1    
    19    9   10 ar   
    20    9   14 ar   
    21   10   11 ar   
    22   10  136 1    
    23   11   12 ar   
    24   11  126 1    
    25   12   13 ar   
    26   12  137 1    
    27   13   14 ar   
    28   13   15 1    
    29   14  138 1    
    30   15   16 1    
    31   15  139 1    
    32   15  140 1    
    33   16   17 1    
    34   17   18 1    
    35   17  141 1    
    36   17  142 1    
    37   18   19 1    
    38   18   67 1    
    39   18  143 1    
    40   19   20 am   BACKBONE|DICT|INTERRES
    41   19  144 1    
    42   20   21 2    
    43   20   22 1    
    44   22   23 1    
    45   22   24 1    
    46   22  145 1    
    47   23  146 1    
    48   23  147 1    
    49   23  148 1    
    50   24   25 am   BACKBONE|DICT|INTERRES
    51   24  149 1    
    52   25   26 2    
    53   25   27 1    
    54   27   28 1    
    55   27   29 1    
    56   27  150 1    
    57   28  151 1    
    58   28  152 1    
    59   28  153 1    
    60   29   30 am   BACKBONE|DICT|INTERRES
    61   29  154 1    
    62   30   31 2    
    63   30   32 1    
    64   32   33 1    
    65   32   34 1    
    66   32  155 1    
    67   33  156 1    
    68   33  157 1    
    69   33  158 1    
    70   34   35 am   BACKBONE|DICT|INTERRES
    71   34  159 1    
    72   35   36 2    
    73   35   37 1    
    74   37   38 1    
    75   37   39 1    
    76   37  160 1    
    77   38  161 1    
    78   38  162 1    
    79   38  163 1    
    80   39   40 am   BACKBONE|DICT|INTERRES
    81   39  164 1    
    82   40   41 2    
    83   40   42 1    
    84   42   43 1    
    85   42   44 1    
    86   42  165 1    
    87   43  166 1    
    88   43  167 1    
    89   43  168 1    
    90   44   45 am   BACKBONE|DICT|INTERRES
    91   44  169 1    
    92   45   46 2    
    93   45   47 1    
    94   47   48 1    
    95   47   49 1    
    96   47  170 1    
    97   48  171 1    
    98   48  172 1    
    99   48  173 1    
   100   49   50 am   BACKBONE|DICT|INTERRES
   101   49  174 1    
   102   50   51 2    
   103   50   52 1    
   104   52   53 1    
   105   52   54 1    
   106   52  175 1    
   107   53  176 1    
   108   53  177 1    
   109   53  178 1    
   110   54   55 am   BACKBONE|DICT|INTERRES
   111   54  179 1    
   112   55   56 2    
   113   55   57 1    
   114   57   58 1    
   115   57   59 1    
   116   57  180 1    
   117   58  181 1    
   118   58  182 1    
   119   58  183 1    
   120   59   60 am   BACKBONE|DICT|INTERRES
   121   59  184 1    
   122   60   61 2    
   123   60   62 1    
   124   62   63 1    
   125   62   64 1    
   126   62  185 1    
   127   63  186 1    
   128   63  187 1    
   129   63  188 1    
   130   64   65 am   BACKBONE|DICT|INTERRES
   131   64  189 1    
   132   65   66 2    
   133   67   68 2    
   134   67   69 am   BACKBONE|DICT|INTERRES
   135   69   70 1    
   136   69  190 1    
   137   70   71 1    
   138   70   72 1    
   139   70  191 1    
   140   71  192 1    
   141   71  193 1    
   142   71  194 1    
   143   72   73 2    
   144   72   74 am   BACKBONE|DICT|INTERRES
   145   74   75 1    
   146   74  195 1    
   147   75   76 1    
   148   75   77 1    
   149   75  196 1    
   150   76  197 1    
   151   76  198 1    
   152   76  199 1    
   153   77   78 2    
   154   77   79 am   BACKBONE|DICT|INTERRES
   155   79   80 1    
   156   79  200 1    
   157   80   81 1    
   158   80   82 1    
   159   80  201 1    
   160   81  202 1    
   161   81  203 1    
   162   81  204 1    
   163   82   83 2    
   164   82   84 am   BACKBONE|DICT|INTERRES
   165   84   85 1    
   166   84  205 1    
   167   85   86 1    
   168   85   87 1    
   169   85  206 1    
   170   86  207 1    
   171   86  208 1    
   172   86  209 1    
   173   87   88 2    
   174   87   89 am   BACKBONE|DICT|INTERRES
   175   89   90 1    
   176   89  210 1    
   177   90   91 1    
   178   90   92 1    
   179   90  211 1    
   180   91  212 1    
   181   91  213 1    
   182   91  214 1    
   183   92   93 2    
   184   92   94 am   BACKBONE|DICT|INTERRES
   185   94   95 1    
   186   94  215 1    
   187   95   96 1    
   188   95   97 1    
   189   95  216 1    
   190   96  217 1    
   191   96  218 1    
   192   96  219 1    
   193   97   98 2    
   194   97   99 am   BACKBONE|DICT|INTERRES
   195   99  100 1    
   196   99  220 1    
   197  100  101 1    
   198  100  102 1    
   199  100  221 1    
   200  101  222 1    
   201  101  223 1    
   202  101  224 1    
   203  102  103 2    
   204  102  104 am   BACKBONE|DICT|INTERRES
   205  104  105 1    
   206  104  225 1    
   207  105  106 1    
   208  105  107 1    
   209  105  226 1    
   210  106  227 1    
   211  106  228 1    
   212  106  229 1    
   213  107  108 2    
   214  107  109 am   BACKBONE|DICT|INTERRES
   215  109  110 1    
   216  109  230 1    
   217  110  111 1    
   218  110  112 1    
   219  110  231 1    
   220  111  232 1    
   221  111  233 1    
   222  111  234 1    
   223  112  113 2    
   224  112  114 am   BACKBONE|DICT|INTERRES
   225  114  115 1    
   226  114  235 1    
   227  115  116 1    
   228  115  117 1    
   229  115  236 1    
   230  116  237 1    
   231  116  238 1    
   232  116  239 1    
   233  117  118 2    
   234  117  119 am   BACKBONE|DICT|INTERRES
   235  119  120 1    
   236  119  240 1    
   237  120  121 1    
   238  120  124 1    
   239  120  241 1    
   240  121  122 am   BACKBONE|DICT|INTERRES
   241  121  123 2    
   242  122  242 1    
   243  122  243 1    
   244  124  125 1    
   245  124  244 1    
   246  124  245 1    
   247  125  126 1    
   248  126  246 1    
   249  126  247 1    
@<TRIPOS>SUBSTRUCTURE
     1 UNK         1 GROUP             0       ****    0 ROOT    
