@<TRIPOS>MOLECULE
3R540
247   249    1
SMALL
USER_CHARGES


@<TRIPOS>ATOM
      1 CA          0.7938  -22.5636  -46.7008 C.3       0 UNK        -0.1800 
      2 C           2.0201  -21.6821  -46.8820 C.2       0 UNK         0.5000 
      3 O           3.1311  -22.0978  -46.5517 O.2       0 UNK        -0.5000 
      4 N           1.8117  -20.4624  -47.3921 N.am      1 UNK        -0.5000 
      5 CA          2.7938  -19.4091  -47.6908 C.3       1 UNK         0.1400 
      6 C6          3.9510  -19.8427  -48.6305 C.3       23 UNK        -0.0398 
      7 S7          3.3863  -20.5325  -50.2231 S.3       23 UNK        -0.2404 
      8 C8          4.0416  -19.3273  -51.4178 C.3       23 UNK        -0.0205 
      9 C9          3.0610  -18.1999  -51.7074 C.ar      23 UNK        -0.0193 
     10 C10         2.3050  -18.2239  -52.8844 C.ar      23 UNK        -0.1150 
     11 C11         1.4671  -17.1549  -53.2106 C.ar      23 UNK        -0.0193 
     12 C12         1.3656  -16.0707  -52.3367 C.ar      23 UNK        -0.1150 
     13 C13         2.0985  -16.0410  -51.1487 C.ar      23 UNK        -0.0193 
     14 C14         2.9503  -17.1069  -50.8400 C.ar      23 UNK        -0.1150 
     15 C15         2.0073  -14.8254  -50.2376 C.3       23 UNK        -0.0205 
     16 S16         1.0953  -15.1520  -48.6980 S.3       23 UNK        -0.2404 
     17 C17        -0.5801  -15.6100  -49.2808 C.3       23 UNK        -0.0398 
     18 CA         -0.9754  -17.0217  -48.7876 C.3       11 UNK         0.1400 
     19 N          -0.8768  -17.1221  -47.3290 N.am      11 UNK        -0.5000 
     20 C          -0.7762  -18.2522  -46.6286 C.2       10 UNK         0.5000 
     21 O          -0.8254  -19.3635  -47.1608 O.2       10 UNK        -0.5000 
     22 CA         -0.5867  -18.1089  -45.0987 C.3       10 UNK         0.1400 
     23 CB         -0.3024  -19.4631  -44.4285 C.3       10 UNK        -0.1800 
     24 N           0.4663  -17.1497  -44.7291 N.am      10 UNK        -0.5000 
     25 C           0.3823  -15.8157  -44.8483 C.2       9 UNK         0.5000 
     26 O          -0.6499  -15.2473  -45.2120 O.2       9 UNK        -0.5000 
     27 CA          1.6486  -14.9875  -44.5645 C.3       9 UNK         0.1400 
     28 CB          1.3657  -13.4766  -44.4406 C.3       9 UNK        -0.1800 
     29 N           2.3420  -15.4540  -43.3686 N.am      9 UNK        -0.5000 
     30 C           3.6638  -15.3656  -43.1709 C.2       8 UNK         0.5000 
     31 O           4.4540  -14.9321  -44.0115 O.2       8 UNK        -0.5000 
     32 CA          4.1836  -15.8233  -41.7914 C.3       8 UNK         0.1400 
     33 CB          5.6332  -15.3831  -41.4987 C.3       8 UNK        -0.1800 
     34 N           3.2826  -15.4492  -40.6986 N.am      8 UNK        -0.5000 
     35 C           2.9539  -14.2087  -40.3043 C.2       7 UNK         0.5000 
     36 O           3.4365  -13.1833  -40.7878 O.2       7 UNK        -0.5000 
     37 CA          1.9065  -14.1074  -39.1743 C.3       7 UNK         0.1400 
     38 CB          1.2123  -12.7303  -39.1139 C.3       7 UNK        -0.1800 
     39 N           0.9181  -15.1910  -39.2081 N.am      7 UNK        -0.5000 
     40 C           0.0397  -15.4639  -40.1872 C.2       6 UNK         0.5000 
     41 O          -0.0686  -14.7888  -41.2110 O.2       6 UNK        -0.5000 
     42 CA         -0.8385  -16.7208  -40.0189 C.3       6 UNK         0.1400 
     43 CB         -0.9193  -17.5116  -41.3344 C.3       6 UNK        -0.1800 
     44 N          -0.3111  -17.6063  -38.9806 N.am      6 UNK        -0.5000 
     45 C          -0.7864  -17.7211  -37.7334 C.2       5 UNK         0.5000 
     46 O          -1.7877  -17.1314  -37.3266 O.2       5 UNK        -0.5000 
     47 CA          0.0017  -18.6288  -36.7644 C.3       5 UNK         0.1400 
     48 CB         -0.6663  -20.0086  -36.6626 C.3       5 UNK        -0.1800 
     49 N           1.4074  -18.8113  -37.1386 N.am      5 UNK        -0.5000 
     50 C           2.3368  -17.8449  -37.1560 C.2       4 UNK         0.5000 
     51 O           2.1208  -16.6848  -36.8055 O.2       4 UNK        -0.5000 
     52 CA          3.7175  -18.2206  -37.7321 C.3       4 UNK         0.1400 
     53 CB          4.6628  -18.6767  -36.6112 C.3       4 UNK        -0.1800 
     54 N           3.6638  -19.2560  -38.7727 N.am      4 UNK        -0.5000 
     55 C           2.9947  -19.1453  -39.9282 C.2       3 UNK         0.5000 
     56 O           2.3353  -18.1477  -40.2263 O.2       3 UNK        -0.5000 
     57 CA          3.0393  -20.3636  -40.8693 C.3       3 UNK         0.1400 
     58 CB          1.6234  -20.8933  -41.1644 C.3       3 UNK        -0.1800 
     59 N           3.7937  -20.1029  -42.1009 N.am      3 UNK        -0.5000 
     60 C           3.4943  -19.2787  -43.1166 C.2       2 UNK         0.5000 
     61 O           2.4680  -18.6048  -43.1861 O.2       2 UNK        -0.5000 
     62 CA          4.5275  -19.1611  -44.2536 C.3       2 UNK         0.1400 
     63 CB          5.8076  -19.9934  -44.0384 C.3       2 UNK        -0.1800 
     64 N           3.9172  -19.5641  -45.5156 N.am      2 UNK        -0.5000 
     65 C           3.3589  -18.7487  -46.4167 C.2       1 UNK         0.5000 
     66 O           3.2886  -17.5277  -46.2879 O.2       1 UNK        -0.5000 
     67 C          -2.3709  -17.4504  -49.2934 C.2       11 UNK         0.5000 
     68 O          -2.4937  -17.9083  -50.4282 O.2       11 UNK        -0.5000 
     69 N          -3.3903  -17.3624  -48.4247 N.am      12 UNK        -0.5000 
     70 CA         -4.7259  -17.9163  -48.6573 C.3       12 UNK         0.1400 
     71 CB         -5.7062  -17.3404  -47.6256 C.3       12 UNK        -0.1800 
     72 C          -4.7332  -19.4558  -48.6080 C.2       12 UNK         0.5000 
     73 O          -5.4533  -20.0839  -49.3844 O.2       12 UNK        -0.5000 
     74 N          -3.9011  -20.0414  -47.7328 N.am      13 UNK        -0.5000 
     75 CA         -3.7039  -21.4890  -47.6279 C.3       13 UNK         0.1400 
     76 CB         -3.0517  -21.8382  -46.2840 C.3       13 UNK        -0.1800 
     77 C          -2.8783  -22.0436  -48.8019 C.2       13 UNK         0.5000 
     78 O          -3.1176  -23.1746  -49.2205 O.2       13 UNK        -0.5000 
     79 N          -1.9856  -21.2181  -49.3696 N.am      14 UNK        -0.5000 
     80 CA         -1.2663  -21.4984  -50.6184 C.3       14 UNK         0.1400 
     81 CB         -0.1641  -20.4484  -50.8204 C.3       14 UNK        -0.1800 
     82 C          -2.1946  -21.5495  -51.8514 C.2       14 UNK         0.5000 
     83 O          -1.8422  -22.1638  -52.8577 O.2       14 UNK        -0.5000 
     84 N          -3.3670  -20.9100  -51.7560 N.am      15 UNK        -0.5000 
     85 CA         -4.4540  -21.0001  -52.7293 C.3       15 UNK         0.1400 
     86 CB         -5.1352  -19.6246  -52.8305 C.3       15 UNK        -0.1800 
     87 C          -5.4905  -22.0707  -52.3376 C.2       15 UNK         0.5000 
     88 O          -6.4240  -22.3022  -53.1054 O.2       15 UNK        -0.5000 
     89 N          -5.3654  -22.6534  -51.1348 N.am      16 UNK        -0.5000 
     90 CA         -6.3129  -23.5539  -50.4608 C.3       16 UNK         0.1400 
     91 CB         -6.3401  -24.9232  -51.1663 C.3       16 UNK        -0.1800 
     92 C          -7.7313  -22.9581  -50.2988 C.2       16 UNK         0.5000 
     93 O          -8.6999  -23.7100  -50.1810 O.2       16 UNK        -0.5000 
     94 N          -7.8283  -21.6193  -50.3477 N.am      17 UNK        -0.5000 
     95 CA         -9.0455  -20.8087  -50.4683 C.3       17 UNK         0.1400 
     96 CB         -9.8459  -20.8473  -49.1506 C.3       17 UNK        -0.1800 
     97 C          -9.9142  -21.1508  -51.7067 C.2       17 UNK         0.5000 
     98 O         -11.1167  -20.8810  -51.6943 O.2       17 UNK        -0.5000 
     99 N          -9.3068  -21.7427  -52.7470 N.am      18 UNK        -0.5000 
    100 CA        -9.9981  -22.3059  -53.9118 C.3       18 UNK         0.1400 
    101 CB       -10.2063  -23.8127  -53.6710 C.3       18 UNK        -0.1800 
    102 C         -9.2558  -22.0504  -55.2387 C.2       18 UNK         0.5000 
    103 O         -9.6596  -22.5982  -56.2654 O.2       18 UNK        -0.5000 
    104 N         -8.1845  -21.2440  -55.1989 N.am      19 UNK        -0.5000 
    105 CA        -7.2390  -20.9621  -56.2871 C.3       19 UNK         0.1400 
    106 CB        -7.9199  -20.1763  -57.4271 C.3       19 UNK        -0.1800 
    107 C         -6.4940  -22.2272  -56.7755 C.2       19 UNK         0.5000 
    108 O         -6.2957  -22.4111  -57.9779 O.2       19 UNK        -0.5000 
    109 N         -6.1299  -23.1004  -55.8261 N.am      20 UNK        -0.5000 
    110 CA        -5.5893  -24.4384  -56.0739 C.3       20 UNK         0.1400 
    111 CB        -5.7281  -25.2699  -54.7910 C.3       20 UNK        -0.1800 
    112 C         -4.1317  -24.4678  -56.5718 C.2       20 UNK         0.5000 
    113 O         -3.7414  -25.4484  -57.2077 O.2       20 UNK        -0.5000 
    114 N         -3.3523  -23.4201  -56.2805 N.am      21 UNK        -0.5000 
    115 CA        -1.9640  -23.2784  -56.7165 C.3       21 UNK         0.1400 
    116 CB        -1.0011  -24.0367  -55.7845 C.3       21 UNK        -0.1800 
    117 C         -1.6309  -21.7899  -56.8426 C.2       21 UNK         0.5000 
    118 O         -1.4212  -21.3132  -57.9589 O.2       21 UNK        -0.5000 
    119 N         -1.6506  -21.0663  -55.7145 N.am      22 UNK        -0.5000 
    120 CA        -1.6841  -19.5953  -55.7085 C.3       22 UNK         0.1400 
    121 C         -3.0470  -19.0712  -56.2502 C.2       22 UNK         0.5000 
    122 N         -3.0544  -17.9952  -57.0246 N.am      22 UNK        -0.7600 
    123 O         -4.0992  -19.6327  -55.9608 O.2       22 UNK        -0.5000 
    124 C124       -1.3517  -19.0318  -54.3032 C.3       23 UNK        -0.0398 
    125 S125       -1.0807  -17.2284  -54.2996 S.3       23 UNK        -0.2404 
    126 C126        0.7183  -17.1269  -54.5330 C.3       23 UNK        -0.0205 
    127 H127        0.4608  -22.5375  -45.6633 H         1 UNK         0.0600 
    128 H128        1.0264  -23.5957  -46.9627 H         1 UNK         0.0600 
    129 H129       -0.0276  -22.2338  -47.3365 H         1 UNK         0.0600 
    130 H130        0.8474  -20.1807  -47.5447 H         1 UNK         0.3000 
    131 H131        2.2275  -18.6347  -48.2119 H         1 UNK         0.0600 
    132 H132        4.6119  -18.9957  -48.8193 H         1 UNK         0.0800 
    133 H133        4.5779  -20.5964  -48.1522 H         1 UNK         0.0800 
    134 H134        4.9928  -18.9197  -51.0733 H         1 UNK         0.0800 
    135 H135        4.2719  -19.8609  -52.3412 H         1 UNK         0.0800 
    136 H136        2.3968  -19.0594  -53.5642 H         1 UNK         0.1150 
    137 H137        0.7241  -15.2398  -52.5954 H         1 UNK         0.1150 
    138 H138        3.5385  -17.0735  -49.9341 H         1 UNK         0.1150 
    139 H139        3.0156  -14.4967  -49.9822 H         1 UNK         0.0800 
    140 H140        1.5390  -13.9865  -50.7551 H         1 UNK         0.0800 
    141 H141       -1.2847  -14.8628  -48.9118 H         1 UNK         0.0800 
    142 H142       -0.6238  -15.5588  -50.3694 H         1 UNK         0.0800 
    143 H143       -0.2596  -17.7274  -49.2158 H         1 UNK         0.0600 
    144 H144       -0.8220  -16.2473  -46.8144 H         1 UNK         0.3000 
    145 H145       -1.5335  -17.7408  -44.6993 H         1 UNK         0.0600 
    146 H146       -0.2321  -19.3603  -43.3495 H         1 UNK         0.0600 
    147 H147       -1.1015  -20.1771  -44.6196 H         1 UNK         0.0600 
    148 H148        0.6305  -19.9016  -44.7818 H         1 UNK         0.0600 
    149 H149        1.3380  -17.5544  -44.3956 H         1 UNK         0.3000 
    150 H150        2.2944  -15.1375  -45.4320 H         1 UNK         0.0600 
    151 H151        0.8879  -13.0896  -45.3414 H         1 UNK         0.0600 
    152 H152        2.2861  -12.9106  -44.2971 H         1 UNK         0.0600 
    153 H153        0.7078  -13.2642  -43.5968 H         1 UNK         0.0600 
    154 H154        1.7562  -15.8268  -42.6331 H         1 UNK         0.3000 
    155 H155        4.1877  -16.9104  -41.8119 H         1 UNK         0.0600 
    156 H156        5.9606  -15.7322  -40.5194 H         1 UNK         0.0600 
    157 H157        5.7434  -14.2988  -41.5238 H         1 UNK         0.0600 
    158 H158        6.3215  -15.7971  -42.2364 H         1 UNK         0.0600 
    159 H159        2.7942  -16.2333  -40.2767 H         1 UNK         0.3000 
    160 H160        2.4601  -14.2343  -38.2431 H         1 UNK         0.0600 
    161 H161        0.6973  -12.4938  -40.0454 H         1 UNK         0.0600 
    162 H162        1.9362  -11.9354  -38.9312 H         1 UNK         0.0600 
    163 H163        0.4811  -12.6926  -38.3065 H         1 UNK         0.0600 
    164 H164        0.9505  -15.8184  -38.4137 H         1 UNK         0.3000 
    165 H165       -1.8440  -16.3849  -39.7592 H         1 UNK         0.0600 
    166 H166        0.0752  -17.7728  -41.6974 H         1 UNK         0.0600 
    167 H167       -1.4873  -18.4336  -41.2112 H         1 UNK         0.0600 
    168 H168       -1.4097  -16.9298  -42.1158 H         1 UNK         0.0600 
    169 H169        0.5468  -18.0879  -39.2258 H         1 UNK         0.3000 
    170 H170       -0.0264  -18.1591  -35.7790 H         1 UNK         0.0600 
    171 H171       -1.7093  -19.9166  -36.3567 H         1 UNK         0.0600 
    172 H172       -0.6496  -20.5348  -37.6180 H         1 UNK         0.0600 
    173 H173       -0.1671  -20.6357  -35.9237 H         1 UNK         0.0600 
    174 H174        1.6752  -19.7339  -37.4479 H         1 UNK         0.3000 
    175 H175        4.1362  -17.3194  -38.1853 H         1 UNK         0.0600 
    176 H176        4.3135  -19.5956  -36.1386 H         1 UNK         0.0600 
    177 H177        5.6688  -18.8549  -36.9914 H         1 UNK         0.0600 
    178 H178        4.7416  -17.9164  -35.8328 H         1 UNK         0.0600 
    179 H179        4.1808  -20.1032  -38.5849 H         1 UNK         0.3000 
    180 H180        3.5783  -21.1639  -40.3600 H         1 UNK         0.0600 
    181 H181        0.9823  -20.1232  -41.5896 H         1 UNK         0.0600 
    182 H182        1.1417  -21.2413  -40.2501 H         1 UNK         0.0600 
    183 H183        1.6495  -21.7315  -41.8605 H         1 UNK         0.0600 
    184 H184        4.6777  -20.5882  -42.1593 H         1 UNK         0.3000 
    185 H185        4.8221  -18.1110  -44.3056 H         1 UNK         0.0600 
    186 H186        6.5106  -19.8372  -44.8570 H         1 UNK         0.0600 
    187 H187        6.3224  -19.7032  -43.1215 H         1 UNK         0.0600 
    188 H188        5.5980  -21.0629  -43.9888 H         1 UNK         0.0600 
    189 H189        3.8577  -20.5628  -45.6975 H         1 UNK         0.3000 
    190 H190       -3.2127  -16.9606  -47.5158 H         1 UNK         0.3000 
    191 H191       -5.0588  -17.6132  -49.6524 H         1 UNK         0.0600 
    192 H192       -5.7591  -16.2539  -47.6964 H         1 UNK         0.0600 
    193 H193       -6.7140  -17.7251  -47.7889 H         1 UNK         0.0600 
    194 H194       -5.4180  -17.5973  -46.6055 H         1 UNK         0.0600 
    195 H195       -3.3111  -19.4629  -47.1540 H         1 UNK         0.3000 
    196 H196       -4.6853  -21.9679  -47.6563 H         1 UNK         0.0600 
    197 H197       -3.0131  -22.9190  -46.1425 H         1 UNK         0.0600 
    198 H198       -3.6117  -21.4197  -45.4477 H         1 UNK         0.0600 
    199 H199       -2.0299  -21.4704  -46.2260 H         1 UNK         0.0600 
    200 H200       -1.8117  -20.3239  -48.9297 H         1 UNK         0.3000 
    201 H201       -0.7917  -22.4765  -50.5176 H         1 UNK         0.0600 
    202 H202        0.4369  -20.3258  -49.9207 H         1 UNK         0.0600 
    203 H203       -0.5677  -19.4729  -51.0879 H         1 UNK         0.0600 
    204 H204        0.5096  -20.7458  -51.6248 H         1 UNK         0.0600 
    205 H205       -3.5595  -20.3769  -50.9190 H         1 UNK         0.3000 
    206 H206       -4.0629  -21.2635  -53.7133 H         1 UNK         0.0600 
    207 H207       -4.4223  -18.8458  -53.0996 H         1 UNK         0.0600 
    208 H208       -5.9098  -19.6254  -53.5971 H         1 UNK         0.0600 
    209 H209       -5.6062  -19.3305  -51.8930 H         1 UNK         0.0600 
    210 H210       -4.5427  -22.4306  -50.5906 H         1 UNK         0.3000 
    211 H211       -5.9265  -23.7042  -49.4520 H         1 UNK         0.0600 
    212 H212       -6.8481  -24.8644  -52.1283 H         1 UNK         0.0600 
    213 H213       -6.8697  -25.6626  -50.5647 H         1 UNK         0.0600 
    214 H214       -5.3329  -25.3038  -51.3356 H         1 UNK         0.0600 
    215 H215       -6.9585  -21.0958  -50.3476 H         1 UNK         0.3000 
    216 H216       -8.7068  -19.7825  -50.6167 H         1 UNK         0.0600 
    217 H217       -9.2155  -20.5880  -48.3000 H         1 UNK         0.0600 
    218 H218      -10.2710  -21.8341  -48.9651 H         1 UNK         0.0600 
    219 H219      -10.6706  -20.1339  -49.1697 H         1 UNK         0.0600 
    220 H220       -8.3151  -21.9520  -52.6798 H         1 UNK         0.3000 
    221 H221      -10.9772  -21.8370  -54.0262 H         1 UNK         0.0600 
    222 H222       -9.2534  -24.3352  -53.5766 H         1 UNK         0.0600 
    223 H223      -10.7753  -23.9910  -52.7583 H         1 UNK         0.0600 
    224 H224      -10.7580  -24.2749  -54.4905 H         1 UNK         0.0600 
    225 H225       -7.9295  -20.8655  -54.2985 H         1 UNK         0.3000 
    226 H226       -6.4855  -20.3094  -55.8534 H         1 UNK         0.0600 
    227 H227       -8.4260  -19.2892  -57.0465 H         1 UNK         0.0600 
    228 H228       -7.1847  -19.8403  -58.1592 H         1 UNK         0.0600 
    229 H229       -8.6552  -20.7818  -57.9574 H         1 UNK         0.0600 
    230 H230       -6.3327  -22.8665  -54.8572 H         1 UNK         0.3000 
    231 H231       -6.2028  -24.9086  -56.8455 H         1 UNK         0.0600 
    232 H232       -5.3745  -26.2904  -54.9433 H         1 UNK         0.0600 
    233 H233       -6.7696  -25.3319  -54.4757 H         1 UNK         0.0600 
    234 H234       -5.1492  -24.8407  -53.9726 H         1 UNK         0.0600 
    235 H235       -3.7616  -22.6237  -55.8127 H         1 UNK         0.3000 
    236 H236       -1.8634  -23.7040  -57.7177 H         1 UNK         0.0600 
    237 H237       -1.1636  -25.1127  -55.8465 H         1 UNK         0.0600 
    238 H238        0.0375  -23.8498  -56.0596 H         1 UNK         0.0600 
    239 H239       -1.1241  -23.7460  -54.7429 H         1 UNK         0.0600 
    240 H240       -1.8019  -21.5293  -54.8245 H         1 UNK         0.3000 
    241 H241       -0.9004  -19.2561  -56.3891 H         1 UNK         0.0600 
    242 H242       -3.9351  -17.6506  -57.3723 H         1 UNK         0.3800 
    243 H243       -2.2040  -17.5066  -57.2570 H         1 UNK         0.3800 
    244 H244       -0.4652  -19.5209  -53.8972 H         1 UNK         0.0800 
    245 H245       -2.1588  -19.2443  -53.6052 H         1 UNK         0.0800 
    246 H246        1.0556  -17.9247  -55.1965 H         1 UNK         0.0800 
    247 H247        0.9491  -16.1914  -55.0445 H         1 UNK         0.0800 
@<TRIPOS>BOND
     1    1    2 1    
     2    1  127 1    
     3    1  128 1    
     4    1  129 1    
     5    2    3 2    
     6    2    4 am   BACKBONE|DICT|INTERRES
     7    4    5 1    
     8    4  130 1    
     9    5    6 1    
    10    5   65 1    
    11    5  131 1    
    12    6    7 1    
    13    6  132 1    
    14    6  133 1    
    15    7    8 1    
    16    8    9 1    
    17    8  134 1    
    18    8  135 1    
    19    9   10 ar   
    20    9   14 ar   
    21   10   11 ar   
    22   10  136 1    
    23   11   12 ar   
    24   11  126 1    
    25   12   13 ar   
    26   12  137 1    
    27   13   14 ar   
    28   13   15 1    
    29   14  138 1    
    30   15   16 1    
    31   15  139 1    
    32   15  140 1    
    33   16   17 1    
    34   17   18 1    
    35   17  141 1    
    36   17  142 1    
    37   18   19 1    
    38   18   67 1    
    39   18  143 1    
    40   19   20 am   BACKBONE|DICT|INTERRES
    41   19  144 1    
    42   20   21 2    
    43   20   22 1    
    44   22   23 1    
    45   22   24 1    
    46   22  145 1    
    47   23  146 1    
    48   23  147 1    
    49   23  148 1    
    50   24   25 am   BACKBONE|DICT|INTERRES
    51   24  149 1    
    52   25   26 2    
    53   25   27 1    
    54   27   28 1    
    55   27   29 1    
    56   27  150 1    
    57   28  151 1    
    58   28  152 1    
    59   28  153 1    
    60   29   30 am   BACKBONE|DICT|INTERRES
    61   29  154 1    
    62   30   31 2    
    63   30   32 1    
    64   32   33 1    
    65   32   34 1    
    66   32  155 1    
    67   33  156 1    
    68   33  157 1    
    69   33  158 1    
    70   34   35 am   BACKBONE|DICT|INTERRES
    71   34  159 1    
    72   35   36 2    
    73   35   37 1    
    74   37   38 1    
    75   37   39 1    
    76   37  160 1    
    77   38  161 1    
    78   38  162 1    
    79   38  163 1    
    80   39   40 am   BACKBONE|DICT|INTERRES
    81   39  164 1    
    82   40   41 2    
    83   40   42 1    
    84   42   43 1    
    85   42   44 1    
    86   42  165 1    
    87   43  166 1    
    88   43  167 1    
    89   43  168 1    
    90   44   45 am   BACKBONE|DICT|INTERRES
    91   44  169 1    
    92   45   46 2    
    93   45   47 1    
    94   47   48 1    
    95   47   49 1    
    96   47  170 1    
    97   48  171 1    
    98   48  172 1    
    99   48  173 1    
   100   49   50 am   BACKBONE|DICT|INTERRES
   101   49  174 1    
   102   50   51 2    
   103   50   52 1    
   104   52   53 1    
   105   52   54 1    
   106   52  175 1    
   107   53  176 1    
   108   53  177 1    
   109   53  178 1    
   110   54   55 am   BACKBONE|DICT|INTERRES
   111   54  179 1    
   112   55   56 2    
   113   55   57 1    
   114   57   58 1    
   115   57   59 1    
   116   57  180 1    
   117   58  181 1    
   118   58  182 1    
   119   58  183 1    
   120   59   60 am   BACKBONE|DICT|INTERRES
   121   59  184 1    
   122   60   61 2    
   123   60   62 1    
   124   62   63 1    
   125   62   64 1    
   126   62  185 1    
   127   63  186 1    
   128   63  187 1    
   129   63  188 1    
   130   64   65 am   BACKBONE|DICT|INTERRES
   131   64  189 1    
   132   65   66 2    
   133   67   68 2    
   134   67   69 am   BACKBONE|DICT|INTERRES
   135   69   70 1    
   136   69  190 1    
   137   70   71 1    
   138   70   72 1    
   139   70  191 1    
   140   71  192 1    
   141   71  193 1    
   142   71  194 1    
   143   72   73 2    
   144   72   74 am   BACKBONE|DICT|INTERRES
   145   74   75 1    
   146   74  195 1    
   147   75   76 1    
   148   75   77 1    
   149   75  196 1    
   150   76  197 1    
   151   76  198 1    
   152   76  199 1    
   153   77   78 2    
   154   77   79 am   BACKBONE|DICT|INTERRES
   155   79   80 1    
   156   79  200 1    
   157   80   81 1    
   158   80   82 1    
   159   80  201 1    
   160   81  202 1    
   161   81  203 1    
   162   81  204 1    
   163   82   83 2    
   164   82   84 am   BACKBONE|DICT|INTERRES
   165   84   85 1    
   166   84  205 1    
   167   85   86 1    
   168   85   87 1    
   169   85  206 1    
   170   86  207 1    
   171   86  208 1    
   172   86  209 1    
   173   87   88 2    
   174   87   89 am   BACKBONE|DICT|INTERRES
   175   89   90 1    
   176   89  210 1    
   177   90   91 1    
   178   90   92 1    
   179   90  211 1    
   180   91  212 1    
   181   91  213 1    
   182   91  214 1    
   183   92   93 2    
   184   92   94 am   BACKBONE|DICT|INTERRES
   185   94   95 1    
   186   94  215 1    
   187   95   96 1    
   188   95   97 1    
   189   95  216 1    
   190   96  217 1    
   191   96  218 1    
   192   96  219 1    
   193   97   98 2    
   194   97   99 am   BACKBONE|DICT|INTERRES
   195   99  100 1    
   196   99  220 1    
   197  100  101 1    
   198  100  102 1    
   199  100  221 1    
   200  101  222 1    
   201  101  223 1    
   202  101  224 1    
   203  102  103 2    
   204  102  104 am   BACKBONE|DICT|INTERRES
   205  104  105 1    
   206  104  225 1    
   207  105  106 1    
   208  105  107 1    
   209  105  226 1    
   210  106  227 1    
   211  106  228 1    
   212  106  229 1    
   213  107  108 2    
   214  107  109 am   BACKBONE|DICT|INTERRES
   215  109  110 1    
   216  109  230 1    
   217  110  111 1    
   218  110  112 1    
   219  110  231 1    
   220  111  232 1    
   221  111  233 1    
   222  111  234 1    
   223  112  113 2    
   224  112  114 am   BACKBONE|DICT|INTERRES
   225  114  115 1    
   226  114  235 1    
   227  115  116 1    
   228  115  117 1    
   229  115  236 1    
   230  116  237 1    
   231  116  238 1    
   232  116  239 1    
   233  117  118 2    
   234  117  119 am   BACKBONE|DICT|INTERRES
   235  119  120 1    
   236  119  240 1    
   237  120  121 1    
   238  120  124 1    
   239  120  241 1    
   240  121  122 am   BACKBONE|DICT|INTERRES
   241  121  123 2    
   242  122  242 1    
   243  122  243 1    
   244  124  125 1    
   245  124  244 1    
   246  124  245 1    
   247  125  126 1    
   248  126  246 1    
   249  126  247 1    
@<TRIPOS>SUBSTRUCTURE
     1 UNK         1 GROUP             0       ****    0 ROOT    
