@<TRIPOS>MOLECULE
3R540
247   249    1
SMALL
USER_CHARGES


@<TRIPOS>ATOM
      1 CA         -5.0996  -12.8733  -40.7199 C.3       0 UNK        -0.1800 
      2 C          -4.2633  -12.9866  -41.9861 C.2       0 UNK         0.5000 
      3 O          -3.0949  -12.5977  -41.9841 O.2       0 UNK        -0.5000 
      4 N          -4.8493  -13.5344  -43.0619 N.am      1 UNK        -0.5000 
      5 CA         -4.2201  -13.7056  -44.3818 C.3       1 UNK         0.1400 
      6 C6         -5.2297  -14.2255  -45.4418 C.3       23 UNK        -0.0398 
      7 S7         -5.0422  -13.4012  -47.0619 S.3       23 UNK        -0.2404 
      8 C8         -5.2591  -14.7841  -48.2418 C.3       23 UNK        -0.0205 
      9 C9         -3.9948  -15.2243  -48.9826 C.ar      23 UNK        -0.0193 
     10 C10        -4.1336  -15.9180  -50.1905 C.ar      23 UNK        -0.1150 
     11 C11        -3.0113  -16.3568  -50.8996 C.ar      23 UNK        -0.0193 
     12 C12        -1.7364  -16.0991  -50.3924 C.ar      23 UNK        -0.1150 
     13 C13        -1.5778  -15.4215  -49.1823 C.ar      23 UNK        -0.0193 
     14 C14        -2.7075  -14.9827  -48.4868 C.ar      23 UNK        -0.1150 
     15 C15        -0.1870  -15.1993  -48.6086 C.3       23 UNK        -0.0205 
     16 S16         0.5219  -16.7362  -47.9376 S.3       23 UNK        -0.2404 
     17 C17        -0.7135  -17.1962  -46.6767 C.3       23 UNK        -0.0398 
     18 CA         -1.7018  -18.2608  -47.2005 C.3       11 UNK         0.1400 
     19 N          -1.0173  -19.5152  -47.5184 N.am      11 UNK        -0.5000 
     20 C          -1.5578  -20.5208  -48.2121 C.2       10 UNK         0.5000 
     21 O          -2.7107  -20.5119  -48.6339 O.2       10 UNK        -0.5000 
     22 CA         -0.6925  -21.7742  -48.3986 C.3       10 UNK         0.1400 
     23 CB          0.3299  -21.5879  -49.5296 C.3       10 UNK        -0.1800 
     24 N          -0.0088  -22.1317  -47.1579 N.am      10 UNK        -0.5000 
     25 C          -0.6272  -22.6292  -46.0784 C.2       9 UNK         0.5000 
     26 O          -1.8299  -22.8924  -46.0402 O.2       9 UNK        -0.5000 
     27 CA          0.2371  -22.8238  -44.8190 C.3       9 UNK         0.1400 
     28 CB          1.0014  -24.1539  -44.8885 C.3       9 UNK        -0.1800 
     29 N           1.1827  -21.7246  -44.6014 N.am      9 UNK        -0.5000 
     30 C           0.8162  -20.4741  -44.2868 C.2       8 UNK         0.5000 
     31 O          -0.3527  -20.1244  -44.1427 O.2       8 UNK        -0.5000 
     32 CA          1.9291  -19.4219  -44.1445 C.3       8 UNK         0.1400 
     33 CB          2.5260  -19.4519  -42.7303 C.3       8 UNK        -0.1800 
     34 N           3.0097  -19.5098  -45.1285 N.am      8 UNK        -0.5000 
     35 C           2.8713  -19.5326  -46.4602 C.2       7 UNK         0.5000 
     36 O           1.7921  -19.7002  -47.0274 O.2       7 UNK        -0.5000 
     37 CA          4.1538  -19.2970  -47.2876 C.3       7 UNK         0.1400 
     38 CB          3.8794  -19.2738  -48.8031 C.3       7 UNK        -0.1800 
     39 N           4.8170  -18.0438  -46.9133 N.am      7 UNK        -0.5000 
     40 C           5.5706  -17.8514  -45.8217 C.2       6 UNK         0.5000 
     41 O           5.8166  -18.7418  -45.0064 O.2       6 UNK        -0.5000 
     42 CA          6.1305  -16.4353  -45.5815 C.3       6 UNK         0.1400 
     43 CB          7.6005  -16.3612  -46.0224 C.3       6 UNK        -0.1800 
     44 N           5.3811  -15.3667  -46.2495 N.am      6 UNK        -0.5000 
     45 C           4.1467  -14.9681  -45.9152 C.2       5 UNK         0.5000 
     46 O           3.4712  -15.4929  -45.0267 O.2       5 UNK        -0.5000 
     47 CA          3.5859  -13.7781  -46.7085 C.3       5 UNK         0.1400 
     48 CB          3.3692  -14.1324  -48.1919 C.3       5 UNK        -0.1800 
     49 N           2.3365  -13.3347  -46.0948 N.am      5 UNK        -0.5000 
     50 C           1.8323  -12.0981  -46.1803 C.2       4 UNK         0.5000 
     51 O           2.3241  -11.2147  -46.8844 O.2       4 UNK        -0.5000 
     52 CA          0.5876  -11.7651  -45.3315 C.3       4 UNK         0.1400 
     53 CB         -0.6696  -11.6609  -46.2093 C.3       4 UNK        -0.1800 
     54 N           0.3407  -12.6936  -44.2220 N.am      4 UNK        -0.5000 
     55 C           1.0738  -12.7266  -43.0972 C.2       3 UNK         0.5000 
     56 O           2.0788  -12.0330  -42.9334 O.2       3 UNK        -0.5000 
     57 CA          0.6174  -13.6458  -41.9453 C.3       3 UNK         0.1400 
     58 CB          0.2578  -12.8145  -40.7024 C.3       3 UNK        -0.1800 
     59 N          -0.5361  -14.4753  -42.2893 N.am      3 UNK        -0.5000 
     60 C          -0.4611  -15.7195  -42.7807 C.2       2 UNK         0.5000 
     61 O           0.5984  -16.3090  -42.9842 O.2       2 UNK        -0.5000 
     62 CA         -1.7900  -16.4338  -43.1049 C.3       2 UNK         0.1400 
     63 CB         -2.1853  -17.3624  -41.9483 C.3       2 UNK        -0.1800 
     64 N          -2.9156  -15.5405  -43.3909 N.am      2 UNK        -0.5000 
     65 C          -2.9506  -14.5834  -44.3302 C.2       1 UNK         0.5000 
     66 O          -2.0092  -14.3354  -45.0797 O.2       1 UNK        -0.5000 
     67 C          -2.9084  -18.4533  -46.2522 C.2       11 UNK         0.5000 
     68 O          -3.8903  -17.7197  -46.3627 O.2       11 UNK        -0.5000 
     69 N          -2.8426  -19.4611  -45.3709 N.am      12 UNK        -0.5000 
     70 CA         -3.9567  -19.9307  -44.5432 C.3       12 UNK         0.1400 
     71 CB         -3.3915  -20.7398  -43.3638 C.3       12 UNK        -0.1800 
     72 C          -4.9706  -20.7977  -45.3197 C.2       12 UNK         0.5000 
     73 O          -6.0533  -21.0618  -44.7957 O.2       12 UNK        -0.5000 
     74 N          -4.5941  -21.2497  -46.5256 N.am      13 UNK        -0.5000 
     75 CA         -5.3029  -22.1864  -47.4014 C.3       13 UNK         0.1400 
     76 CB         -6.6121  -21.5670  -47.9310 C.3       13 UNK        -0.1800 
     77 C          -5.5016  -23.5760  -46.7619 C.2       13 UNK         0.5000 
     78 O          -6.5192  -24.2280  -47.0089 O.2       13 UNK        -0.5000 
     79 N          -4.5184  -24.0176  -45.9630 N.am      14 UNK        -0.5000 
     80 CA         -4.5030  -25.3138  -45.2861 C.3       14 UNK         0.1400 
     81 CB         -3.2905  -25.3828  -44.3443 C.3       14 UNK        -0.1800 
     82 C          -4.4739  -26.4544  -46.3160 C.2       14 UNK         0.5000 
     83 O          -3.5436  -26.5157  -47.1196 O.2       14 UNK        -0.5000 
     84 N          -5.5277  -27.2827  -46.3241 N.am      15 UNK        -0.5000 
     85 CA         -5.7917  -28.3480  -47.3024 C.3       15 UNK         0.1400 
     86 CB         -4.7766  -29.4990  -47.1381 C.3       15 UNK        -0.1800 
     87 C          -5.8848  -27.8361  -48.7607 C.2       15 UNK         0.5000 
     88 O          -5.5633  -28.5755  -49.6923 O.2       15 UNK        -0.5000 
     89 N          -6.3149  -26.5738  -48.9250 N.am      16 UNK        -0.5000 
     90 CA         -6.4292  -25.8261  -50.1817 C.3       16 UNK         0.1400 
     91 CB         -7.4828  -26.4603  -51.1139 C.3       16 UNK        -0.1800 
     92 C          -5.0739  -25.5771  -50.8816 C.2       16 UNK         0.5000 
     93 O          -5.0294  -25.4503  -52.1063 O.2       16 UNK        -0.5000 
     94 N          -3.9902  -25.4686  -50.0968 N.am      17 UNK        -0.5000 
     95 CA         -2.6197  -25.2359  -50.5704 C.3       17 UNK         0.1400 
     96 CB         -1.6370  -25.5121  -49.4207 C.3       17 UNK        -0.1800 
     97 C          -2.3589  -23.8414  -51.1799 C.2       17 UNK         0.5000 
     98 O          -1.2551  -23.6063  -51.6692 O.2       17 UNK        -0.5000 
     99 N          -3.3543  -22.9419  -51.1573 N.am      18 UNK        -0.5000 
    100 CA        -3.2967  -21.5629  -51.6597 C.3       18 UNK         0.1400 
    101 CB        -4.6654  -20.8971  -51.4594 C.3       18 UNK        -0.1800 
    102 C         -2.8307  -21.4135  -53.1183 C.2       18 UNK         0.5000 
    103 O         -2.2257  -20.3948  -53.4540 O.2       18 UNK        -0.5000 
    104 N         -3.0509  -22.4494  -53.9383 N.am      19 UNK        -0.5000 
    105 CA        -2.5487  -22.5651  -55.3084 C.3       19 UNK         0.1400 
    106 CB        -3.1039  -23.8543  -55.9317 C.3       19 UNK        -0.1800 
    107 C         -1.0089  -22.5308  -55.4228 C.2       19 UNK         0.5000 
    108 O         -0.4979  -22.1584  -56.4785 O.2       19 UNK        -0.5000 
    109 N         -0.2902  -22.8837  -54.3464 N.am      20 UNK        -0.5000 
    110 CA         1.1693  -22.7973  -54.2754 C.3       20 UNK         0.1400 
    111 CB         1.6733  -23.6611  -53.1089 C.3       20 UNK        -0.1800 
    112 C          1.6819  -21.3508  -54.1283 C.2       20 UNK         0.5000 
    113 O          2.8206  -21.0814  -54.5128 O.2       20 UNK        -0.5000 
    114 N          0.8514  -20.4558  -53.5741 N.am      21 UNK        -0.5000 
    115 CA         1.1900  -19.0534  -53.3317 C.3       21 UNK         0.1400 
    116 CB         0.7690  -18.6677  -51.9047 C.3       21 UNK        -0.1800 
    117 C          0.5424  -18.1236  -54.3713 C.2       21 UNK         0.5000 
    118 O          1.2215  -17.2353  -54.8878 O.2       21 UNK        -0.5000 
    119 N         -0.7448  -18.3440  -54.6655 N.am      22 UNK        -0.5000 
    120 CA        -1.5470  -17.5405  -55.6051 C.3       22 UNK         0.1400 
    121 C         -1.6588  -18.1560  -57.0301 C.2       22 UNK         0.5000 
    122 N         -1.0849  -19.3176  -57.3124 N.am      22 UNK        -0.7600 
    123 O         -2.2639  -17.5544  -57.9134 O.2       22 UNK        -0.5000 
    124 C124       -2.9463  -17.2172  -55.0173 C.3       23 UNK        -0.0398 
    125 S125       -2.8487  -16.0360  -53.6301 S.3       23 UNK        -0.2404 
    126 C126       -3.1674  -17.1178  -52.2063 C.3       23 UNK        -0.0205 
    127 H127       -5.1764  -11.8297  -40.4145 H         1 UNK         0.0600 
    128 H128       -4.6308  -13.4328  -39.9104 H         1 UNK         0.0600 
    129 H129       -6.1083  -13.2613  -40.8631 H         1 UNK         0.0600 
    130 H130       -5.8106  -13.8367  -42.9903 H         1 UNK         0.3000 
    131 H131       -3.8907  -12.7064  -44.6756 H         1 UNK         0.0600 
    132 H132       -6.2535  -14.0248  -45.1235 H         1 UNK         0.0800 
    133 H133       -5.1713  -15.3103  -45.5512 H         1 UNK         0.0800 
    134 H134       -6.0017  -14.4653  -48.9748 H         1 UNK         0.0800 
    135 H135       -5.6882  -15.6517  -47.7396 H         1 UNK         0.0800 
    136 H136       -5.1215  -16.1192  -50.5807 H         1 UNK         0.1150 
    137 H137       -0.8657  -16.4391  -50.9325 H         1 UNK         0.1150 
    138 H138       -2.5751  -14.4678  -47.5482 H         1 UNK         0.1150 
    139 H139        0.4697  -14.8138  -49.3894 H         1 UNK         0.0800 
    140 H140       -0.2032  -14.4465  -47.8214 H         1 UNK         0.0800 
    141 H141       -1.2425  -16.2992  -46.3659 H         1 UNK         0.0800 
    142 H142       -0.1833  -17.5632  -45.7977 H         1 UNK         0.0800 
    143 H143       -2.1258  -17.8956  -48.1368 H         1 UNK         0.0600 
    144 H144       -0.0390  -19.5820  -47.2436 H         1 UNK         0.3000 
    145 H145       -1.3565  -22.5938  -48.6743 H         1 UNK         0.0600 
    146 H146        0.8946  -22.5038  -49.7028 H         1 UNK         0.0600 
    147 H147       -0.1652  -21.3321  -50.4667 H         1 UNK         0.0600 
    148 H148        1.0393  -20.7916  -49.3081 H         1 UNK         0.0600 
    149 H149        0.9579  -21.8482  -47.0774 H         1 UNK         0.3000 
    150 H150       -0.4374  -22.8651  -43.9610 H         1 UNK         0.0600 
    151 H151        0.3162  -24.9898  -45.0367 H         1 UNK         0.0600 
    152 H152        1.5479  -24.3430  -43.9645 H         1 UNK         0.0600 
    153 H153        1.7171  -24.1663  -45.7114 H         1 UNK         0.0600 
    154 H154        2.1649  -21.9271  -44.7166 H         1 UNK         0.3000 
    155 H155        1.4635  -18.4463  -44.2883 H         1 UNK         0.0600 
    156 H156        3.0619  -20.3821  -42.5383 H         1 UNK         0.0600 
    157 H157        1.7445  -19.3571  -41.9749 H         1 UNK         0.0600 
    158 H158        3.2205  -18.6249  -42.5803 H         1 UNK         0.0600 
    159 H159        3.9496  -19.3640  -44.7748 H         1 UNK         0.3000 
    160 H160        4.8299  -20.1296  -47.0833 H         1 UNK         0.0600 
    161 H161        3.1829  -18.4789  -49.0745 H         1 UNK         0.0600 
    162 H162        3.4469  -20.2177  -49.1368 H         1 UNK         0.0600 
    163 H163        4.7985  -19.1230  -49.3693 H         1 UNK         0.0600 
    164 H164        4.6339  -17.2480  -47.5058 H         1 UNK         0.3000 
    165 H165        6.0894  -16.2516  -44.5057 H         1 UNK         0.0600 
    166 H166        8.0388  -15.3939  -45.7759 H         1 UNK         0.0600 
    167 H167        8.1986  -17.1235  -45.5209 H         1 UNK         0.0600 
    168 H168        7.7066  -16.5155  -47.0969 H         1 UNK         0.0600 
    169 H169        5.8655  -14.8819  -46.9913 H         1 UNK         0.3000 
    170 H170        4.3143  -12.9675  -46.6378 H         1 UNK         0.0600 
    171 H171        4.3197  -14.3121  -48.6947 H         1 UNK         0.0600 
    172 H172        2.7698  -15.0330  -48.3058 H         1 UNK         0.0600 
    173 H173        2.8704  -13.3265  -48.7302 H         1 UNK         0.0600 
    174 H174        1.9228  -14.0022  -45.4553 H         1 UNK         0.3000 
    175 H175        0.7603  -10.7768  -44.9000 H         1 UNK         0.0600 
    176 H176       -0.9002  -12.6033  -46.7022 H         1 UNK         0.0600 
    177 H177       -1.5401  -11.3710  -45.6206 H         1 UNK         0.0600 
    178 H178       -0.5402  -10.9097  -46.9893 H         1 UNK         0.0600 
    179 H179       -0.4597  -13.3104  -44.3184 H         1 UNK         0.3000 
    180 H180        1.4656  -14.2833  -41.6869 H         1 UNK         0.0600 
    181 H181       -0.0363  -13.4551  -39.8709 H         1 UNK         0.0600 
    182 H182       -0.5645  -12.1267  -40.9032 H         1 UNK         0.0600 
    183 H183        1.1083  -12.2199  -40.3667 H         1 UNK         0.0600 
    184 H184       -1.4463  -14.0434  -42.1771 H         1 UNK         0.3000 
    185 H185       -1.6255  -17.0491  -43.9879 H         1 UNK         0.0600 
    186 H186       -1.4143  -18.1141  -41.7726 H         1 UNK         0.0600 
    187 H187       -2.3254  -16.8091  -41.0187 H         1 UNK         0.0600 
    188 H188       -3.1130  -17.8914  -42.1647 H         1 UNK         0.0600 
    189 H189       -3.7259  -15.6424  -42.7976 H         1 UNK         0.3000 
    190 H190       -1.9632  -19.9560  -45.2571 H         1 UNK         0.3000 
    191 H191       -4.4902  -19.0649  -44.1459 H         1 UNK         0.0600 
    192 H192       -4.1871  -21.0631  -42.6915 H         1 UNK         0.0600 
    193 H193       -2.6897  -20.1525  -42.7736 H         1 UNK         0.0600 
    194 H194       -2.8683  -21.6336  -43.7060 H         1 UNK         0.0600 
    195 H195       -3.6963  -20.9445  -46.8824 H         1 UNK         0.3000 
    196 H196       -4.6492  -22.3490  -48.2589 H         1 UNK         0.0600 
    197 H197       -7.3538  -21.4499  -47.1405 H         1 UNK         0.0600 
    198 H198       -6.4334  -20.5858  -48.3709 H         1 UNK         0.0600 
    199 H199       -7.0560  -22.1935  -48.7054 H         1 UNK         0.0600 
    200 H200       -3.6684  -23.4650  -45.8863 H         1 UNK         0.3000 
    201 H201       -5.4102  -25.3907  -44.6833 H         1 UNK         0.0600 
    202 H202       -2.3497  -25.3285  -44.8935 H         1 UNK         0.0600 
    203 H203       -3.2875  -26.3171  -43.7819 H         1 UNK         0.0600 
    204 H204       -3.3033  -24.5659  -43.6224 H         1 UNK         0.0600 
    205 H205       -6.2611  -27.1290  -45.6456 H         1 UNK         0.3000 
    206 H206       -6.7790  -28.7446  -47.0620 H         1 UNK         0.0600 
    207 H207       -4.7354  -29.8439  -46.1050 H         1 UNK         0.0600 
    208 H208       -5.0525  -30.3561  -47.7533 H         1 UNK         0.0600 
    209 H209       -3.7707  -29.1971  -47.4314 H         1 UNK         0.0600 
    210 H210       -6.5311  -26.0364  -48.0916 H         1 UNK         0.3000 
    211 H211       -6.8001  -24.8389  -49.9028 H         1 UNK         0.0600 
    212 H212       -7.6881  -25.8146  -51.9685 H         1 UNK         0.0600 
    213 H213       -8.4278  -26.6154  -50.5933 H         1 UNK         0.0600 
    214 H214       -7.1530  -27.4226  -51.5061 H         1 UNK         0.0600 
    215 H215       -4.0894  -25.6430  -49.1038 H         1 UNK         0.3000 
    216 H216       -2.4154  -25.9587  -51.3626 H         1 UNK         0.0600 
    217 H217       -1.8493  -24.8912  -48.5499 H         1 UNK         0.0600 
    218 H218       -0.6053  -25.3196  -49.7187 H         1 UNK         0.0600 
    219 H219       -1.6882  -26.5545  -49.1063 H         1 UNK         0.0600 
    220 H220       -4.2333  -23.2341  -50.7608 H         1 UNK         0.3000 
    221 H221       -2.5603  -21.0268  -51.0638 H         1 UNK         0.0600 
    222 H222       -4.9282  -20.8514  -50.4029 H         1 UNK         0.0600 
    223 H223       -5.4562  -21.4360  -51.9825 H         1 UNK         0.0600 
    224 H224       -4.6627  -19.8729  -51.8326 H         1 UNK         0.0600 
    225 H225       -3.5433  -23.2502  -53.5686 H         1 UNK         0.3000 
    226 H226       -2.9342  -21.7145  -55.8745 H         1 UNK         0.0600 
    227 H227       -2.7732  -24.7386  -55.3854 H         1 UNK         0.0600 
    228 H228       -4.1940  -23.8518  -55.9391 H         1 UNK         0.0600 
    229 H229       -2.7734  -23.9633  -56.9655 H         1 UNK         0.0600 
    230 H230       -0.7655  -23.1724  -53.4954 H         1 UNK         0.3000 
    231 H231        1.5841  -23.2050  -55.1998 H         1 UNK         0.0600 
    232 H232        1.3447  -23.2686  -52.1461 H         1 UNK         0.0600 
    233 H233        2.7633  -23.6943  -53.0918 H         1 UNK         0.0600 
    234 H234        1.3170  -24.6879  -53.1923 H         1 UNK         0.0600 
    235 H235       -0.0876  -20.7462  -53.3350 H         1 UNK         0.3000 
    236 H236        2.2705  -18.9089  -53.3970 H         1 UNK         0.0600 
    237 H237        1.3239  -19.2450  -51.1659 H         1 UNK         0.0600 
    238 H238        0.9789  -17.6159  -51.7086 H         1 UNK         0.0600 
    239 H239       -0.2940  -18.8363  -51.7312 H         1 UNK         0.0600 
    240 H240       -1.2425  -19.1019  -54.2031 H         1 UNK         0.3000 
    241 H241       -1.0448  -16.5848  -55.7663 H         1 UNK         0.0600 
    242 H242       -0.5877  -19.8463  -56.6122 H         1 UNK         0.3800 
    243 H243       -1.1642  -19.6910  -58.2448 H         1 UNK         0.3800 
    244 H244       -3.4562  -18.1304  -54.7059 H         1 UNK         0.0800 
    245 H245       -3.5888  -16.7556  -55.7691 H         1 UNK         0.0800 
    246 H246       -2.4775  -17.9616  -52.2228 H         1 UNK         0.0800 
    247 H247       -4.1719  -17.5344  -52.2894 H         1 UNK         0.0800 
@<TRIPOS>BOND
     1    1    2 1    
     2    1  127 1    
     3    1  128 1    
     4    1  129 1    
     5    2    3 2    
     6    2    4 am   BACKBONE|DICT|INTERRES
     7    4    5 1    
     8    4  130 1    
     9    5    6 1    
    10    5   65 1    
    11    5  131 1    
    12    6    7 1    
    13    6  132 1    
    14    6  133 1    
    15    7    8 1    
    16    8    9 1    
    17    8  134 1    
    18    8  135 1    
    19    9   10 ar   
    20    9   14 ar   
    21   10   11 ar   
    22   10  136 1    
    23   11   12 ar   
    24   11  126 1    
    25   12   13 ar   
    26   12  137 1    
    27   13   14 ar   
    28   13   15 1    
    29   14  138 1    
    30   15   16 1    
    31   15  139 1    
    32   15  140 1    
    33   16   17 1    
    34   17   18 1    
    35   17  141 1    
    36   17  142 1    
    37   18   19 1    
    38   18   67 1    
    39   18  143 1    
    40   19   20 am   BACKBONE|DICT|INTERRES
    41   19  144 1    
    42   20   21 2    
    43   20   22 1    
    44   22   23 1    
    45   22   24 1    
    46   22  145 1    
    47   23  146 1    
    48   23  147 1    
    49   23  148 1    
    50   24   25 am   BACKBONE|DICT|INTERRES
    51   24  149 1    
    52   25   26 2    
    53   25   27 1    
    54   27   28 1    
    55   27   29 1    
    56   27  150 1    
    57   28  151 1    
    58   28  152 1    
    59   28  153 1    
    60   29   30 am   BACKBONE|DICT|INTERRES
    61   29  154 1    
    62   30   31 2    
    63   30   32 1    
    64   32   33 1    
    65   32   34 1    
    66   32  155 1    
    67   33  156 1    
    68   33  157 1    
    69   33  158 1    
    70   34   35 am   BACKBONE|DICT|INTERRES
    71   34  159 1    
    72   35   36 2    
    73   35   37 1    
    74   37   38 1    
    75   37   39 1    
    76   37  160 1    
    77   38  161 1    
    78   38  162 1    
    79   38  163 1    
    80   39   40 am   BACKBONE|DICT|INTERRES
    81   39  164 1    
    82   40   41 2    
    83   40   42 1    
    84   42   43 1    
    85   42   44 1    
    86   42  165 1    
    87   43  166 1    
    88   43  167 1    
    89   43  168 1    
    90   44   45 am   BACKBONE|DICT|INTERRES
    91   44  169 1    
    92   45   46 2    
    93   45   47 1    
    94   47   48 1    
    95   47   49 1    
    96   47  170 1    
    97   48  171 1    
    98   48  172 1    
    99   48  173 1    
   100   49   50 am   BACKBONE|DICT|INTERRES
   101   49  174 1    
   102   50   51 2    
   103   50   52 1    
   104   52   53 1    
   105   52   54 1    
   106   52  175 1    
   107   53  176 1    
   108   53  177 1    
   109   53  178 1    
   110   54   55 am   BACKBONE|DICT|INTERRES
   111   54  179 1    
   112   55   56 2    
   113   55   57 1    
   114   57   58 1    
   115   57   59 1    
   116   57  180 1    
   117   58  181 1    
   118   58  182 1    
   119   58  183 1    
   120   59   60 am   BACKBONE|DICT|INTERRES
   121   59  184 1    
   122   60   61 2    
   123   60   62 1    
   124   62   63 1    
   125   62   64 1    
   126   62  185 1    
   127   63  186 1    
   128   63  187 1    
   129   63  188 1    
   130   64   65 am   BACKBONE|DICT|INTERRES
   131   64  189 1    
   132   65   66 2    
   133   67   68 2    
   134   67   69 am   BACKBONE|DICT|INTERRES
   135   69   70 1    
   136   69  190 1    
   137   70   71 1    
   138   70   72 1    
   139   70  191 1    
   140   71  192 1    
   141   71  193 1    
   142   71  194 1    
   143   72   73 2    
   144   72   74 am   BACKBONE|DICT|INTERRES
   145   74   75 1    
   146   74  195 1    
   147   75   76 1    
   148   75   77 1    
   149   75  196 1    
   150   76  197 1    
   151   76  198 1    
   152   76  199 1    
   153   77   78 2    
   154   77   79 am   BACKBONE|DICT|INTERRES
   155   79   80 1    
   156   79  200 1    
   157   80   81 1    
   158   80   82 1    
   159   80  201 1    
   160   81  202 1    
   161   81  203 1    
   162   81  204 1    
   163   82   83 2    
   164   82   84 am   BACKBONE|DICT|INTERRES
   165   84   85 1    
   166   84  205 1    
   167   85   86 1    
   168   85   87 1    
   169   85  206 1    
   170   86  207 1    
   171   86  208 1    
   172   86  209 1    
   173   87   88 2    
   174   87   89 am   BACKBONE|DICT|INTERRES
   175   89   90 1    
   176   89  210 1    
   177   90   91 1    
   178   90   92 1    
   179   90  211 1    
   180   91  212 1    
   181   91  213 1    
   182   91  214 1    
   183   92   93 2    
   184   92   94 am   BACKBONE|DICT|INTERRES
   185   94   95 1    
   186   94  215 1    
   187   95   96 1    
   188   95   97 1    
   189   95  216 1    
   190   96  217 1    
   191   96  218 1    
   192   96  219 1    
   193   97   98 2    
   194   97   99 am   BACKBONE|DICT|INTERRES
   195   99  100 1    
   196   99  220 1    
   197  100  101 1    
   198  100  102 1    
   199  100  221 1    
   200  101  222 1    
   201  101  223 1    
   202  101  224 1    
   203  102  103 2    
   204  102  104 am   BACKBONE|DICT|INTERRES
   205  104  105 1    
   206  104  225 1    
   207  105  106 1    
   208  105  107 1    
   209  105  226 1    
   210  106  227 1    
   211  106  228 1    
   212  106  229 1    
   213  107  108 2    
   214  107  109 am   BACKBONE|DICT|INTERRES
   215  109  110 1    
   216  109  230 1    
   217  110  111 1    
   218  110  112 1    
   219  110  231 1    
   220  111  232 1    
   221  111  233 1    
   222  111  234 1    
   223  112  113 2    
   224  112  114 am   BACKBONE|DICT|INTERRES
   225  114  115 1    
   226  114  235 1    
   227  115  116 1    
   228  115  117 1    
   229  115  236 1    
   230  116  237 1    
   231  116  238 1    
   232  116  239 1    
   233  117  118 2    
   234  117  119 am   BACKBONE|DICT|INTERRES
   235  119  120 1    
   236  119  240 1    
   237  120  121 1    
   238  120  124 1    
   239  120  241 1    
   240  121  122 am   BACKBONE|DICT|INTERRES
   241  121  123 2    
   242  122  242 1    
   243  122  243 1    
   244  124  125 1    
   245  124  244 1    
   246  124  245 1    
   247  125  126 1    
   248  126  246 1    
   249  126  247 1    
@<TRIPOS>SUBSTRUCTURE
     1 UNK         1 GROUP             0       ****    0 ROOT    
