@<TRIPOS>MOLECULE
3R540
247   249    1
SMALL
USER_CHARGES


@<TRIPOS>ATOM
      1 CA          5.0147  -20.5133  -44.1205 C.3       0 UNK        -0.1800 
      2 C           4.5385  -19.0741  -44.2580 C.2       0 UNK         0.5000 
      3 O           4.0047  -18.5136  -43.3021 O.2       0 UNK        -0.5000 
      4 N           4.7211  -18.4870  -45.4467 N.am      1 UNK        -0.5000 
      5 CA          4.3176  -17.1210  -45.7909 C.3       1 UNK         0.1400 
      6 C6          4.3467  -16.9160  -47.3217 C.3       23 UNK        -0.0398 
      7 S7          3.3563  -15.4969  -47.9143 S.3       23 UNK        -0.2404 
      8 C8          3.4198  -15.7342  -49.7268 C.3       23 UNK        -0.0205 
      9 C9          2.5707  -16.9192  -50.1638 C.ar      23 UNK        -0.0193 
     10 C10         1.2239  -16.7461  -50.4950 C.ar      23 UNK        -0.1150 
     11 C11         0.4120  -17.8526  -50.7672 C.ar      23 UNK        -0.0193 
     12 C12         0.9569  -19.1387  -50.6845 C.ar      23 UNK        -0.1150 
     13 C13         2.3070  -19.3201  -50.3725 C.ar      23 UNK        -0.0193 
     14 C14         3.1184  -18.2033  -50.1714 C.ar      23 UNK        -0.1150 
     15 C15         2.8744  -20.7177  -50.1655 C.3       23 UNK        -0.0205 
     16 S16         3.5449  -20.9591  -48.4769 S.3       23 UNK        -0.2404 
     17 C17         2.1508  -20.4592  -47.4002 C.3       23 UNK        -0.0398 
     18 CA          1.3071  -21.6403  -46.8696 C.3       11 UNK         0.1400 
     19 N           0.3995  -21.2146  -45.8009 N.am      11 UNK        -0.5000 
     20 C          -0.3678  -22.0355  -45.0695 C.2       10 UNK         0.5000 
     21 O          -0.3434  -23.2627  -45.1643 O.2       10 UNK        -0.5000 
     22 CA         -1.3692  -21.3726  -44.1061 C.3       10 UNK         0.1400 
     23 CB         -0.6758  -20.9442  -42.8043 C.3       10 UNK        -0.1800 
     24 N          -2.0550  -20.2267  -44.7072 N.am      10 UNK        -0.5000 
     25 C          -2.8731  -20.3072  -45.7672 C.2       9 UNK         0.5000 
     26 O          -3.1766  -21.3653  -46.3153 O.2       9 UNK        -0.5000 
     27 CA         -3.4085  -18.9864  -46.3475 C.3       9 UNK         0.1400 
     28 CB         -4.6300  -18.4984  -45.5560 C.3       9 UNK        -0.1800 
     29 N          -2.3933  -17.9343  -46.4059 N.am      9 UNK        -0.5000 
     30 C          -1.2685  -18.0111  -47.1318 C.2       8 UNK         0.5000 
     31 O          -0.9865  -18.9736  -47.8445 O.2       8 UNK        -0.5000 
     32 CA         -0.2657  -16.8505  -46.9926 C.3       8 UNK         0.1400 
     33 CB         -0.7397  -15.6086  -47.7613 C.3       8 UNK        -0.1800 
     34 N          -0.0275  -16.4867  -45.5973 N.am      8 UNK        -0.5000 
     35 C           0.4740  -17.3076  -44.6651 C.2       7 UNK         0.5000 
     36 O           0.8698  -18.4493  -44.9004 O.2       7 UNK        -0.5000 
     37 CA          0.4769  -16.7757  -43.2211 C.3       7 UNK         0.1400 
     38 CB          1.6503  -15.8153  -42.9746 C.3       7 UNK        -0.1800 
     39 N          -0.7747  -16.0925  -42.8971 N.am      7 UNK        -0.5000 
     40 C          -1.9586  -16.7028  -42.7524 C.2       6 UNK         0.5000 
     41 O          -2.1194  -17.9185  -42.8539 O.2       6 UNK        -0.5000 
     42 CA         -3.1711  -15.7931  -42.4830 C.3       6 UNK         0.1400 
     43 CB         -3.2716  -15.4520  -40.9888 C.3       6 UNK        -0.1800 
     44 N          -3.1286  -14.5543  -43.2625 N.am      6 UNK        -0.5000 
     45 C          -3.2528  -14.5009  -44.5959 C.2       5 UNK         0.5000 
     46 O          -3.4377  -15.4890  -45.3040 O.2       5 UNK        -0.5000 
     47 CA         -3.1012  -13.1180  -45.2542 C.3       5 UNK         0.1400 
     48 CB         -4.4392  -12.3640  -45.2396 C.3       5 UNK        -0.1800 
     49 N          -2.0647  -12.2831  -44.6408 N.am      5 UNK        -0.5000 
     50 C          -0.7656  -12.6020  -44.5750 C.2       4 UNK         0.5000 
     51 O          -0.3028  -13.6819  -44.9512 O.2       4 UNK        -0.5000 
     52 CA          0.1624  -11.5545  -43.9348 C.3       4 UNK         0.1400 
     53 CB          0.3252  -11.8410  -42.4342 C.3       4 UNK        -0.1800 
     54 N           1.4860  -11.5393  -44.5545 N.am      4 UNK        -0.5000 
     55 C           1.7575  -11.2236  -45.8265 C.2       3 UNK         0.5000 
     56 O           0.9063  -10.8218  -46.6212 O.2       3 UNK        -0.5000 
     57 CA          3.2154  -11.3849  -46.3109 C.3       3 UNK         0.1400 
     58 CB          3.9658  -10.0400  -46.2619 C.3       3 UNK        -0.1800 
     59 N           3.9880  -12.4515  -45.6522 N.am      3 UNK        -0.5000 
     60 C           4.4055  -12.5369  -44.3789 C.2       2 UNK         0.5000 
     61 O           4.1678  -11.6838  -43.5236 O.2       2 UNK        -0.5000 
     62 CA          5.1541  -13.8253  -43.9948 C.3       2 UNK         0.1400 
     63 CB          5.1780  -14.0825  -42.4752 C.3       2 UNK        -0.1800 
     64 N           4.5456  -14.9630  -44.6795 N.am      2 UNK        -0.5000 
     65 C           5.1816  -16.0738  -45.0603 C.2       1 UNK         0.5000 
     66 O           6.3859  -16.2761  -44.8851 O.2       1 UNK        -0.5000 
     67 C           0.5446  -22.3535  -48.0041 C.2       11 UNK         0.5000 
     68 O           0.9360  -23.4514  -48.3999 O.2       11 UNK        -0.5000 
     69 N          -0.5491  -21.7402  -48.4784 N.am      12 UNK        -0.5000 
     70 CA         -1.4260  -22.3038  -49.5027 C.3       12 UNK         0.1400 
     71 CB         -2.4900  -21.2779  -49.9051 C.3       12 UNK        -0.1800 
     72 C          -2.0756  -23.6285  -49.0718 C.2       12 UNK         0.5000 
     73 O          -2.0751  -24.5742  -49.8561 O.2       12 UNK        -0.5000 
     74 N          -2.5666  -23.6960  -47.8271 N.am      13 UNK        -0.5000 
     75 CA         -3.1310  -24.9046  -47.2262 C.3       13 UNK         0.1400 
     76 CB         -3.7319  -24.5705  -45.8530 C.3       13 UNK        -0.1800 
     77 C          -2.1088  -26.0514  -47.1165 C.2       13 UNK         0.5000 
     78 O          -2.4428  -27.1885  -47.4503 O.2       13 UNK        -0.5000 
     79 N          -0.8741  -25.7306  -46.7020 N.am      14 UNK        -0.5000 
     80 CA          0.2503  -26.6684  -46.6367 C.3       14 UNK         0.1400 
     81 CB          1.4249  -26.0117  -45.8958 C.3       14 UNK        -0.1800 
     82 C           0.6925  -27.1750  -48.0238 C.2       14 UNK         0.5000 
     83 O           1.0305  -28.3509  -48.1629 O.2       14 UNK        -0.5000 
     84 N           0.6506  -26.2900  -49.0285 N.am      15 UNK        -0.5000 
     85 CA          0.9304  -26.5926  -50.4341 C.3       15 UNK         0.1400 
     86 CB          1.2430  -25.2766  -51.1657 C.3       15 UNK        -0.1800 
     87 C          -0.2130  -27.3453  -51.1491 C.2       15 UNK         0.5000 
     88 O          -0.0079  -27.8120  -52.2704 O.2       15 UNK        -0.5000 
     89 N          -1.3886  -27.4309  -50.5079 N.am      16 UNK        -0.5000 
     90 CA         -2.6561  -27.9663  -51.0178 C.3       16 UNK         0.1400 
     91 CB         -2.5480  -29.4769  -51.3129 C.3       16 UNK        -0.1800 
     92 C          -3.2193  -27.1485  -52.2021 C.2       16 UNK         0.5000 
     93 O          -3.8477  -27.7073  -53.1036 O.2       16 UNK        -0.5000 
     94 N          -2.9864  -25.8323  -52.1682 N.am      17 UNK        -0.5000 
     95 CA         -3.5110  -24.8430  -53.1020 C.3       17 UNK         0.1400 
     96 CB         -2.4442  -23.7517  -53.2964 C.3       17 UNK        -0.1800 
     97 C          -4.8175  -24.2350  -52.5602 C.2       17 UNK         0.5000 
     98 O          -5.1585  -24.4190  -51.3882 O.2       17 UNK        -0.5000 
     99 N          -5.5242  -23.5002  -53.4267 N.am      18 UNK        -0.5000 
    100 CA        -6.7472  -22.7693  -53.1021 C.3       18 UNK         0.1400 
    101 CB        -7.4841  -22.4267  -54.4085 C.3       18 UNK        -0.1800 
    102 C         -6.4290  -21.5091  -52.2761 C.2       18 UNK         0.5000 
    103 O         -6.2204  -20.4358  -52.8440 O.2       18 UNK        -0.5000 
    104 N         -6.3916  -21.6583  -50.9463 N.am      19 UNK        -0.5000 
    105 CA        -6.0628  -20.6072  -49.9765 C.3       19 UNK         0.1400 
    106 CB        -6.0275  -21.2227  -48.5687 C.3       19 UNK        -0.1800 
    107 C         -6.9901  -19.3761  -50.0126 C.2       19 UNK         0.5000 
    108 O         -6.5588  -18.2885  -49.6330 O.2       19 UNK        -0.5000 
    109 N         -8.2298  -19.5602  -50.4859 N.am      20 UNK        -0.5000 
    110 CA        -9.1986  -18.4868  -50.7099 C.3       20 UNK         0.1400 
    111 CB       -10.6034  -19.1007  -50.8134 C.3       20 UNK        -0.1800 
    112 C         -8.8897  -17.6419  -51.9633 C.2       20 UNK         0.5000 
    113 O         -9.2767  -16.4734  -52.0073 O.2       20 UNK        -0.5000 
    114 N         -8.2215  -18.2409  -52.9592 N.am      21 UNK        -0.5000 
    115 CA        -7.8462  -17.5912  -54.2164 C.3       21 UNK         0.1400 
    116 CB        -7.9597  -18.6089  -55.3621 C.3       21 UNK        -0.1800 
    117 C         -6.4237  -17.0091  -54.1544 C.2       21 UNK         0.5000 
    118 O         -6.1743  -15.9592  -54.7481 O.2       21 UNK        -0.5000 
    119 N         -5.5222  -17.7039  -53.4486 N.am      22 UNK        -0.5000 
    120 CA        -4.1280  -17.3116  -53.2027 C.3       22 UNK         0.1400 
    121 C         -4.0000  -15.9487  -52.4615 C.2       22 UNK         0.5000 
    122 N         -3.0971  -15.0790  -52.8947 N.am      22 UNK        -0.7600 
    123 O         -4.6874  -15.6885  -51.4774 O.2       22 UNK        -0.5000 
    124 C124       -3.3834  -18.4409  -52.4463 C.3       23 UNK        -0.0398 
    125 S125       -1.5704  -18.3853  -52.6542 S.3       23 UNK        -0.2404 
    126 C126       -1.0709  -17.6651  -51.0582 C.3       23 UNK        -0.0205 
    127 H127        5.7713  -20.5859  -43.3393 H         1 UNK         0.0600 
    128 H128        5.4451  -20.8892  -45.0491 H         1 UNK         0.0600 
    129 H129        4.1788  -21.1585  -43.8497 H         1 UNK         0.0600 
    130 H130        5.2093  -18.9938  -46.1707 H         1 UNK         0.3000 
    131 H131        3.2850  -17.0082  -45.4572 H         1 UNK         0.0600 
    132 H132        5.3683  -16.8348  -47.6977 H         1 UNK         0.0800 
    133 H133        3.9252  -17.8114  -47.7698 H         1 UNK         0.0800 
    134 H134        4.4546  -15.8680  -50.0458 H         1 UNK         0.0800 
    135 H135        3.0648  -14.8251  -50.2142 H         1 UNK         0.0800 
    136 H136        0.8006  -15.7517  -50.5000 H         1 UNK         0.1150 
    137 H137        0.3195  -19.9977  -50.8365 H         1 UNK         0.1150 
    138 H138        4.1623  -18.3449  -49.9301 H         1 UNK         0.1150 
    139 H139        2.1163  -21.4772  -50.3616 H         1 UNK         0.0800 
    140 H140        3.6717  -20.8880  -50.8900 H         1 UNK         0.0800 
    141 H141        1.5217  -19.7216  -47.8963 H         1 UNK         0.0800 
    142 H142        2.5871  -19.9306  -46.5533 H         1 UNK         0.0800 
    143 H143        1.9907  -22.3687  -46.4282 H         1 UNK         0.0600 
    144 H144        0.3418  -20.2154  -45.6265 H         1 UNK         0.3000 
    145 H145       -2.1273  -22.1169  -43.8545 H         1 UNK         0.0600 
    146 H146       -0.1755  -21.7904  -42.3320 H         1 UNK         0.0600 
    147 H147        0.0761  -20.1748  -42.9798 H         1 UNK         0.0600 
    148 H148       -1.3954  -20.5501  -42.0866 H         1 UNK         0.0600 
    149 H149       -1.8948  -19.3218  -44.2763 H         1 UNK         0.3000 
    150 H150       -3.7293  -19.1838  -47.3721 H         1 UNK         0.0600 
    151 H151       -5.3960  -19.2729  -45.5008 H         1 UNK         0.0600 
    152 H152       -5.0831  -17.6279  -46.0306 H         1 UNK         0.0600 
    153 H153       -4.3648  -18.2241  -44.5348 H         1 UNK         0.0600 
    154 H154       -2.5869  -17.0877  -45.8772 H         1 UNK         0.3000 
    155 H155        0.6829  -17.1792  -47.4227 H         1 UNK         0.0600 
    156 H156       -1.6345  -15.1758  -47.3159 H         1 UNK         0.0600 
    157 H157        0.0323  -14.8388  -47.7755 H         1 UNK         0.0600 
    158 H158       -0.9802  -15.8508  -48.7948 H         1 UNK         0.0600 
    159 H159       -0.2875  -15.5421  -45.3245 H         1 UNK         0.3000 
    160 H160        0.5873  -17.6286  -42.5480 H         1 UNK         0.0600 
    161 H161        1.6294  -14.9599  -43.6495 H         1 UNK         0.0600 
    162 H162        2.6022  -16.3243  -43.1140 H         1 UNK         0.0600 
    163 H163        1.6402  -15.4349  -41.9531 H         1 UNK         0.0600 
    164 H164       -0.7440  -15.0849  -42.8581 H         1 UNK         0.3000 
    165 H165       -4.0700  -16.3440  -42.7678 H         1 UNK         0.0600 
    166 H166       -4.1704  -14.8729  -40.7765 H         1 UNK         0.0600 
    167 H167       -3.3203  -16.3589  -40.3846 H         1 UNK         0.0600 
    168 H168       -2.4114  -14.8752  -40.6467 H         1 UNK         0.0600 
    169 H169       -2.9778  -13.6949  -42.7554 H         1 UNK         0.3000 
    170 H170       -2.8166  -13.2808  -46.2956 H         1 UNK         0.0600 
    171 H171       -5.2262  -12.9566  -45.7081 H         1 UNK         0.0600 
    172 H172       -4.7622  -12.1340  -44.2235 H         1 UNK         0.0600 
    173 H173       -4.3698  -11.4260  -45.7909 H         1 UNK         0.0600 
    174 H174       -2.3645  -11.3837  -44.2929 H         1 UNK         0.3000 
    175 H175       -0.2797  -10.5643  -44.0610 H         1 UNK         0.0600 
    176 H176        0.7884  -12.8127  -42.2577 H         1 UNK         0.0600 
    177 H177        0.9458  -11.0841  -41.9540 H         1 UNK         0.0600 
    178 H178       -0.6397  -11.8388  -41.9257 H         1 UNK         0.0600 
    179 H179        2.2709  -11.7963  -43.9668 H         1 UNK         0.3000 
    180 H180        3.1525  -11.6824  -47.3589 H         1 UNK         0.0600 
    181 H181        4.0450   -9.6530  -45.2457 H         1 UNK         0.0600 
    182 H182        3.4488   -9.2854  -46.8559 H         1 UNK         0.0600 
    183 H183        4.9739  -10.1356  -46.6652 H         1 UNK         0.0600 
    184 H184        4.2252  -13.2235  -46.2602 H         1 UNK         0.3000 
    185 H185        6.1816  -13.6998  -44.3425 H         1 UNK         0.0600 
    186 H186        5.6660  -13.2637  -41.9453 H         1 UNK         0.0600 
    187 H187        4.1702  -14.1843  -42.0709 H         1 UNK         0.0600 
    188 H188        5.7272  -14.9933  -42.2364 H         1 UNK         0.0600 
    189 H189        3.5621  -14.8657  -44.8893 H         1 UNK         0.3000 
    190 H190       -0.7912  -20.8175  -48.1233 H         1 UNK         0.3000 
    191 H191       -0.8119  -22.5113  -50.3811 H         1 UNK         0.0600 
    192 H192       -3.0572  -20.9324  -49.0418 H         1 UNK         0.0600 
    193 H193       -3.1935  -21.7030  -50.6222 H         1 UNK         0.0600 
    194 H194       -2.0345  -20.4092  -50.3744 H         1 UNK         0.0600 
    195 H195       -2.5756  -22.8556  -47.2533 H         1 UNK         0.3000 
    196 H196       -3.9406  -25.2452  -47.8752 H         1 UNK         0.0600 
    197 H197       -4.1716  -25.4558  -45.3922 H         1 UNK         0.0600 
    198 H198       -4.5208  -23.8233  -45.9408 H         1 UNK         0.0600 
    199 H199       -2.9785  -24.1817  -45.1676 H         1 UNK         0.0600 
    200 H200       -0.6872  -24.7762  -46.4080 H         1 UNK         0.3000 
    201 H201       -0.0725  -27.5354  -46.0567 H         1 UNK         0.0600 
    202 H202        1.1404  -25.7248  -44.8833 H         1 UNK         0.0600 
    203 H203        1.7762  -25.1164  -46.4095 H         1 UNK         0.0600 
    204 H204        2.2691  -26.6975  -45.8151 H         1 UNK         0.0600 
    205 H205        0.4303  -25.3220  -48.8118 H         1 UNK         0.3000 
    206 H206        1.8178  -27.2270  -50.4809 H         1 UNK         0.0600 
    207 H207        2.0794  -24.7544  -50.7005 H         1 UNK         0.0600 
    208 H208        1.5128  -25.4594  -52.2065 H         1 UNK         0.0600 
    209 H209        0.3855  -24.6032  -51.1632 H         1 UNK         0.0600 
    210 H210       -1.4490  -26.9822  -49.6030 H         1 UNK         0.3000 
    211 H211       -3.3747  -27.8445  -50.2061 H         1 UNK         0.0600 
    212 H212       -1.9041  -29.6801  -52.1688 H         1 UNK         0.0600 
    213 H213       -3.5276  -29.9015  -51.5351 H         1 UNK         0.0600 
    214 H214       -2.1482  -30.0178  -50.4551 H         1 UNK         0.0600 
    215 H215       -2.5472  -25.4485  -51.3321 H         1 UNK         0.3000 
    216 H216       -3.7167  -25.3119  -54.0664 H         1 UNK         0.0600 
    217 H217       -2.7642  -23.0085  -54.0274 H         1 UNK         0.0600 
    218 H218       -1.5079  -24.1781  -53.6574 H         1 UNK         0.0600 
    219 H219       -2.2318  -23.2255  -52.3661 H         1 UNK         0.0600 
    220 H220       -5.1675  -23.3724  -54.3626 H         1 UNK         0.3000 
    221 H221       -7.4016  -23.4126  -52.5098 H         1 UNK         0.0600 
    222 H222       -6.8566  -21.8493  -55.0884 H         1 UNK         0.0600 
    223 H223       -7.7964  -23.3308  -54.9313 H         1 UNK         0.0600 
    224 H224       -8.3821  -21.8399  -54.2105 H         1 UNK         0.0600 
    225 H225       -6.5130  -22.5902  -50.5722 H         1 UNK         0.3000 
    226 H226       -5.0648  -20.2418  -50.2185 H         1 UNK         0.0600 
    227 H227       -5.2805  -22.0143  -48.4996 H         1 UNK         0.0600 
    228 H228       -5.7742  -20.4742  -47.8177 H         1 UNK         0.0600 
    229 H229       -6.9930  -21.6480  -48.2930 H         1 UNK         0.0600 
    230 H230       -8.5087  -20.4921  -50.7546 H         1 UNK         0.3000 
    231 H231       -9.1829  -17.8175  -49.8470 H         1 UNK         0.0600 
    232 H232      -11.3586  -18.3262  -50.9535 H         1 UNK         0.0600 
    233 H233      -10.8637  -19.6458  -49.9058 H         1 UNK         0.0600 
    234 H234      -10.6810  -19.7906  -51.6547 H         1 UNK         0.0600 
    235 H235       -7.8781  -19.1831  -52.8230 H         1 UNK         0.3000 
    236 H236       -8.5354  -16.7714  -54.4299 H         1 UNK         0.0600 
    237 H237       -8.9674  -19.0196  -55.4277 H         1 UNK         0.0600 
    238 H238       -7.7354  -18.1411  -56.3215 H         1 UNK         0.0600 
    239 H239       -7.2660  -19.4398  -55.2338 H         1 UNK         0.0600 
    240 H240       -5.8130  -18.5897  -53.0474 H         1 UNK         0.3000 
    241 H241       -3.6720  -17.2062  -54.1891 H         1 UNK         0.0600 
    242 H242       -2.5143  -15.2779  -53.6929 H         1 UNK         0.3800 
    243 H243       -3.0014  -14.1952  -52.4201 H         1 UNK         0.3800 
    244 H244       -3.6555  -18.4522  -51.3894 H         1 UNK         0.0800 
    245 H245       -3.6940  -19.4116  -52.8355 H         1 UNK         0.0800 
    246 H246       -1.3329  -16.6066  -51.0604 H         1 UNK         0.0800 
    247 H247       -1.6412  -18.1203  -50.2496 H         1 UNK         0.0800 
@<TRIPOS>BOND
     1    1    2 1    
     2    1  127 1    
     3    1  128 1    
     4    1  129 1    
     5    2    3 2    
     6    2    4 am   BACKBONE|DICT|INTERRES
     7    4    5 1    
     8    4  130 1    
     9    5    6 1    
    10    5   65 1    
    11    5  131 1    
    12    6    7 1    
    13    6  132 1    
    14    6  133 1    
    15    7    8 1    
    16    8    9 1    
    17    8  134 1    
    18    8  135 1    
    19    9   10 ar   
    20    9   14 ar   
    21   10   11 ar   
    22   10  136 1    
    23   11   12 ar   
    24   11  126 1    
    25   12   13 ar   
    26   12  137 1    
    27   13   14 ar   
    28   13   15 1    
    29   14  138 1    
    30   15   16 1    
    31   15  139 1    
    32   15  140 1    
    33   16   17 1    
    34   17   18 1    
    35   17  141 1    
    36   17  142 1    
    37   18   19 1    
    38   18   67 1    
    39   18  143 1    
    40   19   20 am   BACKBONE|DICT|INTERRES
    41   19  144 1    
    42   20   21 2    
    43   20   22 1    
    44   22   23 1    
    45   22   24 1    
    46   22  145 1    
    47   23  146 1    
    48   23  147 1    
    49   23  148 1    
    50   24   25 am   BACKBONE|DICT|INTERRES
    51   24  149 1    
    52   25   26 2    
    53   25   27 1    
    54   27   28 1    
    55   27   29 1    
    56   27  150 1    
    57   28  151 1    
    58   28  152 1    
    59   28  153 1    
    60   29   30 am   BACKBONE|DICT|INTERRES
    61   29  154 1    
    62   30   31 2    
    63   30   32 1    
    64   32   33 1    
    65   32   34 1    
    66   32  155 1    
    67   33  156 1    
    68   33  157 1    
    69   33  158 1    
    70   34   35 am   BACKBONE|DICT|INTERRES
    71   34  159 1    
    72   35   36 2    
    73   35   37 1    
    74   37   38 1    
    75   37   39 1    
    76   37  160 1    
    77   38  161 1    
    78   38  162 1    
    79   38  163 1    
    80   39   40 am   BACKBONE|DICT|INTERRES
    81   39  164 1    
    82   40   41 2    
    83   40   42 1    
    84   42   43 1    
    85   42   44 1    
    86   42  165 1    
    87   43  166 1    
    88   43  167 1    
    89   43  168 1    
    90   44   45 am   BACKBONE|DICT|INTERRES
    91   44  169 1    
    92   45   46 2    
    93   45   47 1    
    94   47   48 1    
    95   47   49 1    
    96   47  170 1    
    97   48  171 1    
    98   48  172 1    
    99   48  173 1    
   100   49   50 am   BACKBONE|DICT|INTERRES
   101   49  174 1    
   102   50   51 2    
   103   50   52 1    
   104   52   53 1    
   105   52   54 1    
   106   52  175 1    
   107   53  176 1    
   108   53  177 1    
   109   53  178 1    
   110   54   55 am   BACKBONE|DICT|INTERRES
   111   54  179 1    
   112   55   56 2    
   113   55   57 1    
   114   57   58 1    
   115   57   59 1    
   116   57  180 1    
   117   58  181 1    
   118   58  182 1    
   119   58  183 1    
   120   59   60 am   BACKBONE|DICT|INTERRES
   121   59  184 1    
   122   60   61 2    
   123   60   62 1    
   124   62   63 1    
   125   62   64 1    
   126   62  185 1    
   127   63  186 1    
   128   63  187 1    
   129   63  188 1    
   130   64   65 am   BACKBONE|DICT|INTERRES
   131   64  189 1    
   132   65   66 2    
   133   67   68 2    
   134   67   69 am   BACKBONE|DICT|INTERRES
   135   69   70 1    
   136   69  190 1    
   137   70   71 1    
   138   70   72 1    
   139   70  191 1    
   140   71  192 1    
   141   71  193 1    
   142   71  194 1    
   143   72   73 2    
   144   72   74 am   BACKBONE|DICT|INTERRES
   145   74   75 1    
   146   74  195 1    
   147   75   76 1    
   148   75   77 1    
   149   75  196 1    
   150   76  197 1    
   151   76  198 1    
   152   76  199 1    
   153   77   78 2    
   154   77   79 am   BACKBONE|DICT|INTERRES
   155   79   80 1    
   156   79  200 1    
   157   80   81 1    
   158   80   82 1    
   159   80  201 1    
   160   81  202 1    
   161   81  203 1    
   162   81  204 1    
   163   82   83 2    
   164   82   84 am   BACKBONE|DICT|INTERRES
   165   84   85 1    
   166   84  205 1    
   167   85   86 1    
   168   85   87 1    
   169   85  206 1    
   170   86  207 1    
   171   86  208 1    
   172   86  209 1    
   173   87   88 2    
   174   87   89 am   BACKBONE|DICT|INTERRES
   175   89   90 1    
   176   89  210 1    
   177   90   91 1    
   178   90   92 1    
   179   90  211 1    
   180   91  212 1    
   181   91  213 1    
   182   91  214 1    
   183   92   93 2    
   184   92   94 am   BACKBONE|DICT|INTERRES
   185   94   95 1    
   186   94  215 1    
   187   95   96 1    
   188   95   97 1    
   189   95  216 1    
   190   96  217 1    
   191   96  218 1    
   192   96  219 1    
   193   97   98 2    
   194   97   99 am   BACKBONE|DICT|INTERRES
   195   99  100 1    
   196   99  220 1    
   197  100  101 1    
   198  100  102 1    
   199  100  221 1    
   200  101  222 1    
   201  101  223 1    
   202  101  224 1    
   203  102  103 2    
   204  102  104 am   BACKBONE|DICT|INTERRES
   205  104  105 1    
   206  104  225 1    
   207  105  106 1    
   208  105  107 1    
   209  105  226 1    
   210  106  227 1    
   211  106  228 1    
   212  106  229 1    
   213  107  108 2    
   214  107  109 am   BACKBONE|DICT|INTERRES
   215  109  110 1    
   216  109  230 1    
   217  110  111 1    
   218  110  112 1    
   219  110  231 1    
   220  111  232 1    
   221  111  233 1    
   222  111  234 1    
   223  112  113 2    
   224  112  114 am   BACKBONE|DICT|INTERRES
   225  114  115 1    
   226  114  235 1    
   227  115  116 1    
   228  115  117 1    
   229  115  236 1    
   230  116  237 1    
   231  116  238 1    
   232  116  239 1    
   233  117  118 2    
   234  117  119 am   BACKBONE|DICT|INTERRES
   235  119  120 1    
   236  119  240 1    
   237  120  121 1    
   238  120  124 1    
   239  120  241 1    
   240  121  122 am   BACKBONE|DICT|INTERRES
   241  121  123 2    
   242  122  242 1    
   243  122  243 1    
   244  124  125 1    
   245  124  244 1    
   246  124  245 1    
   247  125  126 1    
   248  126  246 1    
   249  126  247 1    
@<TRIPOS>SUBSTRUCTURE
     1 UNK         1 GROUP             0       ****    0 ROOT    
