@<TRIPOS>MOLECULE
3R540
247   249    1
SMALL
USER_CHARGES


@<TRIPOS>ATOM
      1 CA          7.5254  -10.2888  -44.5737 C.3       0 UNK        -0.1800 
      2 C           6.2875  -11.1409  -44.8132 C.2       0 UNK         0.5000 
      3 O           5.4060  -11.1985  -43.9555 O.2       0 UNK        -0.5000 
      4 N           6.2064  -11.7932  -45.9801 N.am      1 UNK        -0.5000 
      5 CA          5.1025  -12.6608  -46.4093 C.3       1 UNK         0.1400 
      6 C6          5.6002  -13.7098  -47.4359 C.3       23 UNK        -0.0398 
      7 S7          4.4968  -15.1568  -47.5755 S.3       23 UNK        -0.2404 
      8 C8          4.0958  -15.0859  -49.3480 C.3       23 UNK        -0.0205 
      9 C9          3.1529  -16.2038  -49.7580 C.ar      23 UNK        -0.0193 
     10 C10         1.7892  -15.9506  -49.9331 C.ar      23 UNK        -0.1150 
     11 C11         0.9183  -16.9687  -50.3353 C.ar      23 UNK        -0.0193 
     12 C12         1.4367  -18.2454  -50.5772 C.ar      23 UNK        -0.1150 
     13 C13         2.7947  -18.5197  -50.3807 C.ar      23 UNK        -0.0193 
     14 C14         3.6483  -17.4917  -49.9751 C.ar      23 UNK        -0.1150 
     15 C15         3.3401  -19.9254  -50.6017 C.3       23 UNK        -0.0205 
     16 S16         3.1764  -20.9667  -49.1119 S.3       23 UNK        -0.2404 
     17 C17         1.3640  -21.0772  -49.0145 C.3       23 UNK        -0.0398 
     18 CA          0.8220  -22.2455  -48.1678 C.3       11 UNK         0.1400 
     19 N           1.0716  -22.0746  -46.7336 N.am      11 UNK        -0.5000 
     20 C           0.7465  -22.9735  -45.7924 C.2       10 UNK         0.5000 
     21 O           0.2839  -24.0886  -46.0387 O.2       10 UNK        -0.5000 
     22 CA          0.9051  -22.5312  -44.3268 C.3       10 UNK         0.1400 
     23 CB          2.3652  -22.6544  -43.8670 C.3       10 UNK        -0.1800 
     24 N           0.4196  -21.1684  -44.0979 N.am      10 UNK        -0.5000 
     25 C          -0.8586  -20.7871  -44.2396 C.2       9 UNK         0.5000 
     26 O          -1.7708  -21.5605  -44.5281 O.2       9 UNK        -0.5000 
     27 CA         -1.1707  -19.2884  -44.0751 C.3       9 UNK         0.1400 
     28 CB         -1.2899  -18.9107  -42.5917 C.3       9 UNK        -0.1800 
     29 N          -0.1797  -18.4320  -44.7235 N.am      9 UNK        -0.5000 
     30 C           0.0533  -18.3944  -46.0429 C.2       8 UNK         0.5000 
     31 O          -0.5844  -19.0446  -46.8705 O.2       8 UNK        -0.5000 
     32 CA          1.2315  -17.5220  -46.5090 C.3       8 UNK         0.1400 
     33 CB          0.8073  -16.0518  -46.6268 C.3       8 UNK        -0.1800 
     34 N           2.3850  -17.6273  -45.6167 N.am      8 UNK        -0.5000 
     35 C           3.0977  -18.7462  -45.4281 C.2       7 UNK         0.5000 
     36 O           2.8616  -19.8137  -45.9917 O.2       7 UNK        -0.5000 
     37 CA          4.2242  -18.6699  -44.3824 C.3       7 UNK         0.1400 
     38 CB          5.4459  -17.9260  -44.9431 C.3       7 UNK        -0.1800 
     39 N           3.7849  -18.0244  -43.1442 N.am      7 UNK        -0.5000 
     40 C           2.8557  -18.5258  -42.3175 C.2       6 UNK         0.5000 
     41 O           2.3102  -19.6158  -42.4830 O.2       6 UNK        -0.5000 
     42 CA          2.4308  -17.6403  -41.1303 C.3       6 UNK         0.1400 
     43 CB          3.3508  -17.8784  -39.9238 C.3       6 UNK        -0.1800 
     44 N           2.4026  -16.2084  -41.4455 N.am      6 UNK        -0.5000 
     45 C           1.6308  -15.6487  -42.3866 C.2       5 UNK         0.5000 
     46 O           0.8806  -16.2901  -43.1246 O.2       5 UNK        -0.5000 
     47 CA          1.7832  -14.1284  -42.5732 C.3       5 UNK         0.1400 
     48 CB          3.0018  -13.8320  -43.4584 C.3       5 UNK        -0.1800 
     49 N           0.6150  -13.5068  -43.1938 N.am      5 UNK        -0.5000 
     50 C          -0.6180  -13.4379  -42.6734 C.2       4 UNK         0.5000 
     51 O          -0.9141  -13.8743  -41.5599 O.2       4 UNK        -0.5000 
     52 CA         -1.6957  -12.7320  -43.5237 C.3       4 UNK         0.1400 
     53 CB         -2.2334  -11.4888  -42.7960 C.3       4 UNK        -0.1800 
     54 N          -1.1878  -12.3132  -44.8323 N.am      4 UNK        -0.5000 
     55 C          -1.2298  -13.0314  -45.9580 C.2       3 UNK         0.5000 
     56 O          -1.7832  -14.1272  -46.0383 O.2       3 UNK        -0.5000 
     57 CA         -0.5226  -12.4513  -47.2036 C.3       3 UNK         0.1400 
     58 CB         -1.5062  -11.6216  -48.0492 C.3       3 UNK        -0.1800 
     59 N           0.7202  -11.6974  -46.9546 N.am      3 UNK        -0.5000 
     60 C           0.9055  -10.5453  -46.2930 C.2       2 UNK         0.5000 
     61 O           0.0057   -9.9586  -45.6896 O.2       2 UNK        -0.5000 
     62 CA          2.3366   -9.9619  -46.2895 C.3       2 UNK         0.1400 
     63 CB          2.5020   -8.8105  -45.2807 C.3       2 UNK        -0.1800 
     64 N           3.3763  -10.9576  -46.0197 N.am      2 UNK        -0.5000 
     65 C           3.8939  -11.8234  -46.8985 C.2       1 UNK         0.5000 
     66 O           3.4632  -11.9429  -48.0461 O.2       1 UNK        -0.5000 
     67 C          -0.6809  -22.4246  -48.4610 C.2       11 UNK         0.5000 
     68 O          -1.0499  -23.3778  -49.1437 O.2       11 UNK        -0.5000 
     69 N          -1.5208  -21.5294  -47.9185 N.am      12 UNK        -0.5000 
     70 CA         -2.9759  -21.5693  -48.0583 C.3       12 UNK         0.1400 
     71 CB         -3.6046  -20.3355  -47.3963 C.3       12 UNK        -0.1800 
     72 C          -3.5957  -22.8643  -47.5089 C.2       12 UNK         0.5000 
     73 O          -4.4469  -23.4470  -48.1781 O.2       12 UNK        -0.5000 
     74 N          -3.1334  -23.3172  -46.3357 N.am      13 UNK        -0.5000 
     75 CA         -3.5320  -24.5820  -45.7166 C.3       13 UNK         0.1400 
     76 CB         -2.9072  -24.6958  -44.3182 C.3       13 UNK        -0.1800 
     77 C          -3.1767  -25.8056  -46.5810 C.2       13 UNK         0.5000 
     78 O          -4.0295  -26.6722  -46.7796 O.2       13 UNK        -0.5000 
     79 N          -1.9500  -25.8288  -47.1237 N.am      14 UNK        -0.5000 
     80 CA         -1.4782  -26.8503  -48.0643 C.3       14 UNK         0.1400 
     81 CB          0.0283  -26.6699  -48.3042 C.3       14 UNK        -0.1800 
     82 C          -2.2536  -26.8427  -49.3977 C.2       14 UNK         0.5000 
     83 O          -2.5023  -27.9059  -49.9660 O.2       14 UNK        -0.5000 
     84 N          -2.6677  -25.6493  -49.8399 N.am      15 UNK        -0.5000 
     85 CA         -3.5097  -25.3985  -51.0097 C.3       15 UNK         0.1400 
     86 CB         -3.1833  -23.9979  -51.5572 C.3       15 UNK        -0.1800 
     87 C          -5.0216  -25.5660  -50.7326 C.2       15 UNK         0.5000 
     88 O          -5.8290  -25.0480  -51.5040 O.2       15 UNK        -0.5000 
     89 N          -5.3879  -26.2747  -49.6528 N.am      16 UNK        -0.5000 
     90 CA         -6.7506  -26.6396  -49.2478 C.3       16 UNK         0.1400 
     91 CB         -7.3737  -27.6187  -50.2655 C.3       16 UNK        -0.1800 
     92 C          -7.6413  -25.4129  -48.9643 C.2       16 UNK         0.5000 
     93 O          -8.7417  -25.3011  -49.5075 O.2       16 UNK        -0.5000 
     94 N          -7.1220  -24.5113  -48.1198 N.am      17 UNK        -0.5000 
     95 CA         -7.6783  -23.2031  -47.7562 C.3       17 UNK         0.1400 
     96 CB         -9.0503  -23.3368  -47.0617 C.3       17 UNK        -0.1800 
     97 C          -7.6787  -22.2307  -48.9534 C.2       17 UNK         0.5000 
     98 O          -8.6520  -21.5062  -49.1675 O.2       17 UNK        -0.5000 
     99 N          -6.5641  -22.2462  -49.6999 N.am      18 UNK        -0.5000 
    100 CA        -6.2725  -21.4661  -50.9042 C.3       18 UNK         0.1400 
    101 CB        -6.0439  -19.9831  -50.5453 C.3       18 UNK        -0.1800 
    102 C         -7.3257  -21.6681  -52.0113 C.2       18 UNK         0.5000 
    103 O         -7.9428  -20.7022  -52.4661 O.2       18 UNK        -0.5000 
    104 N         -7.5240  -22.9315  -52.4120 N.am      19 UNK        -0.5000 
    105 CA        -8.4061  -23.3366  -53.5047 C.3       19 UNK         0.1400 
    106 CB        -8.5026  -24.8702  -53.5371 C.3       19 UNK        -0.1800 
    107 C         -7.8968  -22.7704  -54.8433 C.2       19 UNK         0.5000 
    108 O         -6.8394  -23.1862  -55.3196 O.2       19 UNK        -0.5000 
    109 N         -8.6269  -21.7830  -55.3783 N.am      20 UNK        -0.5000 
    110 CA        -8.3160  -20.9235  -56.5297 C.3       20 UNK         0.1400 
    111 CB        -8.0514  -21.7357  -57.8125 C.3       20 UNK        -0.1800 
    112 C         -7.1905  -19.9017  -56.2617 C.2       20 UNK         0.5000 
    113 O         -7.3324  -18.7421  -56.6525 O.2       20 UNK        -0.5000 
    114 N         -6.1164  -20.3219  -55.5864 N.am      21 UNK        -0.5000 
    115 CA        -4.9908  -19.4985  -55.1574 C.3       21 UNK         0.1400 
    116 CB        -4.0508  -19.2277  -56.3476 C.3       21 UNK        -0.1800 
    117 C         -4.2455  -20.2172  -54.0234 C.2       21 UNK         0.5000 
    118 O         -4.4169  -21.4244  -53.8436 O.2       21 UNK        -0.5000 
    119 N         -3.4141  -19.4687  -53.2899 N.am      22 UNK        -0.5000 
    120 CA        -2.5155  -19.9940  -52.2463 C.3       22 UNK         0.1400 
    121 C         -1.2539  -20.7356  -52.7819 C.2       22 UNK         0.5000 
    122 N         -0.9607  -20.7150  -54.0765 N.am      22 UNK        -0.7600 
    123 O         -0.5328  -21.3531  -52.0075 O.2       22 UNK        -0.5000 
    124 C124       -2.1536  -18.9081  -51.1976 C.3       23 UNK        -0.0398 
    125 S125       -1.3786  -17.4128  -51.9148 S.3       23 UNK        -0.2404 
    126 C126       -0.5773  -16.6771  -50.4486 C.3       23 UNK        -0.0205 
    127 H127        7.2397   -9.2482  -44.4198 H         1 UNK         0.0600 
    128 H128        8.2165  -10.3313  -45.4159 H         1 UNK         0.0600 
    129 H129        8.0515  -10.6344  -43.6838 H         1 UNK         0.0600 
    130 H130        6.9486  -11.6722  -46.6549 H         1 UNK         0.3000 
    131 H131        4.7689  -13.2125  -45.5301 H         1 UNK         0.0600 
    132 H132        5.7709  -13.2536  -48.4126 H         1 UNK         0.0800 
    133 H133        6.5699  -14.0986  -47.1215 H         1 UNK         0.0800 
    134 H134        5.0161  -15.1557  -49.9300 H         1 UNK         0.0800 
    135 H135        3.6549  -14.1165  -49.5842 H         1 UNK         0.0800 
    136 H136        1.4048  -14.9581  -49.7438 H         1 UNK         0.1150 
    137 H137        0.7781  -19.0373  -50.8990 H         1 UNK         0.1150 
    138 H138        4.6997  -17.6929  -49.8243 H         1 UNK         0.1150 
    139 H139        2.8278  -20.3988  -51.4410 H         1 UNK         0.0800 
    140 H140        4.3937  -19.8761  -50.8807 H         1 UNK         0.0800 
    141 H141        1.0065  -21.1746  -50.0384 H         1 UNK         0.0800 
    142 H142        0.9815  -20.1288  -48.6389 H         1 UNK         0.0800 
    143 H143        1.3265  -23.1613  -48.4830 H         1 UNK         0.0600 
    144 H144        1.5047  -21.2004  -46.4496 H         1 UNK         0.3000 
    145 H145        0.3026  -23.2040  -43.7131 H         1 UNK         0.0600 
    146 H146        2.4637  -22.4256  -42.8057 H         1 UNK         0.0600 
    147 H147        2.7372  -23.6686  -44.0170 H         1 UNK         0.0600 
    148 H148        3.0216  -21.9793  -44.4159 H         1 UNK         0.0600 
    149 H149        1.1093  -20.4832  -43.8054 H         1 UNK         0.3000 
    150 H150       -2.1341  -19.0943  -44.5503 H         1 UNK         0.0600 
    151 H151       -2.0704  -19.4950  -42.1030 H         1 UNK         0.0600 
    152 H152       -1.5459  -17.8577  -42.4715 H         1 UNK         0.0600 
    153 H153       -0.3598  -19.0922  -42.0540 H         1 UNK         0.0600 
    154 H154        0.3525  -17.8093  -44.1209 H         1 UNK         0.3000 
    155 H155        1.5391  -17.8720  -47.4963 H         1 UNK         0.0600 
    156 H156        0.4990  -15.6428  -45.6650 H         1 UNK         0.0600 
    157 H157       -0.0339  -15.9471  -47.3127 H         1 UNK         0.0600 
    158 H158        1.6157  -15.4308  -47.0089 H         1 UNK         0.0600 
    159 H159        2.6117  -16.8098  -45.0725 H         1 UNK         0.3000 
    160 H160        4.5268  -19.6921  -44.1448 H         1 UNK         0.0600 
    161 H161        5.2280  -16.8746  -45.1327 H         1 UNK         0.0600 
    162 H162        5.7741  -18.3678  -45.8851 H         1 UNK         0.0600 
    163 H163        6.2870  -17.9737  -44.2514 H         1 UNK         0.0600 
    164 H164        4.1845  -17.1234  -42.9290 H         1 UNK         0.3000 
    165 H165        1.4183  -17.9344  -40.8475 H         1 UNK         0.0600 
    166 H166        3.0039  -17.3292  -39.0483 H         1 UNK         0.0600 
    167 H167        3.3746  -18.9352  -39.6539 H         1 UNK         0.0600 
    168 H168        4.3761  -17.5693  -40.1308 H         1 UNK         0.0600 
    169 H169        3.0044  -15.6169  -40.8906 H         1 UNK         0.3000 
    170 H170        1.9308  -13.6691  -41.5937 H         1 UNK         0.0600 
    171 H171        3.9177  -14.2354  -43.0248 H         1 UNK         0.0600 
    172 H172        2.8876  -14.2663  -44.4528 H         1 UNK         0.0600 
    173 H173        3.1478  -12.7582  -43.5738 H         1 UNK         0.0600 
    174 H174        0.7426  -13.1371  -44.1224 H         1 UNK         0.3000 
    175 H175       -2.5206  -13.4351  -43.6560 H         1 UNK         0.0600 
    176 H176       -1.4463  -10.7539  -42.6216 H         1 UNK         0.0600 
    177 H177       -3.0211  -11.0049  -43.3739 H         1 UNK         0.0600 
    178 H178       -2.6592  -11.7524  -41.8269 H         1 UNK         0.0600 
    179 H179       -0.7577  -11.3920  -44.8881 H         1 UNK         0.3000 
    180 H180       -0.2213  -13.3089  -47.8075 H         1 UNK         0.0600 
    181 H181       -1.8619  -10.7413  -47.5131 H         1 UNK         0.0600 
    182 H182       -2.3818  -12.2131  -48.3202 H         1 UNK         0.0600 
    183 H183       -1.0424  -11.2855  -48.9766 H         1 UNK         0.0600 
    184 H184        1.5456  -12.0734  -47.4106 H         1 UNK         0.3000 
    185 H185        2.5054   -9.5496  -47.2864 H         1 UNK         0.0600 
    186 H186        1.7994   -8.0016  -45.4852 H         1 UNK         0.0600 
    187 H187        2.3310   -9.1467  -44.2571 H         1 UNK         0.0600 
    188 H188        3.5044   -8.3846  -45.3297 H         1 UNK         0.0600 
    189 H189        3.8091  -10.9206  -45.1018 H         1 UNK         0.3000 
    190 H190       -1.1389  -20.7475  -47.3905 H         1 UNK         0.3000 
    191 H191       -3.2007  -21.5255  -49.1253 H         1 UNK         0.0600 
    192 H192       -3.3696  -20.2850  -46.3336 H         1 UNK         0.0600 
    193 H193       -4.6912  -20.3514  -47.4894 H         1 UNK         0.0600 
    194 H194       -3.2500  -19.4154  -47.8611 H         1 UNK         0.0600 
    195 H195       -2.4682  -22.7471  -45.8185 H         1 UNK         0.3000 
    196 H196       -4.6175  -24.5637  -45.6003 H         1 UNK         0.0600 
    197 H197       -3.2025  -25.6264  -43.8321 H         1 UNK         0.0600 
    198 H198       -3.2301  -23.8763  -43.6757 H         1 UNK         0.0600 
    199 H199       -1.8180  -24.6769  -44.3597 H         1 UNK         0.0600 
    200 H200       -1.2985  -25.0837  -46.8968 H         1 UNK         0.3000 
    201 H201       -1.6323  -27.8262  -47.5996 H         1 UNK         0.0600 
    202 H202        0.5870  -26.7428  -47.3709 H         1 UNK         0.0600 
    203 H203        0.2530  -25.7016  -48.7517 H         1 UNK         0.0600 
    204 H204        0.4120  -27.4392  -48.9752 H         1 UNK         0.0600 
    205 H205       -2.3540  -24.8235  -49.3378 H         1 UNK         0.3000 
    206 H206       -3.2534  -26.1236  -51.7843 H         1 UNK         0.0600 
    207 H207       -2.1243  -23.9061  -51.7992 H         1 UNK         0.0600 
    208 H208       -3.7404  -23.7841  -52.4703 H         1 UNK         0.0600 
    209 H209       -3.4244  -23.2219  -50.8324 H         1 UNK         0.0600 
    210 H210       -4.6532  -26.6076  -49.0424 H         1 UNK         0.3000 
    211 H211       -6.6542  -27.1716  -48.3002 H         1 UNK         0.0600 
    212 H212       -7.5319  -27.1498  -51.2373 H         1 UNK         0.0600 
    213 H213       -8.3415  -27.9803  -49.9165 H         1 UNK         0.0600 
    214 H214       -6.7365  -28.4904  -50.4141 H         1 UNK         0.0600 
    215 H215       -6.1658  -24.6589  -47.8192 H         1 UNK         0.3000 
    216 H216       -6.9891  -22.7775  -47.0254 H         1 UNK         0.0600 
    217 H217       -9.3751  -22.3771  -46.6584 H         1 UNK         0.0600 
    218 H218       -9.0044  -24.0392  -46.2296 H         1 UNK         0.0600 
    219 H219       -9.8258  -23.6778  -47.7478 H         1 UNK         0.0600 
    220 H220       -5.8300  -22.8804  -49.3990 H         1 UNK         0.3000 
    221 H221       -5.3359  -21.8545  -51.3031 H         1 UNK         0.0600 
    222 H222       -6.9336  -19.5299  -50.1075 H         1 UNK         0.0600 
    223 H223       -5.2258  -19.8708  -49.8358 H         1 UNK         0.0600 
    224 H224       -5.7839  -19.4015  -51.4300 H         1 UNK         0.0600 
    225 H225       -6.9499  -23.6703  -52.0092 H         1 UNK         0.3000 
    226 H226       -9.4027  -22.9403  -53.3004 H         1 UNK         0.0600 
    227 H227       -8.8863  -25.2598  -52.5936 H         1 UNK         0.0600 
    228 H228       -9.1763  -25.2023  -54.3276 H         1 UNK         0.0600 
    229 H229       -7.5309  -25.3323  -53.7162 H         1 UNK         0.0600 
    230 H230       -9.4440  -21.4913  -54.8595 H         1 UNK         0.3000 
    231 H231       -9.2230  -20.3422  -56.7028 H         1 UNK         0.0600 
    232 H232       -8.8612  -22.4380  -58.0100 H         1 UNK         0.0600 
    233 H233       -7.1207  -22.3007  -57.7576 H         1 UNK         0.0600 
    234 H234       -7.9751  -21.0753  -58.6770 H         1 UNK         0.0600 
    235 H235       -6.0719  -21.2926  -55.2850 H         1 UNK         0.3000 
    236 H236       -5.3725  -18.5529  -54.7668 H         1 UNK         0.0600 
    237 H237       -3.1997  -18.6152  -56.0480 H         1 UNK         0.0600 
    238 H238       -3.6591  -20.1558  -56.7661 H         1 UNK         0.0600 
    239 H239       -4.5633  -18.6923  -57.1467 H         1 UNK         0.0600 
    240 H240       -3.3093  -18.4858  -53.4989 H         1 UNK         0.3000 
    241 H241       -3.0727  -20.7608  -51.7051 H         1 UNK         0.0600 
    242 H242       -0.1446  -21.2069  -54.4035 H         1 UNK         0.3800 
    243 H243       -1.5387  -20.2123  -54.7287 H         1 UNK         0.3800 
    244 H244       -3.0603  -18.5924  -50.6801 H         1 UNK         0.0800 
    245 H245       -1.5087  -19.3246  -50.4215 H         1 UNK         0.0800 
    246 H246       -1.0740  -17.0187  -49.5393 H         1 UNK         0.0800 
    247 H247       -0.7408  -15.5994  -50.4945 H         1 UNK         0.0800 
@<TRIPOS>BOND
     1    1    2 1    
     2    1  127 1    
     3    1  128 1    
     4    1  129 1    
     5    2    3 2    
     6    2    4 am   BACKBONE|DICT|INTERRES
     7    4    5 1    
     8    4  130 1    
     9    5    6 1    
    10    5   65 1    
    11    5  131 1    
    12    6    7 1    
    13    6  132 1    
    14    6  133 1    
    15    7    8 1    
    16    8    9 1    
    17    8  134 1    
    18    8  135 1    
    19    9   10 ar   
    20    9   14 ar   
    21   10   11 ar   
    22   10  136 1    
    23   11   12 ar   
    24   11  126 1    
    25   12   13 ar   
    26   12  137 1    
    27   13   14 ar   
    28   13   15 1    
    29   14  138 1    
    30   15   16 1    
    31   15  139 1    
    32   15  140 1    
    33   16   17 1    
    34   17   18 1    
    35   17  141 1    
    36   17  142 1    
    37   18   19 1    
    38   18   67 1    
    39   18  143 1    
    40   19   20 am   BACKBONE|DICT|INTERRES
    41   19  144 1    
    42   20   21 2    
    43   20   22 1    
    44   22   23 1    
    45   22   24 1    
    46   22  145 1    
    47   23  146 1    
    48   23  147 1    
    49   23  148 1    
    50   24   25 am   BACKBONE|DICT|INTERRES
    51   24  149 1    
    52   25   26 2    
    53   25   27 1    
    54   27   28 1    
    55   27   29 1    
    56   27  150 1    
    57   28  151 1    
    58   28  152 1    
    59   28  153 1    
    60   29   30 am   BACKBONE|DICT|INTERRES
    61   29  154 1    
    62   30   31 2    
    63   30   32 1    
    64   32   33 1    
    65   32   34 1    
    66   32  155 1    
    67   33  156 1    
    68   33  157 1    
    69   33  158 1    
    70   34   35 am   BACKBONE|DICT|INTERRES
    71   34  159 1    
    72   35   36 2    
    73   35   37 1    
    74   37   38 1    
    75   37   39 1    
    76   37  160 1    
    77   38  161 1    
    78   38  162 1    
    79   38  163 1    
    80   39   40 am   BACKBONE|DICT|INTERRES
    81   39  164 1    
    82   40   41 2    
    83   40   42 1    
    84   42   43 1    
    85   42   44 1    
    86   42  165 1    
    87   43  166 1    
    88   43  167 1    
    89   43  168 1    
    90   44   45 am   BACKBONE|DICT|INTERRES
    91   44  169 1    
    92   45   46 2    
    93   45   47 1    
    94   47   48 1    
    95   47   49 1    
    96   47  170 1    
    97   48  171 1    
    98   48  172 1    
    99   48  173 1    
   100   49   50 am   BACKBONE|DICT|INTERRES
   101   49  174 1    
   102   50   51 2    
   103   50   52 1    
   104   52   53 1    
   105   52   54 1    
   106   52  175 1    
   107   53  176 1    
   108   53  177 1    
   109   53  178 1    
   110   54   55 am   BACKBONE|DICT|INTERRES
   111   54  179 1    
   112   55   56 2    
   113   55   57 1    
   114   57   58 1    
   115   57   59 1    
   116   57  180 1    
   117   58  181 1    
   118   58  182 1    
   119   58  183 1    
   120   59   60 am   BACKBONE|DICT|INTERRES
   121   59  184 1    
   122   60   61 2    
   123   60   62 1    
   124   62   63 1    
   125   62   64 1    
   126   62  185 1    
   127   63  186 1    
   128   63  187 1    
   129   63  188 1    
   130   64   65 am   BACKBONE|DICT|INTERRES
   131   64  189 1    
   132   65   66 2    
   133   67   68 2    
   134   67   69 am   BACKBONE|DICT|INTERRES
   135   69   70 1    
   136   69  190 1    
   137   70   71 1    
   138   70   72 1    
   139   70  191 1    
   140   71  192 1    
   141   71  193 1    
   142   71  194 1    
   143   72   73 2    
   144   72   74 am   BACKBONE|DICT|INTERRES
   145   74   75 1    
   146   74  195 1    
   147   75   76 1    
   148   75   77 1    
   149   75  196 1    
   150   76  197 1    
   151   76  198 1    
   152   76  199 1    
   153   77   78 2    
   154   77   79 am   BACKBONE|DICT|INTERRES
   155   79   80 1    
   156   79  200 1    
   157   80   81 1    
   158   80   82 1    
   159   80  201 1    
   160   81  202 1    
   161   81  203 1    
   162   81  204 1    
   163   82   83 2    
   164   82   84 am   BACKBONE|DICT|INTERRES
   165   84   85 1    
   166   84  205 1    
   167   85   86 1    
   168   85   87 1    
   169   85  206 1    
   170   86  207 1    
   171   86  208 1    
   172   86  209 1    
   173   87   88 2    
   174   87   89 am   BACKBONE|DICT|INTERRES
   175   89   90 1    
   176   89  210 1    
   177   90   91 1    
   178   90   92 1    
   179   90  211 1    
   180   91  212 1    
   181   91  213 1    
   182   91  214 1    
   183   92   93 2    
   184   92   94 am   BACKBONE|DICT|INTERRES
   185   94   95 1    
   186   94  215 1    
   187   95   96 1    
   188   95   97 1    
   189   95  216 1    
   190   96  217 1    
   191   96  218 1    
   192   96  219 1    
   193   97   98 2    
   194   97   99 am   BACKBONE|DICT|INTERRES
   195   99  100 1    
   196   99  220 1    
   197  100  101 1    
   198  100  102 1    
   199  100  221 1    
   200  101  222 1    
   201  101  223 1    
   202  101  224 1    
   203  102  103 2    
   204  102  104 am   BACKBONE|DICT|INTERRES
   205  104  105 1    
   206  104  225 1    
   207  105  106 1    
   208  105  107 1    
   209  105  226 1    
   210  106  227 1    
   211  106  228 1    
   212  106  229 1    
   213  107  108 2    
   214  107  109 am   BACKBONE|DICT|INTERRES
   215  109  110 1    
   216  109  230 1    
   217  110  111 1    
   218  110  112 1    
   219  110  231 1    
   220  111  232 1    
   221  111  233 1    
   222  111  234 1    
   223  112  113 2    
   224  112  114 am   BACKBONE|DICT|INTERRES
   225  114  115 1    
   226  114  235 1    
   227  115  116 1    
   228  115  117 1    
   229  115  236 1    
   230  116  237 1    
   231  116  238 1    
   232  116  239 1    
   233  117  118 2    
   234  117  119 am   BACKBONE|DICT|INTERRES
   235  119  120 1    
   236  119  240 1    
   237  120  121 1    
   238  120  124 1    
   239  120  241 1    
   240  121  122 am   BACKBONE|DICT|INTERRES
   241  121  123 2    
   242  122  242 1    
   243  122  243 1    
   244  124  125 1    
   245  124  244 1    
   246  124  245 1    
   247  125  126 1    
   248  126  246 1    
   249  126  247 1    
@<TRIPOS>SUBSTRUCTURE
     1 UNK         1 GROUP             0       ****    0 ROOT    
