@<TRIPOS>MOLECULE
3R540
247   249    1
SMALL
USER_CHARGES


@<TRIPOS>ATOM
      1 CA         -4.4593  -15.3428  -43.1856 C.3       0 UNK        -0.1800 
      2 C          -3.5879  -14.2100  -43.7055 C.2       0 UNK         0.5000 
      3 O          -3.6743  -13.0862  -43.2103 O.2       0 UNK        -0.5000 
      4 N          -2.7366  -14.5006  -44.6938 N.am      1 UNK        -0.5000 
      5 CA         -1.8284  -13.5555  -45.3477 C.3       1 UNK         0.1400 
      6 C6         -1.6959  -13.8699  -46.8615 C.3       23 UNK        -0.0398 
      7 S7         -3.0839  -13.1719  -47.8224 S.3       23 UNK        -0.2404 
      8 C8         -4.3713  -14.4576  -47.7147 C.3       23 UNK        -0.0205 
      9 C9         -4.0883  -15.6513  -48.6133 C.ar      23 UNK        -0.0193 
     10 C10        -4.3574  -15.5759  -49.9828 C.ar      23 UNK        -0.1150 
     11 C11        -4.1435  -16.6819  -50.8099 C.ar      23 UNK        -0.0193 
     12 C12        -3.6377  -17.8633  -50.2614 C.ar      23 UNK        -0.1150 
     13 C13        -3.3650  -17.9517  -48.8929 C.ar      23 UNK        -0.0193 
     14 C14        -3.6003  -16.8444  -48.0734 C.ar      23 UNK        -0.1150 
     15 C15        -2.8054  -19.2388  -48.3089 C.3       23 UNK        -0.0205 
     16 S16        -4.0490  -20.5685  -48.2670 S.3       23 UNK        -0.2404 
     17 C17        -4.4860  -20.5586  -46.4963 C.3       23 UNK        -0.0398 
     18 CA         -3.4886  -21.4031  -45.6608 C.3       11 UNK         0.1400 
     19 N          -3.2325  -20.8088  -44.3385 N.am      11 UNK        -0.5000 
     20 C          -2.2563  -21.1955  -43.5050 C.2       10 UNK         0.5000 
     21 O          -1.4918  -22.1304  -43.7438 O.2       10 UNK        -0.5000 
     22 CA         -2.1150  -20.4066  -42.1989 C.3       10 UNK         0.1400 
     23 CB         -1.5543  -21.2709  -41.0555 C.3       10 UNK        -0.1800 
     24 N          -1.2019  -19.3036  -42.4534 N.am      10 UNK        -0.5000 
     25 C          -1.4643  -18.0108  -42.2388 C.2       9 UNK         0.5000 
     26 O          -2.5059  -17.5933  -41.7339 O.2       9 UNK        -0.5000 
     27 CA         -0.3804  -17.0121  -42.6822 C.3       9 UNK         0.1400 
     28 CB          0.7320  -16.9309  -41.6241 C.3       9 UNK        -0.1800 
     29 N           0.2078  -17.3512  -43.9792 N.am      9 UNK        -0.5000 
     30 C          -0.4537  -17.3964  -45.1452 C.2       8 UNK         0.5000 
     31 O          -1.6460  -17.1144  -45.2639 O.2       8 UNK        -0.5000 
     32 CA          0.3468  -17.8507  -46.3788 C.3       8 UNK         0.1400 
     33 CB          1.1306  -16.6841  -46.9927 C.3       8 UNK        -0.1800 
     34 N           1.2738  -18.9220  -46.0227 N.am      8 UNK        -0.5000 
     35 C           0.9676  -20.2259  -46.0511 C.2       7 UNK         0.5000 
     36 O          -0.0871  -20.6631  -46.5066 O.2       7 UNK        -0.5000 
     37 CA          2.0054  -21.2128  -45.4770 C.3       7 UNK         0.1400 
     38 CB          2.8028  -21.8795  -46.6081 C.3       7 UNK        -0.1800 
     39 N           2.9478  -20.5945  -44.5417 N.am      7 UNK        -0.5000 
     40 C           2.6323  -20.1543  -43.3160 C.2       6 UNK         0.5000 
     41 O           1.5113  -20.2587  -42.8210 O.2       6 UNK        -0.5000 
     42 CA          3.7429  -19.4155  -42.5403 C.3       6 UNK         0.1400 
     43 CB          4.5749  -20.4107  -41.7184 C.3       6 UNK        -0.1800 
     44 N           4.6380  -18.6195  -43.3909 N.am      6 UNK        -0.5000 
     45 C           4.2448  -17.6352  -44.2116 C.2       5 UNK         0.5000 
     46 O           3.0648  -17.3126  -44.3547 O.2       5 UNK        -0.5000 
     47 CA          5.3460  -16.9653  -45.0580 C.3       5 UNK         0.1400 
     48 CB          5.8502  -17.9403  -46.1357 C.3       5 UNK        -0.1800 
     49 N           4.9095  -15.7366  -45.7280 N.am      5 UNK        -0.5000 
     50 C           4.5742  -14.5881  -45.1255 C.2       4 UNK         0.5000 
     51 O           4.5994  -14.4336  -43.9021 O.2       4 UNK        -0.5000 
     52 CA          4.2109  -13.4003  -46.0451 C.3       4 UNK         0.1400 
     53 CB          3.5439  -13.8108  -47.3723 C.3       4 UNK        -0.1800 
     54 N           3.3221  -12.4709  -45.3528 N.am      4 UNK        -0.5000 
     55 C           3.6759  -11.2768  -44.8573 C.2       3 UNK         0.5000 
     56 O           4.7986  -10.7859  -44.9861 O.2       3 UNK        -0.5000 
     57 CA          2.5945  -10.4846  -44.0902 C.3       3 UNK         0.1400 
     58 CB          1.9705   -9.4116  -44.9960 C.3       3 UNK        -0.1800 
     59 N           1.5269  -11.3374  -43.5666 N.am      3 UNK        -0.5000 
     60 C           1.6743  -12.2146  -42.5654 C.2       2 UNK         0.5000 
     61 O           2.6833  -12.2751  -41.8623 O.2       2 UNK        -0.5000 
     62 CA          0.5192  -13.2042  -42.3113 C.3       2 UNK         0.1400 
     63 CB         -0.0871  -13.0067  -40.9133 C.3       2 UNK        -0.1800 
     64 N          -0.5650  -13.1763  -43.2979 N.am      2 UNK        -0.5000 
     65 C          -0.4884  -13.5519  -44.5823 C.2       1 UNK         0.5000 
     66 O           0.5617  -13.8877  -45.1314 O.2       1 UNK        -0.5000 
     67 C          -3.8781  -22.9005  -45.6159 C.2       11 UNK         0.5000 
     68 O          -3.7348  -23.6008  -46.6192 O.2       11 UNK        -0.5000 
     69 N          -4.2961  -23.3872  -44.4386 N.am      12 UNK        -0.5000 
     70 CA         -4.4878  -24.8045  -44.1338 C.3       12 UNK         0.1400 
     71 CB         -5.1097  -24.9375  -42.7360 C.3       12 UNK        -0.1800 
     72 C          -3.1873  -25.6299  -44.2262 C.2       12 UNK         0.5000 
     73 O          -3.2525  -26.8017  -44.5959 O.2       12 UNK        -0.5000 
     74 N          -2.0284  -25.0104  -43.9465 N.am      13 UNK        -0.5000 
     75 CA         -0.7081  -25.6339  -44.0920 C.3       13 UNK         0.1400 
     76 CB          0.3391  -24.8216  -43.3147 C.3       13 UNK        -0.1800 
     77 C          -0.2925  -25.7892  -45.5679 C.2       13 UNK         0.5000 
     78 O           0.4517  -26.7134  -45.8952 O.2       13 UNK        -0.5000 
     79 N          -0.8154  -24.9111  -46.4349 N.am      14 UNK        -0.5000 
     80 CA         -0.7061  -25.0009  -47.8919 C.3       14 UNK         0.1400 
     81 CB         -0.7690  -23.5812  -48.4830 C.3       14 UNK        -0.1800 
     82 C          -1.8102  -25.8837  -48.5096 C.2       14 UNK         0.5000 
     83 O          -1.8316  -26.0448  -49.7293 O.2       14 UNK        -0.5000 
     84 N          -2.7405  -26.3898  -47.6826 N.am      15 UNK        -0.5000 
     85 CA         -3.9457  -27.1473  -48.0447 C.3       15 UNK         0.1400 
     86 CB         -3.5617  -28.5451  -48.5717 C.3       15 UNK        -0.1800 
     87 C          -4.8776  -26.3803  -49.0106 C.2       15 UNK         0.5000 
     88 O          -5.5688  -26.9994  -49.8207 O.2       15 UNK        -0.5000 
     89 N          -4.8401  -25.0405  -48.9300 N.am      16 UNK        -0.5000 
     90 CA         -5.4826  -24.0618  -49.8136 C.3       16 UNK         0.1400 
     91 CB         -7.0182  -24.1495  -49.7073 C.3       16 UNK        -0.1800 
     92 C          -4.9953  -24.0923  -51.2823 C.2       16 UNK         0.5000 
     93 O          -5.5806  -23.4049  -52.1205 O.2       16 UNK        -0.5000 
     94 N          -3.9198  -24.8391  -51.5853 N.am      17 UNK        -0.5000 
     95 CA         -3.3582  -24.9824  -52.9347 C.3       17 UNK         0.1400 
     96 CB         -2.3616  -26.1501  -52.9565 C.3       17 UNK        -0.1800 
     97 C          -2.6922  -23.6944  -53.4528 C.2       17 UNK         0.5000 
     98 O          -2.5800  -23.5089  -54.6649 O.2       17 UNK        -0.5000 
     99 N          -2.3158  -22.8024  -52.5258 N.am      18 UNK        -0.5000 
    100 CA        -1.7818  -21.4627  -52.7753 C.3       18 UNK         0.1400 
    101 CB        -1.4194  -20.8262  -51.4291 C.3       18 UNK        -0.1800 
    102 C         -2.7267  -20.5414  -53.5741 C.2       18 UNK         0.5000 
    103 O         -2.2538  -19.5789  -54.1762 O.2       18 UNK        -0.5000 
    104 N         -4.0254  -20.8740  -53.6352 N.am      19 UNK        -0.5000 
    105 CA        -5.0133  -20.2315  -54.5050 C.3       19 UNK         0.1400 
    106 CB        -6.3875  -20.8725  -54.2678 C.3       19 UNK        -0.1800 
    107 C         -4.6426  -20.2786  -56.0024 C.2       19 UNK         0.5000 
    108 O         -4.9743  -19.3451  -56.7340 O.2       19 UNK        -0.5000 
    109 N         -3.9161  -21.3259  -56.4227 N.am      20 UNK        -0.5000 
    110 CA        -3.3745  -21.4632  -57.7757 C.3       20 UNK         0.1400 
    111 CB        -2.9086  -22.9110  -57.9900 C.3       20 UNK        -0.1800 
    112 C         -2.2264  -20.4773  -58.0730 C.2       20 UNK         0.5000 
    113 O         -2.0252  -20.1273  -59.2365 O.2       20 UNK        -0.5000 
    114 N         -1.5027  -20.0412  -57.0312 N.am      21 UNK        -0.5000 
    115 CA        -0.4676  -19.0117  -57.1232 C.3       21 UNK         0.1400 
    116 CB         0.5694  -19.2091  -56.0058 C.3       21 UNK        -0.1800 
    117 C         -1.0811  -17.6017  -57.0704 C.2       21 UNK         0.5000 
    118 O         -0.6225  -16.7201  -57.7986 O.2       21 UNK        -0.5000 
    119 N         -2.1126  -17.4180  -56.2330 N.am      22 UNK        -0.5000 
    120 CA        -2.9115  -16.1833  -56.1559 C.3       22 UNK         0.1400 
    121 C         -3.7013  -15.8811  -57.4610 C.2       22 UNK         0.5000 
    122 N         -4.3498  -16.8669  -58.0694 N.am      22 UNK        -0.7600 
    123 O         -3.7263  -14.7437  -57.9231 O.2       22 UNK        -0.5000 
    124 C124       -3.8810  -16.1757  -54.9486 C.3       23 UNK        -0.0398 
    125 S125       -3.0488  -16.3030  -53.3320 S.3       23 UNK        -0.2404 
    126 C126       -4.5015  -16.6167  -52.2849 C.3       23 UNK        -0.0205 
    127 H127       -4.3162  -15.4642  -42.1119 H         1 UNK         0.0600 
    128 H128       -4.2194  -16.2904  -43.6693 H         1 UNK         0.0600 
    129 H129       -5.5108  -15.1223  -43.3688 H         1 UNK         0.0600 
    130 H130       -2.6211  -15.4691  -44.9813 H         1 UNK         0.3000 
    131 H131       -2.2236  -12.5415  -45.2541 H         1 UNK         0.0600 
    132 H132       -0.7888  -13.4267  -47.2758 H         1 UNK         0.0800 
    133 H133       -1.6190  -14.9418  -47.0422 H         1 UNK         0.0800 
    134 H134       -5.3232  -14.0134  -48.0091 H         1 UNK         0.0800 
    135 H135       -4.5039  -14.7750  -46.6810 H         1 UNK         0.0800 
    136 H136       -4.7493  -14.6590  -50.4005 H         1 UNK         0.1150 
    137 H137       -3.4713  -18.7188  -50.9000 H         1 UNK         0.1150 
    138 H138       -3.4102  -16.9113  -47.0132 H         1 UNK         0.1150 
    139 H139       -2.4256  -19.0684  -47.3015 H         1 UNK         0.0800 
    140 H140       -1.9438  -19.5594  -48.8933 H         1 UNK         0.0800 
    141 H141       -5.5122  -20.9109  -46.3769 H         1 UNK         0.0800 
    142 H142       -4.4944  -19.5195  -46.1634 H         1 UNK         0.0800 
    143 H143       -2.5235  -21.3799  -46.1684 H         1 UNK         0.0600 
    144 H144       -3.8128  -20.0249  -44.0766 H         1 UNK         0.3000 
    145 H145       -3.1033  -20.0466  -41.9058 H         1 UNK         0.0600 
    146 H146       -1.5004  -20.7032  -40.1266 H         1 UNK         0.0600 
    147 H147       -2.1899  -22.1381  -40.8728 H         1 UNK         0.0600 
    148 H148       -0.5513  -21.6379  -41.2788 H         1 UNK         0.0600 
    149 H149       -0.2971  -19.5666  -42.8371 H         1 UNK         0.3000 
    150 H150       -0.8437  -16.0290  -42.7765 H         1 UNK         0.0600 
    151 H151        1.0929  -17.9201  -41.3431 H         1 UNK         0.0600 
    152 H152        0.3663  -16.4498  -40.7163 H         1 UNK         0.0600 
    153 H153        1.5892  -16.3591  -41.9790 H         1 UNK         0.0600 
    154 H154        1.2099  -17.5156  -43.9946 H         1 UNK         0.3000 
    155 H155       -0.3511  -18.2058  -47.1364 H         1 UNK         0.0600 
    156 H156        1.7724  -16.2019  -46.2568 H         1 UNK         0.0600 
    157 H157        0.4574  -15.9227  -47.3838 H         1 UNK         0.0600 
    158 H158        1.7576  -17.0174  -47.8195 H         1 UNK         0.0600 
    159 H159        2.1418  -18.6291  -45.5912 H         1 UNK         0.3000 
    160 H160        1.4521  -21.9879  -44.9433 H         1 UNK         0.0600 
    161 H161        3.3875  -21.1510  -47.1712 H         1 UNK         0.0600 
    162 H162        2.1412  -22.3831  -47.3125 H         1 UNK         0.0600 
    163 H163        3.4880  -22.6318  -46.2169 H         1 UNK         0.0600 
    164 H164        3.8933  -20.4637  -44.8695 H         1 UNK         0.3000 
    165 H165        3.2573  -18.7275  -41.8467 H         1 UNK         0.0600 
    166 H166        5.2993  -19.8942  -41.0883 H         1 UNK         0.0600 
    167 H167        5.1201  -21.1056  -42.3583 H         1 UNK         0.0600 
    168 H168        3.9373  -21.0020  -41.0596 H         1 UNK         0.0600 
    169 H169        5.6215  -18.8417  -43.3331 H         1 UNK         0.3000 
    170 H170        6.1745  -16.7120  -44.3937 H         1 UNK         0.0600 
    171 H171        6.2505  -18.8532  -45.6932 H         1 UNK         0.0600 
    172 H172        5.0517  -18.2303  -46.8203 H         1 UNK         0.0600 
    173 H173        6.6516  -17.4953  -46.7260 H         1 UNK         0.0600 
    174 H174        4.8430  -15.7828  -46.7335 H         1 UNK         0.3000 
    175 H175        5.1538  -12.9087  -46.2917 H         1 UNK         0.0600 
    176 H176        2.5821  -14.2924  -47.2062 H         1 UNK         0.0600 
    177 H177        3.3619  -12.9356  -47.9961 H         1 UNK         0.0600 
    178 H178        4.1680  -14.4868  -47.9570 H         1 UNK         0.0600 
    179 H179        2.3913  -12.8235  -45.1591 H         1 UNK         0.3000 
    180 H180        3.0819   -9.9850  -43.2504 H         1 UNK         0.0600 
    181 H181        1.4594   -9.8548  -45.8517 H         1 UNK         0.0600 
    182 H182        2.7341   -8.7359  -45.3837 H         1 UNK         0.0600 
    183 H183        1.2485   -8.8044  -44.4496 H         1 UNK         0.0600 
    184 H184        0.6591  -11.3467  -44.0807 H         1 UNK         0.3000 
    185 H185        0.9658  -14.1967  -42.3511 H         1 UNK         0.0600 
    186 H186       -0.8314  -13.7730  -40.6949 H         1 UNK         0.0600 
    187 H187        0.6780  -13.0714  -40.1386 H         1 UNK         0.0600 
    188 H188       -0.5688  -12.0327  -40.8199 H         1 UNK         0.0600 
    189 H189       -1.4793  -12.9155  -42.9475 H         1 UNK         0.3000 
    190 H190       -4.3918  -22.7441  -43.6671 H         1 UNK         0.3000 
    191 H191       -5.1903  -25.2120  -44.8639 H         1 UNK         0.0600 
    192 H192       -5.2892  -25.9842  -42.4866 H         1 UNK         0.0600 
    193 H193       -6.0690  -24.4227  -42.6800 H         1 UNK         0.0600 
    194 H194       -4.4592  -24.5230  -41.9647 H         1 UNK         0.0600 
    195 H195       -2.0298  -24.0248  -43.7004 H         1 UNK         0.3000 
    196 H196       -0.7518  -26.6327  -43.6524 H         1 UNK         0.0600 
    197 H197        0.4846  -23.8312  -43.7448 H         1 UNK         0.0600 
    198 H198        0.0485  -24.6944  -42.2718 H         1 UNK         0.0600 
    199 H199        1.3066  -25.3249  -43.3249 H         1 UNK         0.0600 
    200 H200       -1.4260  -24.1889  -46.0791 H         1 UNK         0.3000 
    201 H201        0.2568  -25.4402  -48.1597 H         1 UNK         0.0600 
    202 H202       -1.7318  -23.1037  -48.2996 H         1 UNK         0.0600 
    203 H203       -0.6139  -23.5990  -49.5623 H         1 UNK         0.0600 
    204 H204        0.0024  -22.9414  -48.0583 H         1 UNK         0.0600 
    205 H205       -2.6415  -26.1959  -46.6955 H         1 UNK         0.3000 
    206 H206       -4.5115  -27.2833  -47.1222 H         1 UNK         0.0600 
    207 H207       -2.9092  -29.0642  -47.8696 H         1 UNK         0.0600 
    208 H208       -4.4455  -29.1683  -48.7121 H         1 UNK         0.0600 
    209 H209       -3.0455  -28.4881  -49.5306 H         1 UNK         0.0600 
    210 H210       -4.2676  -24.6334  -48.1944 H         1 UNK         0.3000 
    211 H211       -5.1873  -23.0860  -49.4282 H         1 UNK         0.0600 
    212 H212       -7.4950  -23.3224  -50.2346 H         1 UNK         0.0600 
    213 H213       -7.3443  -24.0997  -48.6684 H         1 UNK         0.0600 
    214 H214       -7.4033  -25.0741  -50.1376 H         1 UNK         0.0600 
    215 H215       -3.4513  -25.3553  -50.8483 H         1 UNK         0.3000 
    216 H216       -4.1779  -25.2238  -53.6145 H         1 UNK         0.0600 
    217 H217       -1.4791  -25.9381  -52.3522 H         1 UNK         0.0600 
    218 H218       -2.0196  -26.3497  -53.9727 H         1 UNK         0.0600 
    219 H219       -2.8157  -27.0666  -52.5790 H         1 UNK         0.0600 
    220 H220       -2.4557  -23.0559  -51.5593 H         1 UNK         0.3000 
    221 H221       -0.8686  -21.5713  -53.3637 H         1 UNK         0.0600 
    222 H222       -0.6234  -21.3788  -50.9301 H         1 UNK         0.0600 
    223 H223       -2.2837  -20.8118  -50.7669 H         1 UNK         0.0600 
    224 H224       -1.0746  -19.7984  -51.5530 H         1 UNK         0.0600 
    225 H225       -4.3435  -21.6840  -53.1185 H         1 UNK         0.3000 
    226 H226       -5.0726  -19.1822  -54.2179 H         1 UNK         0.0600 
    227 H227       -6.3823  -21.9350  -54.5145 H         1 UNK         0.0600 
    228 H228       -6.6946  -20.7730  -53.2264 H         1 UNK         0.0600 
    229 H229       -7.1535  -20.3951  -54.8802 H         1 UNK         0.0600 
    230 H230       -3.6519  -22.0442  -55.7571 H         1 UNK         0.3000 
    231 H231       -4.1786  -21.2574  -58.4855 H         1 UNK         0.0600 
    232 H232       -2.0833  -23.1703  -57.3259 H         1 UNK         0.0600 
    233 H233       -2.5644  -23.0622  -59.0139 H         1 UNK         0.0600 
    234 H234       -3.7185  -23.6184  -57.8111 H         1 UNK         0.0600 
    235 H235       -1.7668  -20.3272  -56.0975 H         1 UNK         0.3000 
    236 H236        0.0536  -19.1156  -58.0774 H         1 UNK         0.0600 
    237 H237        0.9995  -20.2102  -56.0388 H         1 UNK         0.0600 
    238 H238        1.3902  -18.4990  -56.1124 H         1 UNK         0.0600 
    239 H239        0.1404  -19.0604  -55.0152 H         1 UNK         0.0600 
    240 H240       -2.3741  -18.1710  -55.6061 H         1 UNK         0.3000 
    241 H241       -2.2095  -15.3591  -56.0147 H         1 UNK         0.0600 
    242 H242       -4.8583  -16.6740  -58.9173 H         1 UNK         0.3800 
    243 H243       -4.4092  -17.7918  -57.6510 H         1 UNK         0.3800 
    244 H244       -4.6001  -16.9904  -55.0424 H         1 UNK         0.0800 
    245 H245       -4.4655  -15.2536  -54.9395 H         1 UNK         0.0800 
    246 H246       -4.9706  -17.5546  -52.5816 H         1 UNK         0.0800 
    247 H247       -5.2442  -15.8357  -52.4559 H         1 UNK         0.0800 
@<TRIPOS>BOND
     1    1    2 1    
     2    1  127 1    
     3    1  128 1    
     4    1  129 1    
     5    2    3 2    
     6    2    4 am   BACKBONE|DICT|INTERRES
     7    4    5 1    
     8    4  130 1    
     9    5    6 1    
    10    5   65 1    
    11    5  131 1    
    12    6    7 1    
    13    6  132 1    
    14    6  133 1    
    15    7    8 1    
    16    8    9 1    
    17    8  134 1    
    18    8  135 1    
    19    9   10 ar   
    20    9   14 ar   
    21   10   11 ar   
    22   10  136 1    
    23   11   12 ar   
    24   11  126 1    
    25   12   13 ar   
    26   12  137 1    
    27   13   14 ar   
    28   13   15 1    
    29   14  138 1    
    30   15   16 1    
    31   15  139 1    
    32   15  140 1    
    33   16   17 1    
    34   17   18 1    
    35   17  141 1    
    36   17  142 1    
    37   18   19 1    
    38   18   67 1    
    39   18  143 1    
    40   19   20 am   BACKBONE|DICT|INTERRES
    41   19  144 1    
    42   20   21 2    
    43   20   22 1    
    44   22   23 1    
    45   22   24 1    
    46   22  145 1    
    47   23  146 1    
    48   23  147 1    
    49   23  148 1    
    50   24   25 am   BACKBONE|DICT|INTERRES
    51   24  149 1    
    52   25   26 2    
    53   25   27 1    
    54   27   28 1    
    55   27   29 1    
    56   27  150 1    
    57   28  151 1    
    58   28  152 1    
    59   28  153 1    
    60   29   30 am   BACKBONE|DICT|INTERRES
    61   29  154 1    
    62   30   31 2    
    63   30   32 1    
    64   32   33 1    
    65   32   34 1    
    66   32  155 1    
    67   33  156 1    
    68   33  157 1    
    69   33  158 1    
    70   34   35 am   BACKBONE|DICT|INTERRES
    71   34  159 1    
    72   35   36 2    
    73   35   37 1    
    74   37   38 1    
    75   37   39 1    
    76   37  160 1    
    77   38  161 1    
    78   38  162 1    
    79   38  163 1    
    80   39   40 am   BACKBONE|DICT|INTERRES
    81   39  164 1    
    82   40   41 2    
    83   40   42 1    
    84   42   43 1    
    85   42   44 1    
    86   42  165 1    
    87   43  166 1    
    88   43  167 1    
    89   43  168 1    
    90   44   45 am   BACKBONE|DICT|INTERRES
    91   44  169 1    
    92   45   46 2    
    93   45   47 1    
    94   47   48 1    
    95   47   49 1    
    96   47  170 1    
    97   48  171 1    
    98   48  172 1    
    99   48  173 1    
   100   49   50 am   BACKBONE|DICT|INTERRES
   101   49  174 1    
   102   50   51 2    
   103   50   52 1    
   104   52   53 1    
   105   52   54 1    
   106   52  175 1    
   107   53  176 1    
   108   53  177 1    
   109   53  178 1    
   110   54   55 am   BACKBONE|DICT|INTERRES
   111   54  179 1    
   112   55   56 2    
   113   55   57 1    
   114   57   58 1    
   115   57   59 1    
   116   57  180 1    
   117   58  181 1    
   118   58  182 1    
   119   58  183 1    
   120   59   60 am   BACKBONE|DICT|INTERRES
   121   59  184 1    
   122   60   61 2    
   123   60   62 1    
   124   62   63 1    
   125   62   64 1    
   126   62  185 1    
   127   63  186 1    
   128   63  187 1    
   129   63  188 1    
   130   64   65 am   BACKBONE|DICT|INTERRES
   131   64  189 1    
   132   65   66 2    
   133   67   68 2    
   134   67   69 am   BACKBONE|DICT|INTERRES
   135   69   70 1    
   136   69  190 1    
   137   70   71 1    
   138   70   72 1    
   139   70  191 1    
   140   71  192 1    
   141   71  193 1    
   142   71  194 1    
   143   72   73 2    
   144   72   74 am   BACKBONE|DICT|INTERRES
   145   74   75 1    
   146   74  195 1    
   147   75   76 1    
   148   75   77 1    
   149   75  196 1    
   150   76  197 1    
   151   76  198 1    
   152   76  199 1    
   153   77   78 2    
   154   77   79 am   BACKBONE|DICT|INTERRES
   155   79   80 1    
   156   79  200 1    
   157   80   81 1    
   158   80   82 1    
   159   80  201 1    
   160   81  202 1    
   161   81  203 1    
   162   81  204 1    
   163   82   83 2    
   164   82   84 am   BACKBONE|DICT|INTERRES
   165   84   85 1    
   166   84  205 1    
   167   85   86 1    
   168   85   87 1    
   169   85  206 1    
   170   86  207 1    
   171   86  208 1    
   172   86  209 1    
   173   87   88 2    
   174   87   89 am   BACKBONE|DICT|INTERRES
   175   89   90 1    
   176   89  210 1    
   177   90   91 1    
   178   90   92 1    
   179   90  211 1    
   180   91  212 1    
   181   91  213 1    
   182   91  214 1    
   183   92   93 2    
   184   92   94 am   BACKBONE|DICT|INTERRES
   185   94   95 1    
   186   94  215 1    
   187   95   96 1    
   188   95   97 1    
   189   95  216 1    
   190   96  217 1    
   191   96  218 1    
   192   96  219 1    
   193   97   98 2    
   194   97   99 am   BACKBONE|DICT|INTERRES
   195   99  100 1    
   196   99  220 1    
   197  100  101 1    
   198  100  102 1    
   199  100  221 1    
   200  101  222 1    
   201  101  223 1    
   202  101  224 1    
   203  102  103 2    
   204  102  104 am   BACKBONE|DICT|INTERRES
   205  104  105 1    
   206  104  225 1    
   207  105  106 1    
   208  105  107 1    
   209  105  226 1    
   210  106  227 1    
   211  106  228 1    
   212  106  229 1    
   213  107  108 2    
   214  107  109 am   BACKBONE|DICT|INTERRES
   215  109  110 1    
   216  109  230 1    
   217  110  111 1    
   218  110  112 1    
   219  110  231 1    
   220  111  232 1    
   221  111  233 1    
   222  111  234 1    
   223  112  113 2    
   224  112  114 am   BACKBONE|DICT|INTERRES
   225  114  115 1    
   226  114  235 1    
   227  115  116 1    
   228  115  117 1    
   229  115  236 1    
   230  116  237 1    
   231  116  238 1    
   232  116  239 1    
   233  117  118 2    
   234  117  119 am   BACKBONE|DICT|INTERRES
   235  119  120 1    
   236  119  240 1    
   237  120  121 1    
   238  120  124 1    
   239  120  241 1    
   240  121  122 am   BACKBONE|DICT|INTERRES
   241  121  123 2    
   242  122  242 1    
   243  122  243 1    
   244  124  125 1    
   245  124  244 1    
   246  124  245 1    
   247  125  126 1    
   248  126  246 1    
   249  126  247 1    
@<TRIPOS>SUBSTRUCTURE
     1 UNK         1 GROUP             0       ****    0 ROOT    
