@<TRIPOS>MOLECULE
3R540
247   249    1
SMALL
USER_CHARGES


@<TRIPOS>ATOM
      1 CA         -1.1194  -14.2822  -50.8575 C.3       0 UNK        -0.1800 
      2 C          -0.6497  -14.2726  -49.4107 C.2       0 UNK         0.5000 
      3 O          -1.4066  -14.6562  -48.5204 O.2       0 UNK        -0.5000 
      4 N           0.6000  -13.8419  -49.1838 N.am      1 UNK        -0.5000 
      5 CA          1.2653  -13.7391  -47.8760 C.3       1 UNK         0.1400 
      6 C6          1.5213  -15.1117  -47.1968 C.3       23 UNK        -0.0398 
      7 S7          2.5794  -16.1954  -48.2120 S.3       23 UNK        -0.2404 
      8 C8          1.3725  -17.4523  -48.7356 C.3       23 UNK        -0.0205 
      9 C9          2.0206  -18.6070  -49.4825 C.ar      23 UNK        -0.0193 
     10 C10         1.5553  -18.9884  -50.7430 C.ar      23 UNK        -0.1150 
     11 C11         2.1403  -20.0630  -51.4199 C.ar      23 UNK        -0.0193 
     12 C12         3.2077  -20.7503  -50.8325 C.ar      23 UNK        -0.1150 
     13 C13         3.6736  -20.3866  -49.5632 C.ar      23 UNK        -0.0193 
     14 C14         3.0704  -19.3180  -48.8985 C.ar      23 UNK        -0.1150 
     15 C15         4.8313  -21.1190  -48.8904 C.3       23 UNK        -0.0205 
     16 S16         4.7154  -22.9346  -48.9808 S.3       23 UNK        -0.2404 
     17 C17         3.0281  -23.2531  -48.3680 C.3       23 UNK        -0.0398 
     18 CA          3.0072  -24.3585  -47.2811 C.3       11 UNK         0.1400 
     19 N           3.1823  -23.8018  -45.9330 N.am      11 UNK        -0.5000 
     20 C           3.6153  -24.5058  -44.8777 C.2       10 UNK         0.5000 
     21 O           3.9524  -25.6888  -44.9374 O.2       10 UNK        -0.5000 
     22 CA          3.6505  -23.7771  -43.5204 C.3       10 UNK         0.1400 
     23 CB          4.8871  -22.8717  -43.4142 C.3       10 UNK        -0.1800 
     24 N           2.4416  -22.9921  -43.2640 N.am      10 UNK        -0.5000 
     25 C           1.2149  -23.5095  -43.1004 C.2       9 UNK         0.5000 
     26 O           0.9691  -24.7151  -43.1265 O.2       9 UNK        -0.5000 
     27 CA          0.0587  -22.5108  -42.9156 C.3       9 UNK         0.1400 
     28 CB         -0.0963  -22.1083  -41.4412 C.3       9 UNK        -0.1800 
     29 N           0.2283  -21.3145  -43.7388 N.am      9 UNK        -0.5000 
     30 C           0.1160  -21.2996  -45.0737 C.2       8 UNK         0.5000 
     31 O          -0.1773  -22.2862  -45.7459 O.2       8 UNK        -0.5000 
     32 CA          0.4193  -19.9691  -45.7783 C.3       8 UNK         0.1400 
     33 CB         -0.8197  -19.0573  -45.7254 C.3       8 UNK        -0.1800 
     34 N           1.5729  -19.2898  -45.1896 N.am      8 UNK        -0.5000 
     35 C           2.8279  -19.7662  -45.2066 C.2       7 UNK         0.5000 
     36 O           3.1485  -20.8120  -45.7724 O.2       7 UNK        -0.5000 
     37 CA          3.8948  -18.9759  -44.4189 C.3       7 UNK         0.1400 
     38 CB          4.5571  -17.9197  -45.3143 C.3       7 UNK        -0.1800 
     39 N           3.3644  -18.3238  -43.2195 N.am      7 UNK        -0.5000 
     40 C           2.7921  -18.9686  -42.1941 C.2       6 UNK         0.5000 
     41 O           2.7601  -20.1967  -42.1058 O.2       6 UNK        -0.5000 
     42 CA          2.0899  -18.1180  -41.1127 C.3       6 UNK         0.1400 
     43 CB          3.0049  -17.9622  -39.8889 C.3       6 UNK        -0.1800 
     44 N           1.6079  -16.7863  -41.5177 N.am      6 UNK        -0.5000 
     45 C           0.8538  -16.4903  -42.5871 C.2       5 UNK         0.5000 
     46 O           0.6009  -17.2977  -43.4811 O.2       5 UNK        -0.5000 
     47 CA          0.3241  -15.0422  -42.6812 C.3       5 UNK         0.1400 
     48 CB          1.4813  -14.0532  -42.9005 C.3       5 UNK        -0.1800 
     49 N          -0.6480  -14.8566  -43.7623 N.am      5 UNK        -0.5000 
     50 C          -1.8347  -15.4700  -43.8718 C.2       4 UNK         0.5000 
     51 O          -2.3238  -16.1853  -42.9942 O.2       4 UNK        -0.5000 
     52 CA         -2.5941  -15.2075  -45.1880 C.3       4 UNK         0.1400 
     53 CB         -3.8552  -16.0796  -45.3549 C.3       4 UNK        -0.1800 
     54 N          -2.9082  -13.7870  -45.3671 N.am      4 UNK        -0.5000 
     55 C          -3.6495  -13.0041  -44.5682 C.2       3 UNK         0.5000 
     56 O          -4.2329  -13.4096  -43.5616 O.2       3 UNK        -0.5000 
     57 CA         -3.7371  -11.5103  -44.9525 C.3       3 UNK         0.1400 
     58 CB         -4.2547  -10.6306  -43.7993 C.3       3 UNK        -0.1800 
     59 N          -2.4374  -10.9936  -45.3832 N.am      3 UNK        -0.5000 
     60 C          -1.9950  -10.9625  -46.6450 C.2       2 UNK         0.5000 
     61 O          -2.6668  -11.3311  -47.6092 O.2       2 UNK        -0.5000 
     62 CA         -0.5490  -10.4794  -46.8818 C.3       2 UNK         0.1400 
     63 CB          0.1495   -9.8993  -45.6296 C.3       2 UNK        -0.1800 
     64 N           0.2563  -11.5457  -47.4836 N.am      2 UNK        -0.5000 
     65 C           0.5216  -12.7500  -46.9538 C.2       1 UNK         0.5000 
     66 O           0.1741  -13.0969  -45.8236 O.2       1 UNK        -0.5000 
     67 C           1.7260  -25.2083  -47.4216 C.2       11 UNK         0.5000 
     68 O           1.6336  -25.9775  -48.3792 O.2       11 UNK        -0.5000 
     69 N           0.7569  -25.0310  -46.5106 N.am      12 UNK        -0.5000 
     70 CA         -0.6229  -25.5258  -46.5885 C.3       12 UNK         0.1400 
     71 CB         -0.6804  -27.0662  -46.5238 C.3       12 UNK        -0.1800 
     72 C          -1.3509  -24.9277  -47.8120 C.2       12 UNK         0.5000 
     73 O          -1.9538  -25.6468  -48.6091 O.2       12 UNK        -0.5000 
     74 N          -1.2443  -23.5989  -47.9377 N.am      13 UNK        -0.5000 
     75 CA         -1.7416  -22.7897  -49.0490 C.3       13 UNK         0.1400 
     76 CB         -0.9513  -21.4725  -49.0867 C.3       13 UNK        -0.1800 
     77 C          -3.2552  -22.5105  -48.9986 C.2       13 UNK         0.5000 
     78 O          -3.7704  -21.8846  -49.9251 O.2       13 UNK        -0.5000 
     79 N          -3.9351  -22.9742  -47.9402 N.am      14 UNK        -0.5000 
     80 CA         -5.3540  -22.7771  -47.6386 C.3       14 UNK         0.1400 
     81 CB         -6.2581  -23.4621  -48.6881 C.3       14 UNK        -0.1800 
     82 C          -5.6577  -21.2860  -47.4062 C.2       14 UNK         0.5000 
     83 O          -5.1582  -20.7269  -46.4283 O.2       14 UNK        -0.5000 
     84 N          -6.4538  -20.6665  -48.2866 N.am      15 UNK        -0.5000 
     85 CA         -6.7817  -19.2427  -48.2204 C.3       15 UNK         0.1400 
     86 CB         -8.0710  -18.9822  -49.0094 C.3       15 UNK        -0.1800 
     87 C          -5.6392  -18.3487  -48.7347 C.2       15 UNK         0.5000 
     88 O          -5.5900  -17.1772  -48.3602 O.2       15 UNK        -0.5000 
     89 N          -4.7573  -18.9090  -49.5779 N.am      16 UNK        -0.5000 
     90 CA         -3.5434  -18.3331  -50.1687 C.3       16 UNK         0.1400 
     91 CB         -2.5223  -17.9543  -49.0809 C.3       16 UNK        -0.1800 
     92 C          -3.7895  -17.1582  -51.1349 C.2       16 UNK         0.5000 
     93 O          -3.3421  -17.2119  -52.2791 O.2       16 UNK        -0.5000 
     94 N          -4.4839  -16.1181  -50.6630 N.am      17 UNK        -0.5000 
     95 CA         -4.8268  -14.9152  -51.4209 C.3       17 UNK         0.1400 
     96 CB         -5.1164  -13.7763  -50.4310 C.3       17 UNK        -0.1800 
     97 C          -6.0211  -15.1295  -52.3696 C.2       17 UNK         0.5000 
     98 O          -6.1240  -14.4291  -53.3775 O.2       17 UNK        -0.5000 
     99 N          -6.8940  -16.0857  -52.0291 N.am      18 UNK        -0.5000 
    100 CA        -8.0397  -16.5113  -52.8270 C.3       18 UNK         0.1400 
    101 CB        -9.3099  -16.4578  -51.9543 C.3       18 UNK        -0.1800 
    102 C         -7.7262  -17.9058  -53.3930 C.2       18 UNK         0.5000 
    103 O         -6.9892  -18.0039  -54.3749 O.2       18 UNK        -0.5000 
    104 N         -8.2646  -18.9573  -52.7612 N.am      19 UNK        -0.5000 
    105 CA        -7.9642  -20.3594  -53.0448 C.3       19 UNK         0.1400 
    106 CB        -9.0040  -21.2484  -52.3410 C.3       19 UNK        -0.1800 
    107 C         -6.5302  -20.7059  -52.6027 C.2       19 UNK         0.5000 
    108 O         -6.3004  -20.9720  -51.4214 O.2       19 UNK        -0.5000 
    109 N         -5.5946  -20.6500  -53.5553 N.am      20 UNK        -0.5000 
    110 CA        -4.1805  -20.9517  -53.3713 C.3       20 UNK         0.1400 
    111 CB        -3.3643  -20.1002  -54.3596 C.3       20 UNK        -0.1800 
    112 C         -3.9421  -22.4561  -53.5761 C.2       20 UNK         0.5000 
    113 O         -3.6033  -22.8853  -54.6817 O.2       20 UNK        -0.5000 
    114 N         -4.1208  -23.2422  -52.5070 N.am      21 UNK        -0.5000 
    115 CA        -3.9120  -24.6974  -52.5046 C.3       21 UNK         0.1400 
    116 CB        -4.5208  -25.3020  -51.2321 C.3       21 UNK        -0.1800 
    117 C         -2.4337  -25.1150  -52.6686 C.2       21 UNK         0.5000 
    118 O         -2.1579  -26.2805  -52.9545 O.2       21 UNK        -0.5000 
    119 N         -1.5192  -24.1499  -52.5193 N.am      22 UNK        -0.5000 
    120 CA        -0.0915  -24.2470  -52.8478 C.3       22 UNK         0.1400 
    121 C          0.2172  -24.3550  -54.3730 C.2       22 UNK         0.5000 
    122 N         -0.7229  -24.0754  -55.2705 N.am      22 UNK        -0.7600 
    123 O          1.3314  -24.7103  -54.7470 O.2       22 UNK        -0.5000 
    124 C124        0.7062  -23.0930  -52.1840 C.3       23 UNK        -0.0398 
    125 S125        0.0760  -21.4353  -52.6401 S.3       23 UNK        -0.2404 
    126 C126        1.6120  -20.4717  -52.7857 C.3       23 UNK        -0.0205 
    127 H127       -1.4242  -15.2876  -51.1456 H         1 UNK         0.0600 
    128 H128       -0.3356  -13.9571  -51.5419 H         1 UNK         0.0600 
    129 H129       -1.9722  -13.6147  -50.9760 H         1 UNK         0.0600 
    130 H130        1.1641  -13.5553  -49.9714 H         1 UNK         0.3000 
    131 H131        2.2396  -13.2858  -48.0654 H         1 UNK         0.0600 
    132 H132        2.0326  -14.9728  -46.2430 H         1 UNK         0.0800 
    133 H133        0.5819  -15.6141  -46.9609 H         1 UNK         0.0800 
    134 H134        0.8625  -17.8518  -47.8620 H         1 UNK         0.0800 
    135 H135        0.6171  -16.9692  -49.3544 H         1 UNK         0.0800 
    136 H136        0.7305  -18.4577  -51.1976 H         1 UNK         0.1150 
    137 H137        3.6684  -21.5753  -51.3570 H         1 UNK         0.1150 
    138 H138        3.4248  -19.0265  -47.9219 H         1 UNK         0.1150 
    139 H139        5.7639  -20.8027  -49.3587 H         1 UNK         0.0800 
    140 H140        4.9048  -20.8378  -47.8388 H         1 UNK         0.0800 
    141 H141        2.5684  -22.3374  -47.9928 H         1 UNK         0.0800 
    142 H142        2.4454  -23.5289  -49.2494 H         1 UNK         0.0800 
    143 H143        3.8324  -25.0483  -47.4732 H         1 UNK         0.0600 
    144 H144        2.9869  -22.8116  -45.8170 H         1 UNK         0.3000 
    145 H145        3.7220  -24.5354  -42.7378 H         1 UNK         0.0600 
    146 H146        4.9239  -22.3627  -42.4507 H         1 UNK         0.0600 
    147 H147        4.9012  -22.1123  -44.1954 H         1 UNK         0.0600 
    148 H148        5.8037  -23.4546  -43.5108 H         1 UNK         0.0600 
    149 H149        2.5566  -21.9887  -43.1747 H         1 UNK         0.3000 
    150 H150       -0.8626  -23.0081  -43.2269 H         1 UNK         0.0600 
    151 H151       -0.2808  -22.9842  -40.8180 H         1 UNK         0.0600 
    152 H152       -0.9379  -21.4292  -41.3039 H         1 UNK         0.0600 
    153 H153        0.7973  -21.6176  -41.0559 H         1 UNK         0.0600 
    154 H154        0.5159  -20.4695  -43.2672 H         1 UNK         0.3000 
    155 H155        0.6579  -20.1812  -46.8220 H         1 UNK         0.0600 
    156 H156       -1.6664  -19.5192  -46.2338 H         1 UNK         0.0600 
    157 H157       -0.6399  -18.0923  -46.1967 H         1 UNK         0.0600 
    158 H158       -1.1345  -18.8643  -44.6992 H         1 UNK         0.0600 
    159 H159        1.3661  -18.4559  -44.6421 H         1 UNK         0.3000 
    160 H160        4.6625  -19.6835  -44.1009 H         1 UNK         0.0600 
    161 H161        3.8409  -17.1649  -45.6397 H         1 UNK         0.0600 
    162 H162        4.9868  -18.3756  -46.2070 H         1 UNK         0.0600 
    163 H163        5.3664  -17.4103  -44.7910 H         1 UNK         0.0600 
    164 H164        3.3309  -17.3155  -43.2248 H         1 UNK         0.3000 
    165 H165        1.2095  -18.6842  -40.8026 H         1 UNK         0.0600 
    166 H166        2.4785  -17.4927  -39.0577 H         1 UNK         0.0600 
    167 H167        3.3603  -18.9321  -39.5377 H         1 UNK         0.0600 
    168 H168        3.8814  -17.3551  -40.1190 H         1 UNK         0.0600 
    169 H169        1.7914  -16.0465  -40.8554 H         1 UNK         0.3000 
    170 H170       -0.1738  -14.8037  -41.7396 H         1 UNK         0.0600 
    171 H171        2.1987  -14.0875  -42.0800 H         1 UNK         0.0600 
    172 H172        2.0240  -14.2693  -43.8214 H         1 UNK         0.0600 
    173 H173        1.1158  -13.0279  -42.9644 H         1 UNK         0.0600 
    174 H174       -0.3499  -14.2519  -44.5257 H         1 UNK         0.3000 
    175 H175       -1.9100  -15.4750  -45.9945 H         1 UNK         0.0600 
    176 H176       -4.5875  -15.8980  -44.5681 H         1 UNK         0.0600 
    177 H177       -4.3376  -15.8878  -46.3130 H         1 UNK         0.0600 
    178 H178       -3.6000  -17.1397  -45.3275 H         1 UNK         0.0600 
    179 H179       -2.4540  -13.3484  -46.1578 H         1 UNK         0.3000 
    180 H180       -4.4552  -11.4347  -45.7716 H         1 UNK         0.0600 
    181 H181       -4.3175   -9.5845  -44.0998 H         1 UNK         0.0600 
    182 H182       -3.6053  -10.6900  -42.9250 H         1 UNK         0.0600 
    183 H183       -5.2548  -10.9363  -43.4893 H         1 UNK         0.0600 
    184 H184       -1.7995  -10.7247  -44.6480 H         1 UNK         0.3000 
    185 H185       -0.6127   -9.6808  -47.6223 H         1 UNK         0.0600 
    186 H186        1.1459   -9.5340  -45.8780 H         1 UNK         0.0600 
    187 H187       -0.4078   -9.0530  -45.2260 H         1 UNK         0.0600 
    188 H188        0.2613  -10.6353  -44.8328 H         1 UNK         0.0600 
    189 H189        0.5391  -11.3834  -48.4396 H         1 UNK         0.3000 
    190 H190        0.9279  -24.3549  -45.7783 H         1 UNK         0.3000 
    191 H191       -1.1348  -25.1416  -45.7049 H         1 UNK         0.0600 
    192 H192       -1.7122  -27.4115  -46.4501 H         1 UNK         0.0600 
    193 H193       -0.1482  -27.4425  -45.6501 H         1 UNK         0.0600 
    194 H194       -0.2460  -27.5321  -47.4083 H         1 UNK         0.0600 
    195 H195       -0.7673  -23.0918  -47.1924 H         1 UNK         0.3000 
    196 H196       -1.5478  -23.3318  -49.9732 H         1 UNK         0.0600 
    197 H197       -1.1349  -20.8794  -48.1929 H         1 UNK         0.0600 
    198 H198       -1.2368  -20.8634  -49.9450 H         1 UNK         0.0600 
    199 H199        0.1222  -21.6492  -49.1591 H         1 UNK         0.0600 
    200 H200       -3.4010  -23.4468  -47.2264 H         1 UNK         0.3000 
    201 H201       -5.5364  -23.2729  -46.6841 H         1 UNK         0.0600 
    202 H202       -6.1154  -23.0619  -49.6915 H         1 UNK         0.0600 
    203 H203       -7.3121  -23.3458  -48.4334 H         1 UNK         0.0600 
    204 H204       -6.0577  -24.5325  -48.7276 H         1 UNK         0.0600 
    205 H205       -6.7552  -21.1669  -49.1134 H         1 UNK         0.3000 
    206 H206       -6.9669  -18.9723  -47.1785 H         1 UNK         0.0600 
    207 H207       -8.8949  -19.5895  -48.6343 H         1 UNK         0.0600 
    208 H208       -8.3725  -17.9374  -48.9265 H         1 UNK         0.0600 
    209 H209       -7.9400  -19.2080  -50.0653 H         1 UNK         0.0600 
    210 H210       -4.9282  -19.8750  -49.8400 H         1 UNK         0.3000 
    211 H211       -3.0972  -19.1353  -50.7575 H         1 UNK         0.0600 
    212 H212       -2.8763  -17.1420  -48.4451 H         1 UNK         0.0600 
    213 H213       -1.5861  -17.6288  -49.5320 H         1 UNK         0.0600 
    214 H214       -2.2994  -18.8055  -48.4406 H         1 UNK         0.0600 
    215 H215       -4.8352  -16.1876  -49.7102 H         1 UNK         0.3000 
    216 H216       -3.9685  -14.6289  -52.0318 H         1 UNK         0.0600 
    217 H217       -4.2570  -13.5840  -49.7876 H         1 UNK         0.0600 
    218 H218       -5.9679  -14.0081  -49.7899 H         1 UNK         0.0600 
    219 H219       -5.3427  -12.8483  -50.9575 H         1 UNK         0.0600 
    220 H220       -6.6948  -16.6257  -51.2003 H         1 UNK         0.3000 
    221 H221       -8.1919  -15.8463  -53.6796 H         1 UNK         0.0600 
    222 H222      -10.1784  -16.8283  -52.5006 H         1 UNK         0.0600 
    223 H223       -9.2130  -17.0424  -51.0399 H         1 UNK         0.0600 
    224 H224       -9.5311  -15.4314  -51.6612 H         1 UNK         0.0600 
    225 H225       -8.8671  -18.7839  -51.9710 H         1 UNK         0.3000 
    226 H226       -8.0528  -20.5273  -54.1203 H         1 UNK         0.0600 
    227 H227      -10.0103  -21.0406  -52.7050 H         1 UNK         0.0600 
    228 H228       -8.8025  -22.3038  -52.5286 H         1 UNK         0.0600 
    229 H229       -9.0029  -21.1035  -51.2602 H         1 UNK         0.0600 
    230 H230       -5.8727  -20.3843  -54.4894 H         1 UNK         0.3000 
    231 H231       -3.8707  -20.6833  -52.3603 H         1 UNK         0.0600 
    232 H232       -2.2958  -20.2828  -54.2426 H         1 UNK         0.0600 
    233 H233       -3.5323  -19.0366  -54.1941 H         1 UNK         0.0600 
    234 H234       -3.6240  -20.3162  -55.3966 H         1 UNK         0.0600 
    235 H235       -4.3701  -22.8069  -51.6227 H         1 UNK         0.3000 
    236 H236       -4.4527  -25.1108  -53.3586 H         1 UNK         0.0600 
    237 H237       -4.0268  -24.9355  -50.3337 H         1 UNK         0.0600 
    238 H238       -5.5830  -25.0705  -51.1569 H         1 UNK         0.0600 
    239 H239       -4.4265  -26.3886  -51.2322 H         1 UNK         0.0600 
    240 H240       -1.8488  -23.2189  -52.3137 H         1 UNK         0.3000 
    241 H241        0.2695  -25.1793  -52.4094 H         1 UNK         0.0600 
    242 H242       -0.5064  -24.1549  -56.2513 H         1 UNK         0.3800 
    243 H243       -1.6423  -23.7608  -54.9869 H         1 UNK         0.3800 
    244 H244        1.7662  -23.1718  -52.4307 H         1 UNK         0.0800 
    245 H245        0.6544  -23.1872  -51.0993 H         1 UNK         0.0800 
    246 H246        1.4077  -19.5760  -53.3740 H         1 UNK         0.0800 
    247 H247        2.3595  -21.0366  -53.3447 H         1 UNK         0.0800 
@<TRIPOS>BOND
     1    1    2 1    
     2    1  127 1    
     3    1  128 1    
     4    1  129 1    
     5    2    3 2    
     6    2    4 am   BACKBONE|DICT|INTERRES
     7    4    5 1    
     8    4  130 1    
     9    5    6 1    
    10    5   65 1    
    11    5  131 1    
    12    6    7 1    
    13    6  132 1    
    14    6  133 1    
    15    7    8 1    
    16    8    9 1    
    17    8  134 1    
    18    8  135 1    
    19    9   10 ar   
    20    9   14 ar   
    21   10   11 ar   
    22   10  136 1    
    23   11   12 ar   
    24   11  126 1    
    25   12   13 ar   
    26   12  137 1    
    27   13   14 ar   
    28   13   15 1    
    29   14  138 1    
    30   15   16 1    
    31   15  139 1    
    32   15  140 1    
    33   16   17 1    
    34   17   18 1    
    35   17  141 1    
    36   17  142 1    
    37   18   19 1    
    38   18   67 1    
    39   18  143 1    
    40   19   20 am   BACKBONE|DICT|INTERRES
    41   19  144 1    
    42   20   21 2    
    43   20   22 1    
    44   22   23 1    
    45   22   24 1    
    46   22  145 1    
    47   23  146 1    
    48   23  147 1    
    49   23  148 1    
    50   24   25 am   BACKBONE|DICT|INTERRES
    51   24  149 1    
    52   25   26 2    
    53   25   27 1    
    54   27   28 1    
    55   27   29 1    
    56   27  150 1    
    57   28  151 1    
    58   28  152 1    
    59   28  153 1    
    60   29   30 am   BACKBONE|DICT|INTERRES
    61   29  154 1    
    62   30   31 2    
    63   30   32 1    
    64   32   33 1    
    65   32   34 1    
    66   32  155 1    
    67   33  156 1    
    68   33  157 1    
    69   33  158 1    
    70   34   35 am   BACKBONE|DICT|INTERRES
    71   34  159 1    
    72   35   36 2    
    73   35   37 1    
    74   37   38 1    
    75   37   39 1    
    76   37  160 1    
    77   38  161 1    
    78   38  162 1    
    79   38  163 1    
    80   39   40 am   BACKBONE|DICT|INTERRES
    81   39  164 1    
    82   40   41 2    
    83   40   42 1    
    84   42   43 1    
    85   42   44 1    
    86   42  165 1    
    87   43  166 1    
    88   43  167 1    
    89   43  168 1    
    90   44   45 am   BACKBONE|DICT|INTERRES
    91   44  169 1    
    92   45   46 2    
    93   45   47 1    
    94   47   48 1    
    95   47   49 1    
    96   47  170 1    
    97   48  171 1    
    98   48  172 1    
    99   48  173 1    
   100   49   50 am   BACKBONE|DICT|INTERRES
   101   49  174 1    
   102   50   51 2    
   103   50   52 1    
   104   52   53 1    
   105   52   54 1    
   106   52  175 1    
   107   53  176 1    
   108   53  177 1    
   109   53  178 1    
   110   54   55 am   BACKBONE|DICT|INTERRES
   111   54  179 1    
   112   55   56 2    
   113   55   57 1    
   114   57   58 1    
   115   57   59 1    
   116   57  180 1    
   117   58  181 1    
   118   58  182 1    
   119   58  183 1    
   120   59   60 am   BACKBONE|DICT|INTERRES
   121   59  184 1    
   122   60   61 2    
   123   60   62 1    
   124   62   63 1    
   125   62   64 1    
   126   62  185 1    
   127   63  186 1    
   128   63  187 1    
   129   63  188 1    
   130   64   65 am   BACKBONE|DICT|INTERRES
   131   64  189 1    
   132   65   66 2    
   133   67   68 2    
   134   67   69 am   BACKBONE|DICT|INTERRES
   135   69   70 1    
   136   69  190 1    
   137   70   71 1    
   138   70   72 1    
   139   70  191 1    
   140   71  192 1    
   141   71  193 1    
   142   71  194 1    
   143   72   73 2    
   144   72   74 am   BACKBONE|DICT|INTERRES
   145   74   75 1    
   146   74  195 1    
   147   75   76 1    
   148   75   77 1    
   149   75  196 1    
   150   76  197 1    
   151   76  198 1    
   152   76  199 1    
   153   77   78 2    
   154   77   79 am   BACKBONE|DICT|INTERRES
   155   79   80 1    
   156   79  200 1    
   157   80   81 1    
   158   80   82 1    
   159   80  201 1    
   160   81  202 1    
   161   81  203 1    
   162   81  204 1    
   163   82   83 2    
   164   82   84 am   BACKBONE|DICT|INTERRES
   165   84   85 1    
   166   84  205 1    
   167   85   86 1    
   168   85   87 1    
   169   85  206 1    
   170   86  207 1    
   171   86  208 1    
   172   86  209 1    
   173   87   88 2    
   174   87   89 am   BACKBONE|DICT|INTERRES
   175   89   90 1    
   176   89  210 1    
   177   90   91 1    
   178   90   92 1    
   179   90  211 1    
   180   91  212 1    
   181   91  213 1    
   182   91  214 1    
   183   92   93 2    
   184   92   94 am   BACKBONE|DICT|INTERRES
   185   94   95 1    
   186   94  215 1    
   187   95   96 1    
   188   95   97 1    
   189   95  216 1    
   190   96  217 1    
   191   96  218 1    
   192   96  219 1    
   193   97   98 2    
   194   97   99 am   BACKBONE|DICT|INTERRES
   195   99  100 1    
   196   99  220 1    
   197  100  101 1    
   198  100  102 1    
   199  100  221 1    
   200  101  222 1    
   201  101  223 1    
   202  101  224 1    
   203  102  103 2    
   204  102  104 am   BACKBONE|DICT|INTERRES
   205  104  105 1    
   206  104  225 1    
   207  105  106 1    
   208  105  107 1    
   209  105  226 1    
   210  106  227 1    
   211  106  228 1    
   212  106  229 1    
   213  107  108 2    
   214  107  109 am   BACKBONE|DICT|INTERRES
   215  109  110 1    
   216  109  230 1    
   217  110  111 1    
   218  110  112 1    
   219  110  231 1    
   220  111  232 1    
   221  111  233 1    
   222  111  234 1    
   223  112  113 2    
   224  112  114 am   BACKBONE|DICT|INTERRES
   225  114  115 1    
   226  114  235 1    
   227  115  116 1    
   228  115  117 1    
   229  115  236 1    
   230  116  237 1    
   231  116  238 1    
   232  116  239 1    
   233  117  118 2    
   234  117  119 am   BACKBONE|DICT|INTERRES
   235  119  120 1    
   236  119  240 1    
   237  120  121 1    
   238  120  124 1    
   239  120  241 1    
   240  121  122 am   BACKBONE|DICT|INTERRES
   241  121  123 2    
   242  122  242 1    
   243  122  243 1    
   244  124  125 1    
   245  124  244 1    
   246  124  245 1    
   247  125  126 1    
   248  126  246 1    
   249  126  247 1    
@<TRIPOS>SUBSTRUCTURE
     1 UNK         1 GROUP             0       ****    0 ROOT    
