@<TRIPOS>MOLECULE
3R540
247   249    1
SMALL
USER_CHARGES


@<TRIPOS>ATOM
      1 CA         -0.6323   -9.5710  -43.7231 C.3       0 UNK        -0.1800 
      2 C           0.0455  -10.7884  -44.3340 C.2       0 UNK         0.5000 
      3 O          -0.2941  -11.9180  -43.9843 O.2       0 UNK        -0.5000 
      4 N           1.0043  -10.5670  -45.2444 N.am      1 UNK        -0.5000 
      5 CA          1.7738  -11.6050  -45.9466 C.3       1 UNK         0.1400 
      6 C6          0.8797  -12.4673  -46.8788 C.3       23 UNK        -0.0398 
      7 S7          1.7816  -13.1186  -48.3198 S.3       23 UNK        -0.2404 
      8 C8          0.5575  -14.3035  -48.9458 C.3       23 UNK        -0.0205 
      9 C9          1.2072  -15.3250  -49.8595 C.ar      23 UNK        -0.0193 
     10 C10         1.3132  -15.0914  -51.2325 C.ar      23 UNK        -0.1150 
     11 C11         1.9085  -16.0421  -52.0676 C.ar      23 UNK        -0.0193 
     12 C12         2.3898  -17.2355  -51.5198 C.ar      23 UNK        -0.1150 
     13 C13         2.2657  -17.4873  -50.1509 C.ar      23 UNK        -0.0193 
     14 C14         1.6945  -16.5181  -49.3247 C.ar      23 UNK        -0.1150 
     15 C15         2.7281  -18.8125  -49.5662 C.3       23 UNK        -0.0205 
     16 S16         1.5044  -20.1324  -49.8519 S.3       23 UNK        -0.2404 
     17 C17         0.0712  -19.5832  -48.8579 C.3       23 UNK        -0.0398 
     18 CA         -0.4058  -20.6577  -47.8505 C.3       11 UNK         0.1400 
     19 N          -1.2137  -20.0829  -46.7679 N.am      11 UNK        -0.5000 
     20 C          -1.6094  -20.7564  -45.6767 C.2       10 UNK         0.5000 
     21 O          -1.2760  -21.9150  -45.4298 O.2       10 UNK        -0.5000 
     22 CA         -2.5857  -20.0382  -44.7285 C.3       10 UNK         0.1400 
     23 CB         -1.8341  -19.2107  -43.6787 C.3       10 UNK        -0.1800 
     24 N          -3.5341  -19.1848  -45.4451 N.am      10 UNK        -0.5000 
     25 C          -4.5392  -19.6595  -46.1951 C.2       9 UNK         0.5000 
     26 O          -4.7703  -20.8580  -46.3455 O.2       9 UNK        -0.5000 
     27 CA         -5.3984  -18.6291  -46.9488 C.3       9 UNK         0.1400 
     28 CB         -6.4537  -18.0133  -46.0192 C.3       9 UNK        -0.1800 
     29 N          -4.6053  -17.5594  -47.5553 N.am      9 UNK        -0.5000 
     30 C          -3.6272  -17.7322  -48.4566 C.2       8 UNK         0.5000 
     31 O          -3.3504  -18.8215  -48.9553 O.2       8 UNK        -0.5000 
     32 CA         -2.7891  -16.4930  -48.8291 C.3       8 UNK         0.1400 
     33 CB         -3.2336  -15.9220  -50.1822 C.3       8 UNK        -0.1800 
     34 N          -2.8351  -15.4346  -47.8129 N.am      8 UNK        -0.5000 
     35 C          -2.3197  -15.5536  -46.5819 C.2       7 UNK         0.5000 
     36 O          -1.7300  -16.5692  -46.1997 O.2       7 UNK        -0.5000 
     37 CA         -2.5096  -14.3387  -45.6479 C.3       7 UNK         0.1400 
     38 CB         -3.9890  -14.1511  -45.2545 C.3       7 UNK        -0.1800 
     39 N          -1.6366  -14.4035  -44.4719 N.am      7 UNK        -0.5000 
     40 C          -1.6802  -15.2688  -43.4512 C.2       6 UNK         0.5000 
     41 O          -2.6276  -16.0160  -43.2030 O.2       6 UNK        -0.5000 
     42 CA         -0.3614  -15.4179  -42.6836 C.3       6 UNK         0.1400 
     43 CB         -0.5290  -16.0831  -41.3037 C.3       6 UNK        -0.1800 
     44 N           0.4758  -16.2403  -43.5484 N.am      6 UNK        -0.5000 
     45 C           1.8061  -16.3530  -43.5250 C.2       5 UNK         0.5000 
     46 O           2.5301  -15.7783  -42.7092 O.2       5 UNK        -0.5000 
     47 CA          2.4414  -17.2625  -44.5946 C.3       5 UNK         0.1400 
     48 CB          1.4360  -17.8579  -45.6075 C.3       5 UNK        -0.1800 
     49 N           3.4852  -16.5089  -45.2790 N.am      5 UNK        -0.5000 
     50 C           4.4715  -17.0345  -46.0163 C.2       4 UNK         0.5000 
     51 O           4.5744  -18.2332  -46.2788 O.2       4 UNK        -0.5000 
     52 CA          5.5611  -16.0593  -46.4946 C.3       4 UNK         0.1400 
     53 CB          5.0432  -15.1492  -47.6188 C.3       4 UNK        -0.1800 
     54 N           6.0599  -15.2472  -45.3853 N.am      4 UNK        -0.5000 
     55 C           6.8020  -15.7134  -44.3715 C.2       3 UNK         0.5000 
     56 O           7.2730  -16.8511  -44.3442 O.2       3 UNK        -0.5000 
     57 CA          7.0310  -14.7849  -43.1611 C.3       3 UNK         0.1400 
     58 CB          8.3131  -13.9453  -43.3244 C.3       3 UNK        -0.1800 
     59 N           5.8655  -13.9588  -42.8128 N.am      3 UNK        -0.5000 
     60 C           5.3460  -12.9228  -43.4827 C.2       2 UNK         0.5000 
     61 O           5.8359  -12.4492  -44.5109 O.2       2 UNK        -0.5000 
     62 CA          4.0427  -12.3369  -42.9098 C.3       2 UNK         0.1400 
     63 CB          4.3506  -11.2521  -41.8665 C.3       2 UNK        -0.1800 
     64 N           3.1846  -11.7647  -43.9466 N.am      2 UNK        -0.5000 
     65 C           2.6492  -12.4382  -44.9758 C.2       1 UNK         0.5000 
     66 O           2.8085  -13.6478  -45.1527 O.2       1 UNK        -0.5000 
     67 C          -1.1665  -21.7991  -48.5552 C.2       11 UNK         0.5000 
     68 O          -0.6302  -22.8973  -48.7050 O.2       11 UNK        -0.5000 
     69 N          -2.4300  -21.5350  -48.9128 N.am      12 UNK        -0.5000 
     70 CA         -3.3261  -22.4995  -49.5399 C.3       12 UNK         0.1400 
     71 CB         -4.5991  -21.7863  -49.9960 C.3       12 UNK        -0.1800 
     72 C          -3.6812  -23.6840  -48.6281 C.2       12 UNK         0.5000 
     73 O          -3.8389  -24.7952  -49.1330 O.2       12 UNK        -0.5000 
     74 N          -3.8075  -23.4388  -47.3173 N.am      13 UNK        -0.5000 
     75 CA         -4.0228  -24.4710  -46.3038 C.3       13 UNK         0.1400 
     76 CB         -4.4107  -23.8246  -44.9665 C.3       13 UNK        -0.1800 
     77 C          -2.7938  -25.3808  -46.1381 C.2       13 UNK         0.5000 
     78 O          -2.9529  -26.5999  -46.0858 O.2       13 UNK        -0.5000 
     79 N          -1.5917  -24.7854  -46.1138 N.am      14 UNK        -0.5000 
     80 CA         -0.3114  -25.4989  -46.0730 C.3       14 UNK         0.1400 
     81 CB          0.8298  -24.4981  -45.8369 C.3       14 UNK        -0.1800 
     82 C          -0.0545  -26.3366  -47.3410 C.2       14 UNK         0.5000 
     83 O           0.4749  -27.4441  -47.2431 O.2       14 UNK        -0.5000 
     84 N          -0.4768  -25.8130  -48.4998 N.am      15 UNK        -0.5000 
     85 CA         -0.4641  -26.5021  -49.7922 C.3       15 UNK         0.1400 
     86 CB         -0.6203  -25.4555  -50.9073 C.3       15 UNK        -0.1800 
     87 C          -1.5519  -27.5904  -49.9270 C.2       15 UNK         0.5000 
     88 O          -1.4992  -28.3699  -50.8789 O.2       15 UNK        -0.5000 
     89 N          -2.5215  -27.6099  -48.9985 N.am      16 UNK        -0.5000 
     90 CA         -3.7098  -28.4706  -48.9502 C.3       16 UNK         0.1400 
     91 CB         -3.3155  -29.9518  -48.7755 C.3       16 UNK        -0.1800 
     92 C          -4.6837  -28.2365  -50.1266 C.2       16 UNK         0.5000 
     93 O          -5.4212  -29.1466  -50.5098 O.2       16 UNK        -0.5000 
     94 N          -4.6739  -27.0140  -50.6703 N.am      17 UNK        -0.5000 
     95 CA         -5.5358  -26.5644  -51.7599 C.3       17 UNK         0.1400 
     96 CB         -4.7314  -25.6225  -52.6711 C.3       17 UNK        -0.1800 
     97 C          -6.7834  -25.8448  -51.2234 C.2       17 UNK         0.5000 
     98 O          -7.8675  -26.0185  -51.7792 O.2       17 UNK        -0.5000 
     99 N          -6.5966  -25.0362  -50.1664 N.am      18 UNK        -0.5000 
    100 CA        -7.6006  -24.2164  -49.4677 C.3       18 UNK         0.1400 
    101 CB        -8.6149  -25.1190  -48.7372 C.3       18 UNK        -0.1800 
    102 C         -8.2941  -23.1416  -50.3434 C.2       18 UNK         0.5000 
    103 O         -9.3328  -22.6090  -49.9516 O.2       18 UNK        -0.5000 
    104 N         -7.7030  -22.8243  -51.5034 N.am      19 UNK        -0.5000 
    105 CA        -8.2334  -21.9039  -52.5130 C.3       19 UNK         0.1400 
    106 CB        -7.6011  -22.2713  -53.8660 C.3       19 UNK        -0.1800 
    107 C         -7.9975  -20.4100  -52.2048 C.2       19 UNK         0.5000 
    108 O         -8.5431  -19.5654  -52.9155 O.2       19 UNK        -0.5000 
    109 N         -7.1786  -20.1136  -51.1836 N.am      20 UNK        -0.5000 
    110 CA        -6.6878  -18.7861  -50.7910 C.3       20 UNK         0.1400 
    111 CB        -7.8285  -17.8965  -50.2570 C.3       20 UNK        -0.1800 
    112 C         -5.8580  -18.1273  -51.9111 C.2       20 UNK         0.5000 
    113 O         -6.1806  -17.0364  -52.3840 O.2       20 UNK        -0.5000 
    114 N         -4.8035  -18.8376  -52.3187 N.am      21 UNK        -0.5000 
    115 CA        -3.8478  -18.4656  -53.3520 C.3       21 UNK         0.1400 
    116 CB        -4.3293  -19.0221  -54.7040 C.3       21 UNK        -0.1800 
    117 C         -2.4711  -19.0301  -52.9644 C.2       21 UNK         0.5000 
    118 O         -2.3690  -19.7915  -51.9993 O.2       21 UNK        -0.5000 
    119 N         -1.4452  -18.6638  -53.7380 N.am      22 UNK        -0.5000 
    120 CA        -0.0149  -18.9954  -53.5709 C.3       22 UNK         0.1400 
    121 C          0.3698  -20.5134  -53.6201 C.2       22 UNK         0.5000 
    122 N         -0.5157  -21.4385  -53.2828 N.am      22 UNK        -0.7600 
    123 O          1.4928  -20.8660  -53.9718 O.2       22 UNK        -0.5000 
    124 C124        0.8558  -18.1588  -54.5514 C.3       23 UNK        -0.0398 
    125 S125        0.5576  -16.3570  -54.4648 S.3       23 UNK        -0.2404 
    126 C126        2.0263  -15.7754  -53.5596 C.3       23 UNK        -0.0205 
    127 H127       -1.7040   -9.6018  -43.9194 H         1 UNK         0.0600 
    128 H128       -0.2379   -8.6397  -44.1302 H         1 UNK         0.0600 
    129 H129       -0.4824   -9.5618  -42.6436 H         1 UNK         0.0600 
    130 H130        1.2378   -9.6143  -45.4889 H         1 UNK         0.3000 
    131 H131        2.4767  -11.0538  -46.5733 H         1 UNK         0.0600 
    132 H132        0.0556  -11.8680  -47.2683 H         1 UNK         0.0800 
    133 H133        0.4210  -13.2886  -46.3270 H         1 UNK         0.0800 
    134 H134        0.0871  -14.8208  -48.1097 H         1 UNK         0.0800 
    135 H135       -0.2372  -13.7704  -49.4698 H         1 UNK         0.0800 
    136 H136        0.9348  -14.1690  -51.6504 H         1 UNK         0.1150 
    137 H137        2.8403  -17.9809  -52.1597 H         1 UNK         0.1150 
    138 H138        1.6178  -16.6947  -48.2630 H         1 UNK         0.1150 
    139 H139        3.6739  -19.1019  -50.0260 H         1 UNK         0.0800 
    140 H140        2.9266  -18.7198  -48.4981 H         1 UNK         0.0800 
    141 H141       -0.7294  -19.2812  -49.5360 H         1 UNK         0.0800 
    142 H142        0.3485  -18.6847  -48.3102 H         1 UNK         0.0800 
    143 H143        0.4777  -21.0942  -47.3789 H         1 UNK         0.0600 
    144 H144       -1.5561  -19.1419  -46.8990 H         1 UNK         0.3000 
    145 H145       -3.1506  -20.8076  -44.1984 H         1 UNK         0.0600 
    146 H146       -1.3544  -18.3429  -44.1261 H         1 UNK         0.0600 
    147 H147       -2.5134  -18.8492  -42.9067 H         1 UNK         0.0600 
    148 H148       -1.0626  -19.8015  -43.1833 H         1 UNK         0.0600 
    149 H149       -3.3744  -18.1873  -45.3986 H         1 UNK         0.3000 
    150 H150       -5.9207  -19.1630  -47.7427 H         1 UNK         0.0600 
    151 H151       -7.0669  -18.7883  -45.5574 H         1 UNK         0.0600 
    152 H152       -7.1259  -17.3540  -46.5689 H         1 UNK         0.0600 
    153 H153       -5.9964  -17.4338  -45.2161 H         1 UNK         0.0600 
    154 H154       -4.7659  -16.6270  -47.2057 H         1 UNK         0.3000 
    155 H155       -1.7519  -16.8216  -48.9268 H         1 UNK         0.0600 
    156 H156       -4.2698  -15.5824  -50.1586 H         1 UNK         0.0600 
    157 H157       -3.1517  -16.6760  -50.9651 H         1 UNK         0.0600 
    158 H158       -2.6076  -15.0809  -50.4807 H         1 UNK         0.0600 
    159 H159       -3.3042  -14.5791  -48.0743 H         1 UNK         0.3000 
    160 H160       -2.1929  -13.4536  -46.2015 H         1 UNK         0.0600 
    161 H161       -4.4165  -15.0537  -44.8170 H         1 UNK         0.0600 
    162 H162       -4.5966  -13.8960  -46.1231 H         1 UNK         0.0600 
    163 H163       -4.1044  -13.3421  -44.5331 H         1 UNK         0.0600 
    164 H164       -0.8454  -13.7685  -44.4986 H         1 UNK         0.3000 
    165 H165        0.0907  -14.4315  -42.5586 H         1 UNK         0.0600 
    166 H166        0.4228  -16.1435  -40.7762 H         1 UNK         0.0600 
    167 H167       -1.2126  -15.5094  -40.6772 H         1 UNK         0.0600 
    168 H168       -0.9279  -17.0947  -41.3885 H         1 UNK         0.0600 
    169 H169       -0.0315  -16.7042  -44.2918 H         1 UNK         0.3000 
    170 H170        2.9149  -18.0865  -44.0576 H         1 UNK         0.0600 
    171 H171        0.7070  -18.4933  -45.1077 H         1 UNK         0.0600 
    172 H172        0.8970  -17.0796  -46.1469 H         1 UNK         0.0600 
    173 H173        1.9317  -18.4901  -46.3420 H         1 UNK         0.0600 
    174 H174        3.4603  -15.5041  -45.1175 H         1 UNK         0.3000 
    175 H175        6.3904  -16.6481  -46.8924 H         1 UNK         0.0600 
    176 H176        4.2454  -14.4935  -47.2718 H         1 UNK         0.0600 
    177 H177        5.8407  -14.5216  -48.0163 H         1 UNK         0.0600 
    178 H178        4.6461  -15.7370  -48.4475 H         1 UNK         0.0600 
    179 H179        5.7399  -14.2862  -45.3319 H         1 UNK         0.3000 
    180 H180        7.1844  -15.4375  -42.3001 H         1 UNK         0.0600 
    181 H181        8.4814  -13.3080  -42.4564 H         1 UNK         0.0600 
    182 H182        8.2790  -13.3088  -44.2087 H         1 UNK         0.0600 
    183 H183        9.1856  -14.5914  -43.4276 H         1 UNK         0.0600 
    184 H184        5.3576  -14.2830  -42.0008 H         1 UNK         0.3000 
    185 H185        3.4826  -13.1401  -42.4263 H         1 UNK         0.0600 
    186 H186        4.9645  -11.6494  -41.0571 H         1 UNK         0.0600 
    187 H187        4.8916  -10.4135  -42.3069 H         1 UNK         0.0600 
    188 H188        3.4358  -10.8644  -41.4178 H         1 UNK         0.0600 
    189 H189        3.0074  -10.7736  -43.8849 H         1 UNK         0.3000 
    190 H190       -2.7871  -20.5890  -48.7995 H         1 UNK         0.3000 
    191 H191       -2.8210  -22.8929  -50.4242 H         1 UNK         0.0600 
    192 H192       -4.3558  -20.9302  -50.6196 H         1 UNK         0.0600 
    193 H193       -5.2123  -22.4590  -50.5908 H         1 UNK         0.0600 
    194 H194       -5.1915  -21.4329  -49.1508 H         1 UNK         0.0600 
    195 H195       -3.7669  -22.4793  -46.9901 H         1 UNK         0.3000 
    196 H196       -4.8580  -25.0947  -46.6301 H         1 UNK         0.0600 
    197 H197       -4.5944  -24.5837  -44.2052 H         1 UNK         0.0600 
    198 H198       -5.3227  -23.2356  -45.0635 H         1 UNK         0.0600 
    199 H199       -3.6251  -23.1686  -44.5925 H         1 UNK         0.0600 
    200 H200       -1.5432  -23.7710  -46.1234 H         1 UNK         0.3000 
    201 H201       -0.3400  -26.1855  -45.2245 H         1 UNK         0.0600 
    202 H202        0.6923  -23.9588  -44.8996 H         1 UNK         0.0600 
    203 H203        0.8941  -23.7618  -46.6384 H         1 UNK         0.0600 
    204 H204        1.7921  -25.0083  -45.7810 H         1 UNK         0.0600 
    205 H205       -0.8154  -24.8551  -48.5001 H         1 UNK         0.3000 
    206 H206        0.5053  -26.9897  -49.9133 H         1 UNK         0.0600 
    207 H207        0.1581  -24.6945  -50.8484 H         1 UNK         0.0600 
    208 H208       -0.5489  -25.9177  -51.8926 H         1 UNK         0.0600 
    209 H209       -1.5856  -24.9523  -50.8516 H         1 UNK         0.0600 
    210 H210       -2.4669  -26.9235  -48.2571 H         1 UNK         0.3000 
    211 H211       -4.2547  -28.1719  -48.0537 H         1 UNK         0.0600 
    212 H212       -2.8332  -30.3523  -49.6674 H         1 UNK         0.0600 
    213 H213       -4.1920  -30.5687  -48.5745 H         1 UNK         0.0600 
    214 H214       -2.6313  -30.0802  -47.9367 H         1 UNK         0.0600 
    215 H215       -4.0821  -26.3109  -50.2372 H         1 UNK         0.3000 
    216 H216       -5.8640  -27.4185  -52.3561 H         1 UNK         0.0600 
    217 H217       -3.8716  -26.1361  -53.1019 H         1 UNK         0.0600 
    218 H218       -4.3599  -24.7512  -52.1298 H         1 UNK         0.0600 
    219 H219       -5.3426  -25.2614  -53.4993 H         1 UNK         0.0600 
    220 H220       -5.6583  -24.9923  -49.7815 H         1 UNK         0.3000 
    221 H221       -7.0517  -23.6628  -48.7044 H         1 UNK         0.0600 
    222 H222       -9.2470  -25.6659  -49.4373 H         1 UNK         0.0600 
    223 H223       -8.1085  -25.8470  -48.1034 H         1 UNK         0.0600 
    224 H224       -9.2717  -24.5333  -48.0930 H         1 UNK         0.0600 
    225 H225       -6.8709  -23.3329  -51.7594 H         1 UNK         0.3000 
    226 H226       -9.3125  -22.0537  -52.5885 H         1 UNK         0.0600 
    227 H227       -7.8058  -23.3096  -54.1285 H         1 UNK         0.0600 
    228 H228       -8.0019  -21.6512  -54.6690 H         1 UNK         0.0600 
    229 H229       -6.5190  -22.1338  -53.8553 H         1 UNK         0.0600 
    230 H230       -6.8025  -20.8924  -50.6658 H         1 UNK         0.3000 
    231 H231       -5.9939  -18.9505  -49.9692 H         1 UNK         0.0600 
    232 H232       -7.4365  -16.9538  -49.8732 H         1 UNK         0.0600 
    233 H233       -8.3571  -18.3850  -49.4385 H         1 UNK         0.0600 
    234 H234       -8.5571  -17.6560  -51.0315 H         1 UNK         0.0600 
    235 H235       -4.5410  -19.6748  -51.8161 H         1 UNK         0.3000 
    236 H236       -3.7646  -17.3782  -53.4071 H         1 UNK         0.0600 
    237 H237       -5.3177  -18.6382  -54.9575 H         1 UNK         0.0600 
    238 H238       -3.6563  -18.7385  -55.5137 H         1 UNK         0.0600 
    239 H239       -4.3893  -20.1112  -54.6903 H         1 UNK         0.0600 
    240 H240       -1.6378  -18.0489  -54.5148 H         1 UNK         0.3000 
    241 H241        0.2459  -18.6835  -52.5591 H         1 UNK         0.0600 
    242 H242       -0.2652  -22.4130  -53.3108 H         1 UNK         0.3800 
    243 H243       -1.3906  -21.1367  -52.8661 H         1 UNK         0.3800 
    244 H244        1.9170  -18.3451  -54.3815 H         1 UNK         0.0800 
    245 H245        0.6633  -18.4767  -55.5774 H         1 UNK         0.0800 
    246 H246        2.9277  -16.2386  -53.9637 H         1 UNK         0.0800 
    247 H247        2.1386  -14.7038  -53.7310 H         1 UNK         0.0800 
@<TRIPOS>BOND
     1    1    2 1    
     2    1  127 1    
     3    1  128 1    
     4    1  129 1    
     5    2    3 2    
     6    2    4 am   BACKBONE|DICT|INTERRES
     7    4    5 1    
     8    4  130 1    
     9    5    6 1    
    10    5   65 1    
    11    5  131 1    
    12    6    7 1    
    13    6  132 1    
    14    6  133 1    
    15    7    8 1    
    16    8    9 1    
    17    8  134 1    
    18    8  135 1    
    19    9   10 ar   
    20    9   14 ar   
    21   10   11 ar   
    22   10  136 1    
    23   11   12 ar   
    24   11  126 1    
    25   12   13 ar   
    26   12  137 1    
    27   13   14 ar   
    28   13   15 1    
    29   14  138 1    
    30   15   16 1    
    31   15  139 1    
    32   15  140 1    
    33   16   17 1    
    34   17   18 1    
    35   17  141 1    
    36   17  142 1    
    37   18   19 1    
    38   18   67 1    
    39   18  143 1    
    40   19   20 am   BACKBONE|DICT|INTERRES
    41   19  144 1    
    42   20   21 2    
    43   20   22 1    
    44   22   23 1    
    45   22   24 1    
    46   22  145 1    
    47   23  146 1    
    48   23  147 1    
    49   23  148 1    
    50   24   25 am   BACKBONE|DICT|INTERRES
    51   24  149 1    
    52   25   26 2    
    53   25   27 1    
    54   27   28 1    
    55   27   29 1    
    56   27  150 1    
    57   28  151 1    
    58   28  152 1    
    59   28  153 1    
    60   29   30 am   BACKBONE|DICT|INTERRES
    61   29  154 1    
    62   30   31 2    
    63   30   32 1    
    64   32   33 1    
    65   32   34 1    
    66   32  155 1    
    67   33  156 1    
    68   33  157 1    
    69   33  158 1    
    70   34   35 am   BACKBONE|DICT|INTERRES
    71   34  159 1    
    72   35   36 2    
    73   35   37 1    
    74   37   38 1    
    75   37   39 1    
    76   37  160 1    
    77   38  161 1    
    78   38  162 1    
    79   38  163 1    
    80   39   40 am   BACKBONE|DICT|INTERRES
    81   39  164 1    
    82   40   41 2    
    83   40   42 1    
    84   42   43 1    
    85   42   44 1    
    86   42  165 1    
    87   43  166 1    
    88   43  167 1    
    89   43  168 1    
    90   44   45 am   BACKBONE|DICT|INTERRES
    91   44  169 1    
    92   45   46 2    
    93   45   47 1    
    94   47   48 1    
    95   47   49 1    
    96   47  170 1    
    97   48  171 1    
    98   48  172 1    
    99   48  173 1    
   100   49   50 am   BACKBONE|DICT|INTERRES
   101   49  174 1    
   102   50   51 2    
   103   50   52 1    
   104   52   53 1    
   105   52   54 1    
   106   52  175 1    
   107   53  176 1    
   108   53  177 1    
   109   53  178 1    
   110   54   55 am   BACKBONE|DICT|INTERRES
   111   54  179 1    
   112   55   56 2    
   113   55   57 1    
   114   57   58 1    
   115   57   59 1    
   116   57  180 1    
   117   58  181 1    
   118   58  182 1    
   119   58  183 1    
   120   59   60 am   BACKBONE|DICT|INTERRES
   121   59  184 1    
   122   60   61 2    
   123   60   62 1    
   124   62   63 1    
   125   62   64 1    
   126   62  185 1    
   127   63  186 1    
   128   63  187 1    
   129   63  188 1    
   130   64   65 am   BACKBONE|DICT|INTERRES
   131   64  189 1    
   132   65   66 2    
   133   67   68 2    
   134   67   69 am   BACKBONE|DICT|INTERRES
   135   69   70 1    
   136   69  190 1    
   137   70   71 1    
   138   70   72 1    
   139   70  191 1    
   140   71  192 1    
   141   71  193 1    
   142   71  194 1    
   143   72   73 2    
   144   72   74 am   BACKBONE|DICT|INTERRES
   145   74   75 1    
   146   74  195 1    
   147   75   76 1    
   148   75   77 1    
   149   75  196 1    
   150   76  197 1    
   151   76  198 1    
   152   76  199 1    
   153   77   78 2    
   154   77   79 am   BACKBONE|DICT|INTERRES
   155   79   80 1    
   156   79  200 1    
   157   80   81 1    
   158   80   82 1    
   159   80  201 1    
   160   81  202 1    
   161   81  203 1    
   162   81  204 1    
   163   82   83 2    
   164   82   84 am   BACKBONE|DICT|INTERRES
   165   84   85 1    
   166   84  205 1    
   167   85   86 1    
   168   85   87 1    
   169   85  206 1    
   170   86  207 1    
   171   86  208 1    
   172   86  209 1    
   173   87   88 2    
   174   87   89 am   BACKBONE|DICT|INTERRES
   175   89   90 1    
   176   89  210 1    
   177   90   91 1    
   178   90   92 1    
   179   90  211 1    
   180   91  212 1    
   181   91  213 1    
   182   91  214 1    
   183   92   93 2    
   184   92   94 am   BACKBONE|DICT|INTERRES
   185   94   95 1    
   186   94  215 1    
   187   95   96 1    
   188   95   97 1    
   189   95  216 1    
   190   96  217 1    
   191   96  218 1    
   192   96  219 1    
   193   97   98 2    
   194   97   99 am   BACKBONE|DICT|INTERRES
   195   99  100 1    
   196   99  220 1    
   197  100  101 1    
   198  100  102 1    
   199  100  221 1    
   200  101  222 1    
   201  101  223 1    
   202  101  224 1    
   203  102  103 2    
   204  102  104 am   BACKBONE|DICT|INTERRES
   205  104  105 1    
   206  104  225 1    
   207  105  106 1    
   208  105  107 1    
   209  105  226 1    
   210  106  227 1    
   211  106  228 1    
   212  106  229 1    
   213  107  108 2    
   214  107  109 am   BACKBONE|DICT|INTERRES
   215  109  110 1    
   216  109  230 1    
   217  110  111 1    
   218  110  112 1    
   219  110  231 1    
   220  111  232 1    
   221  111  233 1    
   222  111  234 1    
   223  112  113 2    
   224  112  114 am   BACKBONE|DICT|INTERRES
   225  114  115 1    
   226  114  235 1    
   227  115  116 1    
   228  115  117 1    
   229  115  236 1    
   230  116  237 1    
   231  116  238 1    
   232  116  239 1    
   233  117  118 2    
   234  117  119 am   BACKBONE|DICT|INTERRES
   235  119  120 1    
   236  119  240 1    
   237  120  121 1    
   238  120  124 1    
   239  120  241 1    
   240  121  122 am   BACKBONE|DICT|INTERRES
   241  121  123 2    
   242  122  242 1    
   243  122  243 1    
   244  124  125 1    
   245  124  244 1    
   246  124  245 1    
   247  125  126 1    
   248  126  246 1    
   249  126  247 1    
@<TRIPOS>SUBSTRUCTURE
     1 UNK         1 GROUP             0       ****    0 ROOT    
