@<TRIPOS>MOLECULE
3R540
247   249    1
SMALL
USER_CHARGES


@<TRIPOS>ATOM
      1 CA          3.9651  -10.6359  -48.4350 C.3       0 UNK        -0.1800 
      2 C           2.9411  -11.6465  -47.9411 C.2       0 UNK         0.5000 
      3 O           2.6580  -11.6910  -46.7452 O.2       0 UNK        -0.5000 
      4 N           2.3701  -12.4409  -48.8567 N.am      1 UNK        -0.5000 
      5 CA          1.3770  -13.4937  -48.5882 C.3       1 UNK         0.1400 
      6 C6          1.0543  -14.2908  -49.8824 C.3       23 UNK        -0.0398 
      7 S7          0.6845  -16.0588  -49.6008 S.3       23 UNK        -0.2404 
      8 C8          2.0595  -16.8616  -50.4859 C.3       23 UNK        -0.0205 
      9 C9          1.7568  -18.3119  -50.8391 C.ar      23 UNK        -0.0193 
     10 C10         1.0001  -18.6044  -51.9782 C.ar      23 UNK        -0.1150 
     11 C11         0.7929  -19.9287  -52.3716 C.ar      23 UNK        -0.0193 
     12 C12         1.3230  -20.9643  -51.6003 C.ar      23 UNK        -0.1150 
     13 C13         2.0789  -20.6955  -50.4558 C.ar      23 UNK        -0.0193 
     14 C14         2.2908  -19.3598  -50.0801 C.ar      23 UNK        -0.1150 
     15 C15         2.6912  -21.8882  -49.7185 C.3       23 UNK        -0.0205 
     16 S16         3.3817  -21.5638  -48.0609 S.3       23 UNK        -0.2404 
     17 C17         1.8816  -21.2277  -47.0853 C.3       23 UNK        -0.0398 
     18 CA          1.2741  -22.5076  -46.4507 C.3       11 UNK         0.1400 
     19 N           0.8014  -22.2768  -45.0836 N.am      11 UNK        -0.5000 
     20 C           0.3303  -23.2188  -44.2545 C.2       10 UNK         0.5000 
     21 O           0.3027  -24.4196  -44.5258 O.2       10 UNK        -0.5000 
     22 CA         -0.2613  -22.7246  -42.9209 C.3       10 UNK         0.1400 
     23 CB          0.8381  -22.5042  -41.8712 C.3       10 UNK        -0.1800 
     24 N          -1.0394  -21.4953  -43.0894 N.am      10 UNK        -0.5000 
     25 C          -2.2036  -21.4323  -43.7520 C.2       9 UNK         0.5000 
     26 O          -2.7706  -22.4170  -44.2264 O.2       9 UNK        -0.5000 
     27 CA         -2.8103  -20.0318  -43.9619 C.3       9 UNK         0.1400 
     28 CB         -3.5685  -19.5726  -42.7079 C.3       9 UNK        -0.1800 
     29 N          -1.8078  -19.0288  -44.3267 N.am      9 UNK        -0.5000 
     30 C          -1.0781  -19.0606  -45.4509 C.2       8 UNK         0.5000 
     31 O          -1.2191  -19.9074  -46.3285 O.2       8 UNK        -0.5000 
     32 CA          0.0335  -18.0111  -45.6080 C.3       8 UNK         0.1400 
     33 CB         -0.5235  -16.7239  -46.2185 C.3       8 UNK        -0.1800 
     34 N           0.7180  -17.7041  -44.3536 N.am      8 UNK        -0.5000 
     35 C           1.4104  -18.5873  -43.6218 C.2       7 UNK         0.5000 
     36 O           1.5645  -19.7653  -43.9386 O.2       7 UNK        -0.5000 
     37 CA          1.9799  -18.0825  -42.2877 C.3       7 UNK         0.1400 
     38 CB          3.2919  -17.3145  -42.5050 C.3       7 UNK        -0.1800 
     39 N           1.0151  -17.2345  -41.5896 N.am      7 UNK        -0.5000 
     40 C          -0.0830  -17.6973  -40.9761 C.2       6 UNK         0.5000 
     41 O          -0.3616  -18.8935  -40.8836 O.2       6 UNK        -0.5000 
     42 CA         -1.0459  -16.6426  -40.3989 C.3       6 UNK         0.1400 
     43 CB         -0.5933  -16.2041  -38.9982 C.3       6 UNK        -0.1800 
     44 N          -1.1763  -15.4633  -41.2581 N.am      6 UNK        -0.5000 
     45 C          -1.7593  -15.4718  -42.4651 C.2       5 UNK         0.5000 
     46 O          -2.2653  -16.4737  -42.9688 O.2       5 UNK        -0.5000 
     47 CA         -1.7436  -14.1513  -43.2587 C.3       5 UNK         0.1400 
     48 CB         -2.9517  -13.2801  -42.8857 C.3       5 UNK        -0.1800 
     49 N          -0.5183  -13.3648  -43.1008 N.am      5 UNK        -0.5000 
     50 C           0.7219  -13.7824  -43.3873 C.2       4 UNK         0.5000 
     51 O           0.9914  -14.9399  -43.7097 O.2       4 UNK        -0.5000 
     52 CA          1.8344  -12.7191  -43.3076 C.3       4 UNK         0.1400 
     53 CB          3.2109  -13.2673  -43.7239 C.3       4 UNK        -0.1800 
     54 N           1.5154  -11.5690  -44.1515 N.am      4 UNK        -0.5000 
     55 C           0.7468  -10.5323  -43.7969 C.2       3 UNK         0.5000 
     56 O           0.2057  -10.4313  -42.6950 O.2       3 UNK        -0.5000 
     57 CA          0.5101   -9.4578  -44.8686 C.3       3 UNK         0.1400 
     58 CB          1.7808   -8.6281  -45.1140 C.3       3 UNK        -0.1800 
     59 N           0.0649  -10.0566  -46.1258 N.am      3 UNK        -0.5000 
     60 C          -1.1991  -10.4174  -46.3875 C.2       2 UNK         0.5000 
     61 O          -2.1301  -10.2665  -45.5957 O.2       2 UNK        -0.5000 
     62 CA         -1.4805  -11.0335  -47.7721 C.3       2 UNK         0.1400 
     63 CB         -1.9309   -9.9464  -48.7600 C.3       2 UNK        -0.1800 
     64 N          -0.3260  -11.7367  -48.3339 N.am      2 UNK        -0.5000 
     65 C           0.0908  -12.9439  -47.9255 C.2       1 UNK         0.5000 
     66 O          -0.4779  -13.5915  -47.0484 O.2       1 UNK        -0.5000 
     67 C           0.1617  -23.1015  -47.3386 C.2       11 UNK         0.5000 
     68 O           0.3878  -24.1086  -48.0058 O.2       11 UNK        -0.5000 
     69 N          -1.0313  -22.4952  -47.2889 N.am      12 UNK        -0.5000 
     70 CA         -2.2332  -22.9243  -47.9992 C.3       12 UNK         0.1400 
     71 CB         -3.3503  -21.8947  -47.7743 C.3       12 UNK        -0.1800 
     72 C          -2.7060  -24.3298  -47.5945 C.2       12 UNK         0.5000 
     73 O          -3.0863  -25.1160  -48.4621 O.2       12 UNK        -0.5000 
     74 N          -2.6393  -24.6368  -46.2914 N.am      13 UNK        -0.5000 
     75 CA         -2.9413  -25.9584  -45.7415 C.3       13 UNK         0.1400 
     76 CB         -2.9674  -25.8866  -44.2074 C.3       13 UNK        -0.1800 
     77 C          -1.9609  -27.0428  -46.2284 C.2       13 UNK         0.5000 
     78 O          -2.3945  -28.1538  -46.5347 O.2       13 UNK        -0.5000 
     79 N          -0.6694  -26.6953  -46.3213 N.am      14 UNK        -0.5000 
     80 CA          0.3829  -27.5606  -46.8559 C.3       14 UNK         0.1400 
     81 CB          1.7581  -26.9946  -46.4686 C.3       14 UNK        -0.1800 
     82 C           0.2738  -27.7536  -48.3813 C.2       14 UNK         0.5000 
     83 O           0.4395  -28.8742  -48.8648 O.2       14 UNK        -0.5000 
     84 N          -0.0128  -26.6647  -49.1081 N.am      15 UNK        -0.5000 
     85 CA         -0.1904  -26.6428  -50.5624 C.3       15 UNK         0.1400 
     86 CB         -0.1495  -25.1850  -51.0498 C.3       15 UNK        -0.1800 
     87 C          -1.4901  -27.3215  -51.0366 C.2       15 UNK         0.5000 
     88 O          -1.5482  -27.7717  -52.1814 O.2       15 UNK        -0.5000 
     89 N          -2.5008  -27.3645  -50.1567 N.am      16 UNK        -0.5000 
     90 CA         -3.8680  -27.8423  -50.3807 C.3       16 UNK         0.1400 
     91 CB         -3.8905  -29.3480  -50.7178 C.3       16 UNK        -0.1800 
     92 C          -4.6367  -26.9700  -51.3969 C.2       16 UNK         0.5000 
     93 O          -5.4251  -27.4861  -52.1915 O.2       16 UNK        -0.5000 
     94 N          -4.3979  -25.6554  -51.3421 N.am      17 UNK        -0.5000 
     95 CA         -5.0372  -24.6298  -52.1586 C.3       17 UNK         0.1400 
     96 CB         -4.3376  -24.5227  -53.5251 C.3       17 UNK        -0.1800 
     97 C          -4.9463  -23.3067  -51.3924 C.2       17 UNK         0.5000 
     98 O          -3.9167  -23.0504  -50.7683 O.2       17 UNK        -0.5000 
     99 N          -6.0120  -22.4977  -51.4407 N.am      18 UNK        -0.5000 
    100 CA        -6.0985  -21.2044  -50.7594 C.3       18 UNK         0.1400 
    101 CB        -7.5222  -20.6471  -50.9125 C.3       18 UNK        -0.1800 
    102 C         -5.0701  -20.1962  -51.3002 C.2       18 UNK         0.5000 
    103 O         -4.9324  -20.0753  -52.5187 O.2       18 UNK        -0.5000 
    104 N         -4.4120  -19.4597  -50.3939 N.am      19 UNK        -0.5000 
    105 CA        -3.3644  -18.4777  -50.7007 C.3       19 UNK         0.1400 
    106 CB        -2.8345  -17.8771  -49.3897 C.3       19 UNK        -0.1800 
    107 C         -3.8238  -17.3657  -51.6632 C.2       19 UNK         0.5000 
    108 O         -3.0747  -16.9734  -52.5582 O.2       19 UNK        -0.5000 
    109 N         -5.0740  -16.9177  -51.4880 N.am      20 UNK        -0.5000 
    110 CA        -5.7324  -15.9281  -52.3401 C.3       20 UNK         0.1400 
    111 CB        -6.9898  -15.4161  -51.6204 C.3       20 UNK        -0.1800 
    112 C         -6.0952  -16.4621  -53.7407 C.2       20 UNK         0.5000 
    113 O         -6.2615  -15.6586  -54.6594 O.2       20 UNK        -0.5000 
    114 N         -6.2234  -17.7889  -53.8835 N.am      21 UNK        -0.5000 
    115 CA        -6.5215  -18.4530  -55.1495 C.3       21 UNK         0.1400 
    116 CB        -7.3475  -19.7247  -54.8939 C.3       21 UNK        -0.1800 
    117 C         -5.2326  -18.7758  -55.9201 C.2       21 UNK         0.5000 
    118 O         -5.1663  -18.4953  -57.1181 O.2       21 UNK        -0.5000 
    119 N         -4.2369  -19.3552  -55.2333 N.am      22 UNK        -0.5000 
    120 CA        -2.9409  -19.7109  -55.8325 C.3       22 UNK         0.1400 
    121 C         -1.9814  -18.5084  -56.0665 C.2       22 UNK         0.5000 
    122 N         -2.0880  -17.4141  -55.3221 N.am      22 UNK        -0.7600 
    123 O         -1.1314  -18.5663  -56.9510 O.2       22 UNK        -0.5000 
    124 C124       -2.2503  -20.8962  -55.1081 C.3       23 UNK        -0.0398 
    125 S125       -1.7072  -20.5580  -53.3974 S.3       23 UNK        -0.2404 
    126 C126        0.0622  -20.2444  -53.6665 C.3       23 UNK        -0.0205 
    127 H127        3.6427   -9.6247  -48.1867 H         1 UNK         0.0600 
    128 H128        4.1056  -10.6939  -49.5145 H         1 UNK         0.0600 
    129 H129        4.9274  -10.8150  -47.9557 H         1 UNK         0.0600 
    130 H130        2.6477  -12.3391  -49.8225 H         1 UNK         0.3000 
    131 H131        1.8430  -14.1712  -47.8691 H         1 UNK         0.0600 
    132 H132        0.2219  -13.8452  -50.4306 H         1 UNK         0.0800 
    133 H133        1.8993  -14.2335  -50.5690 H         1 UNK         0.0800 
    134 H134        2.9636  -16.7937  -49.8788 H         1 UNK         0.0800 
    135 H135        2.2707  -16.3212  -51.4099 H         1 UNK         0.0800 
    136 H136        0.5996  -17.7985  -52.5777 H         1 UNK         0.1150 
    137 H137        1.1703  -21.9884  -51.9126 H         1 UNK         0.1150 
    138 H138        2.8949  -19.1234  -49.2166 H         1 UNK         0.1150 
    139 H139        1.9533  -22.6867  -49.6424 H         1 UNK         0.0800 
    140 H140        3.4965  -22.2837  -50.3388 H         1 UNK         0.0800 
    141 H141        1.1565  -20.6688  -47.6802 H         1 UNK         0.0800 
    142 H142        2.2006  -20.5369  -46.3059 H         1 UNK         0.0800 
    143 H143        2.0569  -23.2646  -46.3666 H         1 UNK         0.0600 
    144 H144        0.8471  -21.3204  -44.7428 H         1 UNK         0.3000 
    145 H145       -0.9323  -23.5011  -42.5474 H         1 UNK         0.0600 
    146 H146        0.4136  -22.1955  -40.9157 H         1 UNK         0.0600 
    147 H147        1.3984  -23.4236  -41.6973 H         1 UNK         0.0600 
    148 H148        1.5512  -21.7407  -42.1812 H         1 UNK         0.0600 
    149 H149       -0.6308  -20.6404  -42.7360 H         1 UNK         0.3000 
    150 H150       -3.5259  -20.1008  -44.7835 H         1 UNK         0.0600 
    151 H151       -4.3247  -20.3033  -42.4184 H         1 UNK         0.0600 
    152 H152       -4.0812  -18.6266  -42.8830 H         1 UNK         0.0600 
    153 H153       -2.8988  -19.4370  -41.8582 H         1 UNK         0.0600 
    154 H154       -1.6902  -18.2472  -43.6899 H         1 UNK         0.3000 
    155 H155        0.7764  -18.4148  -46.2984 H         1 UNK         0.0600 
    156 H156        0.2742  -16.0006  -46.3845 H         1 UNK         0.0600 
    157 H157       -0.9950  -16.9184  -47.1818 H         1 UNK         0.0600 
    158 H158       -1.2714  -16.2619  -45.5763 H         1 UNK         0.0600 
    159 H159        0.6838  -16.7357  -44.0423 H         1 UNK         0.3000 
    160 H160        2.1961  -18.9513  -41.6621 H         1 UNK         0.0600 
    161 H161        3.1551  -16.4558  -43.1619 H         1 UNK         0.0600 
    162 H162        4.0447  -17.9573  -42.9629 H         1 UNK         0.0600 
    163 H163        3.7014  -16.9550  -41.5609 H         1 UNK         0.0600 
    164 H164        1.1361  -16.2365  -41.6844 H         1 UNK         0.3000 
    165 H165       -2.0301  -17.1076  -40.3087 H         1 UNK         0.0600 
    166 H166       -1.3110  -15.5173  -38.5491 H         1 UNK         0.0600 
    167 H167       -0.5049  -17.0623  -38.3307 H         1 UNK         0.0600 
    168 H168        0.3772  -15.7069  -39.0242 H         1 UNK         0.0600 
    169 H169       -0.7817  -14.5986  -40.9185 H         1 UNK         0.3000 
    170 H170       -1.8274  -14.4021  -44.3172 H         1 UNK         0.0600 
    171 H171       -3.8852  -13.8288  -43.0176 H         1 UNK         0.0600 
    172 H172       -2.9061  -12.9519  -41.8465 H         1 UNK         0.0600 
    173 H173       -3.0059  -12.3922  -43.5165 H         1 UNK         0.0600 
    174 H174       -0.6327  -12.3915  -42.8439 H         1 UNK         0.3000 
    175 H175        1.9058  -12.3963  -42.2670 H         1 UNK         0.0600 
    176 H176        3.5267  -14.0742  -43.0625 H         1 UNK         0.0600 
    177 H177        3.1972  -13.6582  -44.7423 H         1 UNK         0.0600 
    178 H178        3.9752  -12.4917  -43.6750 H         1 UNK         0.0600 
    179 H179        1.8930  -11.5968  -45.0973 H         1 UNK         0.3000 
    180 H180       -0.2641   -8.7802  -44.5017 H         1 UNK         0.0600 
    181 H181        2.6005   -9.2374  -45.4960 H         1 UNK         0.0600 
    182 H182        2.1238   -8.1602  -44.1904 H         1 UNK         0.0600 
    183 H183        1.5956   -7.8297  -45.8328 H         1 UNK         0.0600 
    184 H184        0.7817  -10.2783  -46.8014 H         1 UNK         0.3000 
    185 H185       -2.3001  -11.7461  -47.6561 H         1 UNK         0.0600 
    186 H186       -2.2009  -10.3770  -49.7244 H         1 UNK         0.0600 
    187 H187       -2.8080   -9.4172  -48.3849 H         1 UNK         0.0600 
    188 H188       -1.1483   -9.2056  -48.9291 H         1 UNK         0.0600 
    189 H189        0.1973  -11.2587  -49.0529 H         1 UNK         0.3000 
    190 H190       -1.1161  -21.6301  -46.7575 H         1 UNK         0.3000 
    191 H191       -1.9888  -22.9474  -49.0620 H         1 UNK         0.0600 
    192 H192       -3.5537  -21.7430  -46.7149 H         1 UNK         0.0600 
    193 H193       -4.2804  -22.2195  -48.2391 H         1 UNK         0.0600 
    194 H194       -3.0836  -20.9313  -48.2067 H         1 UNK         0.0600 
    195 H195       -2.3664  -23.9158  -45.6324 H         1 UNK         0.3000 
    196 H196       -3.9400  -26.2386  -46.0829 H         1 UNK         0.0600 
    197 H197       -3.2307  -26.8532  -43.7765 H         1 UNK         0.0600 
    198 H198       -3.7048  -25.1630  -43.8594 H         1 UNK         0.0600 
    199 H199       -1.9989  -25.5985  -43.7990 H         1 UNK         0.0600 
    200 H200       -0.3892  -25.7703  -46.0139 H         1 UNK         0.3000 
    201 H201        0.2826  -28.5429  -46.3894 H         1 UNK         0.0600 
    202 H202        1.8602  -26.9163  -45.3860 H         1 UNK         0.0600 
    203 H203        1.9227  -26.0030  -46.8902 H         1 UNK         0.0600 
    204 H204        2.5605  -27.6408  -46.8262 H         1 UNK         0.0600 
    205 H205       -0.0562  -25.7639  -48.6350 H         1 UNK         0.3000 
    206 H206        0.6463  -27.1786  -51.0153 H         1 UNK         0.0600 
    207 H207        0.7943  -24.7069  -50.7873 H         1 UNK         0.0600 
    208 H208       -0.2512  -25.1299  -52.1344 H         1 UNK         0.0600 
    209 H209       -0.9568  -24.5941  -50.6152 H         1 UNK         0.0600 
    210 H210       -2.3621  -26.8811  -49.2763 H         1 UNK         0.3000 
    211 H211       -4.3842  -27.7157  -49.4280 H         1 UNK         0.0600 
    212 H212       -3.4604  -29.5535  -51.6982 H         1 UNK         0.0600 
    213 H213       -4.9120  -29.7298  -50.7247 H         1 UNK         0.0600 
    214 H214       -3.3341  -29.9247  -49.9788 H         1 UNK         0.0600 
    215 H215       -3.7771  -25.2940  -50.6239 H         1 UNK         0.3000 
    216 H216       -6.0889  -24.8854  -52.3035 H         1 UNK         0.0600 
    217 H217       -3.2794  -24.2812  -53.4142 H         1 UNK         0.0600 
    218 H218       -4.7908  -23.7404  -54.1352 H         1 UNK         0.0600 
    219 H219       -4.4113  -25.4562  -54.0831 H         1 UNK         0.0600 
    220 H220       -6.8068  -22.7624  -52.0033 H         1 UNK         0.3000 
    221 H221       -5.9095  -21.3698  -49.6978 H         1 UNK         0.0600 
    222 H222       -8.2592  -21.3236  -50.4795 H         1 UNK         0.0600 
    223 H223       -7.7848  -20.4913  -51.9592 H         1 UNK         0.0600 
    224 H224       -7.6247  -19.6882  -50.4029 H         1 UNK         0.0600 
    225 H225       -4.6020  -19.6114  -49.4147 H         1 UNK         0.3000 
    226 H226       -2.5398  -19.0065  -51.1783 H         1 UNK         0.0600 
    227 H227       -2.3568  -18.6366  -48.7704 H         1 UNK         0.0600 
    228 H228       -2.0867  -17.1098  -49.5893 H         1 UNK         0.0600 
    229 H229       -3.6293  -17.4137  -48.8044 H         1 UNK         0.0600 
    230 H230       -5.6212  -17.3037  -50.7330 H         1 UNK         0.3000 
    231 H231       -5.0499  -15.0865  -52.4766 H         1 UNK         0.0600 
    232 H232       -7.7066  -16.2189  -51.4426 H         1 UNK         0.0600 
    233 H233       -7.4944  -14.6507  -52.2115 H         1 UNK         0.0600 
    234 H234       -6.7397  -14.9685  -50.6583 H         1 UNK         0.0600 
    235 H235       -5.9865  -18.3936  -53.1070 H         1 UNK         0.3000 
    236 H236       -7.1286  -17.7916  -55.7717 H         1 UNK         0.0600 
    237 H237       -8.2671  -19.4951  -54.3556 H         1 UNK         0.0600 
    238 H238       -7.6315  -20.1960  -55.8354 H         1 UNK         0.0600 
    239 H239       -6.7955  -20.4652  -54.3153 H         1 UNK         0.0600 
    240 H240       -4.3628  -19.5739  -54.2477 H         1 UNK         0.3000 
    241 H241       -3.1619  -20.0864  -56.8339 H         1 UNK         0.0600 
    242 H242       -1.4659  -16.6415  -55.4944 H         1 UNK         0.3800 
    243 H243       -2.7046  -17.3827  -54.5179 H         1 UNK         0.3800 
    244 H244       -1.4005  -21.2485  -55.6951 H         1 UNK         0.0800 
    245 H245       -2.9396  -21.7408  -55.0683 H         1 UNK         0.0800 
    246 H246        0.5152  -21.1173  -54.1393 H         1 UNK         0.0800 
    247 H247        0.1860  -19.4189  -54.3682 H         1 UNK         0.0800 
@<TRIPOS>BOND
     1    1    2 1    
     2    1  127 1    
     3    1  128 1    
     4    1  129 1    
     5    2    3 2    
     6    2    4 am   BACKBONE|DICT|INTERRES
     7    4    5 1    
     8    4  130 1    
     9    5    6 1    
    10    5   65 1    
    11    5  131 1    
    12    6    7 1    
    13    6  132 1    
    14    6  133 1    
    15    7    8 1    
    16    8    9 1    
    17    8  134 1    
    18    8  135 1    
    19    9   10 ar   
    20    9   14 ar   
    21   10   11 ar   
    22   10  136 1    
    23   11   12 ar   
    24   11  126 1    
    25   12   13 ar   
    26   12  137 1    
    27   13   14 ar   
    28   13   15 1    
    29   14  138 1    
    30   15   16 1    
    31   15  139 1    
    32   15  140 1    
    33   16   17 1    
    34   17   18 1    
    35   17  141 1    
    36   17  142 1    
    37   18   19 1    
    38   18   67 1    
    39   18  143 1    
    40   19   20 am   BACKBONE|DICT|INTERRES
    41   19  144 1    
    42   20   21 2    
    43   20   22 1    
    44   22   23 1    
    45   22   24 1    
    46   22  145 1    
    47   23  146 1    
    48   23  147 1    
    49   23  148 1    
    50   24   25 am   BACKBONE|DICT|INTERRES
    51   24  149 1    
    52   25   26 2    
    53   25   27 1    
    54   27   28 1    
    55   27   29 1    
    56   27  150 1    
    57   28  151 1    
    58   28  152 1    
    59   28  153 1    
    60   29   30 am   BACKBONE|DICT|INTERRES
    61   29  154 1    
    62   30   31 2    
    63   30   32 1    
    64   32   33 1    
    65   32   34 1    
    66   32  155 1    
    67   33  156 1    
    68   33  157 1    
    69   33  158 1    
    70   34   35 am   BACKBONE|DICT|INTERRES
    71   34  159 1    
    72   35   36 2    
    73   35   37 1    
    74   37   38 1    
    75   37   39 1    
    76   37  160 1    
    77   38  161 1    
    78   38  162 1    
    79   38  163 1    
    80   39   40 am   BACKBONE|DICT|INTERRES
    81   39  164 1    
    82   40   41 2    
    83   40   42 1    
    84   42   43 1    
    85   42   44 1    
    86   42  165 1    
    87   43  166 1    
    88   43  167 1    
    89   43  168 1    
    90   44   45 am   BACKBONE|DICT|INTERRES
    91   44  169 1    
    92   45   46 2    
    93   45   47 1    
    94   47   48 1    
    95   47   49 1    
    96   47  170 1    
    97   48  171 1    
    98   48  172 1    
    99   48  173 1    
   100   49   50 am   BACKBONE|DICT|INTERRES
   101   49  174 1    
   102   50   51 2    
   103   50   52 1    
   104   52   53 1    
   105   52   54 1    
   106   52  175 1    
   107   53  176 1    
   108   53  177 1    
   109   53  178 1    
   110   54   55 am   BACKBONE|DICT|INTERRES
   111   54  179 1    
   112   55   56 2    
   113   55   57 1    
   114   57   58 1    
   115   57   59 1    
   116   57  180 1    
   117   58  181 1    
   118   58  182 1    
   119   58  183 1    
   120   59   60 am   BACKBONE|DICT|INTERRES
   121   59  184 1    
   122   60   61 2    
   123   60   62 1    
   124   62   63 1    
   125   62   64 1    
   126   62  185 1    
   127   63  186 1    
   128   63  187 1    
   129   63  188 1    
   130   64   65 am   BACKBONE|DICT|INTERRES
   131   64  189 1    
   132   65   66 2    
   133   67   68 2    
   134   67   69 am   BACKBONE|DICT|INTERRES
   135   69   70 1    
   136   69  190 1    
   137   70   71 1    
   138   70   72 1    
   139   70  191 1    
   140   71  192 1    
   141   71  193 1    
   142   71  194 1    
   143   72   73 2    
   144   72   74 am   BACKBONE|DICT|INTERRES
   145   74   75 1    
   146   74  195 1    
   147   75   76 1    
   148   75   77 1    
   149   75  196 1    
   150   76  197 1    
   151   76  198 1    
   152   76  199 1    
   153   77   78 2    
   154   77   79 am   BACKBONE|DICT|INTERRES
   155   79   80 1    
   156   79  200 1    
   157   80   81 1    
   158   80   82 1    
   159   80  201 1    
   160   81  202 1    
   161   81  203 1    
   162   81  204 1    
   163   82   83 2    
   164   82   84 am   BACKBONE|DICT|INTERRES
   165   84   85 1    
   166   84  205 1    
   167   85   86 1    
   168   85   87 1    
   169   85  206 1    
   170   86  207 1    
   171   86  208 1    
   172   86  209 1    
   173   87   88 2    
   174   87   89 am   BACKBONE|DICT|INTERRES
   175   89   90 1    
   176   89  210 1    
   177   90   91 1    
   178   90   92 1    
   179   90  211 1    
   180   91  212 1    
   181   91  213 1    
   182   91  214 1    
   183   92   93 2    
   184   92   94 am   BACKBONE|DICT|INTERRES
   185   94   95 1    
   186   94  215 1    
   187   95   96 1    
   188   95   97 1    
   189   95  216 1    
   190   96  217 1    
   191   96  218 1    
   192   96  219 1    
   193   97   98 2    
   194   97   99 am   BACKBONE|DICT|INTERRES
   195   99  100 1    
   196   99  220 1    
   197  100  101 1    
   198  100  102 1    
   199  100  221 1    
   200  101  222 1    
   201  101  223 1    
   202  101  224 1    
   203  102  103 2    
   204  102  104 am   BACKBONE|DICT|INTERRES
   205  104  105 1    
   206  104  225 1    
   207  105  106 1    
   208  105  107 1    
   209  105  226 1    
   210  106  227 1    
   211  106  228 1    
   212  106  229 1    
   213  107  108 2    
   214  107  109 am   BACKBONE|DICT|INTERRES
   215  109  110 1    
   216  109  230 1    
   217  110  111 1    
   218  110  112 1    
   219  110  231 1    
   220  111  232 1    
   221  111  233 1    
   222  111  234 1    
   223  112  113 2    
   224  112  114 am   BACKBONE|DICT|INTERRES
   225  114  115 1    
   226  114  235 1    
   227  115  116 1    
   228  115  117 1    
   229  115  236 1    
   230  116  237 1    
   231  116  238 1    
   232  116  239 1    
   233  117  118 2    
   234  117  119 am   BACKBONE|DICT|INTERRES
   235  119  120 1    
   236  119  240 1    
   237  120  121 1    
   238  120  124 1    
   239  120  241 1    
   240  121  122 am   BACKBONE|DICT|INTERRES
   241  121  123 2    
   242  122  242 1    
   243  122  243 1    
   244  124  125 1    
   245  124  244 1    
   246  124  245 1    
   247  125  126 1    
   248  126  246 1    
   249  126  247 1    
@<TRIPOS>SUBSTRUCTURE
     1 UNK         1 GROUP             0       ****    0 ROOT    
