@<TRIPOS>MOLECULE
3R540
247   249    1
SMALL
USER_CHARGES


@<TRIPOS>ATOM
      1 CA          2.1767  -14.7099  -52.9422 C.3       0 UNK        -0.1800 
      2 C           1.6967  -14.3462  -51.5441 C.2       0 UNK         0.5000 
      3 O           1.0788  -13.2970  -51.3611 O.2       0 UNK        -0.5000 
      4 N           1.9836  -15.2075  -50.5609 N.am      1 UNK        -0.5000 
      5 CA          1.4902  -15.1062  -49.1844 C.3       1 UNK         0.1400 
      6 C6          2.4113  -15.8776  -48.2015 C.3       23 UNK        -0.0398 
      7 S7          2.2533  -17.6936  -48.2363 S.3       23 UNK        -0.2404 
      8 C8          3.4629  -18.2199  -49.4819 C.3       23 UNK        -0.0205 
      9 C9          2.9473  -19.4775  -50.1587 C.ar      23 UNK        -0.0193 
     10 C10         1.9487  -19.3748  -51.1290 C.ar      23 UNK        -0.1150 
     11 C11         1.4024  -20.5222  -51.7029 C.ar      23 UNK        -0.0193 
     12 C12         1.8705  -21.7785  -51.3092 C.ar      23 UNK        -0.1150 
     13 C13         2.8717  -21.9044  -50.3403 C.ar      23 UNK        -0.0193 
     14 C14         3.4137  -20.7390  -49.7764 C.ar      23 UNK        -0.1150 
     15 C15         3.3030  -23.3206  -49.9405 C.3       23 UNK        -0.0205 
     16 S16         4.5449  -23.4579  -48.6072 S.3       23 UNK        -0.2404 
     17 C17         3.6055  -22.8610  -47.1611 C.3       23 UNK        -0.0398 
     18 CA          3.4535  -23.9108  -46.0293 C.3       11 UNK         0.1400 
     19 N           3.3913  -23.2481  -44.7217 N.am      11 UNK        -0.5000 
     20 C           3.6919  -23.8088  -43.5436 C.2       10 UNK         0.5000 
     21 O           4.1018  -24.9630  -43.4195 O.2       10 UNK        -0.5000 
     22 CA          3.4577  -22.9414  -42.2909 C.3       10 UNK         0.1400 
     23 CB          4.6619  -22.0229  -42.0340 C.3       10 UNK        -0.1800 
     24 N           2.2381  -22.1305  -42.3638 N.am      10 UNK        -0.5000 
     25 C           0.9917  -22.6219  -42.4312 C.2       9 UNK         0.5000 
     26 O           0.7300  -23.8240  -42.4572 O.2       9 UNK        -0.5000 
     27 CA         -0.1528  -21.5994  -42.5367 C.3       9 UNK         0.1400 
     28 CB         -0.4556  -20.9588  -41.1735 C.3       9 UNK        -0.1800 
     29 N           0.1530  -20.5580  -43.5139 N.am      9 UNK        -0.5000 
     30 C           0.1346  -20.7444  -44.8408 C.2       8 UNK         0.5000 
     31 O          -0.2105  -21.7972  -45.3797 O.2       8 UNK        -0.5000 
     32 CA          0.6275  -19.5707  -45.7063 C.3       8 UNK         0.1400 
     33 CB         -0.5267  -18.6220  -46.0573 C.3       8 UNK        -0.1800 
     34 N           1.7019  -18.8051  -45.0710 N.am      8 UNK        -0.5000 
     35 C           2.9251  -19.2925  -44.8253 C.2       7 UNK         0.5000 
     36 O           3.2579  -20.4513  -45.0597 O.2       7 UNK        -0.5000 
     37 CA          3.9272  -18.3420  -44.1526 C.3       7 UNK         0.1400 
     38 CB          4.5732  -17.4115  -45.1899 C.3       7 UNK        -0.1800 
     39 N           3.3355  -17.5422  -43.0782 N.am      7 UNK        -0.5000 
     40 C           2.7719  -18.0409  -41.9682 C.2       6 UNK         0.5000 
     41 O           2.5968  -19.2424  -41.7629 O.2       6 UNK        -0.5000 
     42 CA          2.2741  -17.0107  -40.9512 C.3       6 UNK         0.1400 
     43 CB          3.3963  -16.0349  -40.5342 C.3       6 UNK        -0.1800 
     44 N           1.1318  -16.3162  -41.5379 N.am      6 UNK        -0.5000 
     45 C           0.3236  -15.4550  -40.9104 C.2       5 UNK         0.5000 
     46 O           0.4815  -15.0715  -39.7506 O.2       5 UNK        -0.5000 
     47 CA         -0.8934  -14.9628  -41.7152 C.3       5 UNK         0.1400 
     48 CB         -0.4950  -13.8211  -42.6629 C.3       5 UNK        -0.1800 
     49 N          -1.5606  -16.0166  -42.4861 N.am      5 UNK        -0.5000 
     50 C          -2.1525  -17.1005  -41.9577 C.2       4 UNK         0.5000 
     51 O          -2.0961  -17.3922  -40.7622 O.2       4 UNK        -0.5000 
     52 CA         -2.9587  -17.9966  -42.9261 C.3       4 UNK         0.1400 
     53 CB         -4.0492  -18.8214  -42.2111 C.3       4 UNK        -0.1800 
     54 N          -3.5399  -17.2737  -44.0652 N.am      4 UNK        -0.5000 
     55 C          -4.3709  -16.2217  -44.0199 C.2       3 UNK         0.5000 
     56 O          -4.7479  -15.6946  -42.9717 O.2       3 UNK        -0.5000 
     57 CA         -4.8762  -15.6743  -45.3713 C.3       3 UNK         0.1400 
     58 CB         -5.3668  -14.2149  -45.2687 C.3       3 UNK        -0.1800 
     59 N          -3.9407  -15.7957  -46.4962 N.am      3 UNK        -0.5000 
     60 C          -2.7050  -15.2858  -46.5988 C.2       2 UNK         0.5000 
     61 O          -2.0347  -14.8564  -45.6564 O.2       2 UNK        -0.5000 
     62 CA         -2.1826  -15.1687  -48.0366 C.3       2 UNK         0.1400 
     63 CB         -2.7905  -13.9309  -48.7207 C.3       2 UNK        -0.1800 
     64 N          -0.7270  -15.0595  -48.0957 N.am      2 UNK        -0.5000 
     65 C          -0.0013  -15.5204  -49.1220 C.2       1 UNK         0.5000 
     66 O          -0.4762  -16.2278  -50.0164 O.2       1 UNK        -0.5000 
     67 C           2.2517  -24.8574  -46.2743 C.2       11 UNK         0.5000 
     68 O           2.2587  -25.5966  -47.2588 O.2       11 UNK        -0.5000 
     69 N           1.2453  -24.8211  -45.3843 N.am      12 UNK        -0.5000 
     70 CA         -0.0020  -25.5948  -45.4055 C.3       12 UNK         0.1400 
     71 CB          0.2790  -27.1031  -45.2436 C.3       12 UNK        -0.1800 
     72 C          -0.9022  -25.2715  -46.6173 C.2       12 UNK         0.5000 
     73 O          -1.6582  -26.1298  -47.0759 O.2       12 UNK        -0.5000 
     74 N          -0.8155  -24.0266  -47.0999 N.am      13 UNK        -0.5000 
     75 CA         -1.6288  -23.4812  -48.1853 C.3       13 UNK         0.1400 
     76 CB         -0.7507  -22.5338  -49.0129 C.3       13 UNK        -0.1800 
     77 C          -2.8941  -22.7725  -47.6605 C.2       13 UNK         0.5000 
     78 O          -3.8068  -22.5128  -48.4467 O.2       13 UNK        -0.5000 
     79 N          -2.9336  -22.4947  -46.3467 N.am      14 UNK        -0.5000 
     80 CA         -4.0317  -21.9051  -45.5781 C.3       14 UNK         0.1400 
     81 CB         -5.2324  -22.8737  -45.5083 C.3       14 UNK        -0.1800 
     82 C          -4.3906  -20.5017  -46.0942 C.2       14 UNK         0.5000 
     83 O          -3.6709  -19.5523  -45.7901 O.2       14 UNK        -0.5000 
     84 N          -5.4711  -20.3864  -46.8767 N.am      15 UNK        -0.5000 
     85 CA         -5.8703  -19.1486  -47.5463 C.3       15 UNK         0.1400 
     86 CB         -7.2524  -19.3374  -48.1838 C.3       15 UNK        -0.1800 
     87 C          -4.8482  -18.6800  -48.5984 C.2       15 UNK         0.5000 
     88 O          -4.6809  -17.4706  -48.7717 O.2       15 UNK        -0.5000 
     89 N          -4.1719  -19.6405  -49.2490 N.am      16 UNK        -0.5000 
     90 CA         -3.1119  -19.4591  -50.2417 C.3       16 UNK         0.1400 
     91 CB         -1.8008  -19.0733  -49.5312 C.3       16 UNK        -0.1800 
     92 C          -3.5418  -18.5022  -51.3716 C.2       16 UNK         0.5000 
     93 O          -4.5418  -18.7850  -52.0370 O.2       16 UNK        -0.5000 
     94 N          -2.8322  -17.3799  -51.5583 N.am      17 UNK        -0.5000 
     95 CA         -3.1214  -16.3899  -52.5982 C.3       17 UNK         0.1400 
     96 CB         -1.9604  -15.3901  -52.7006 C.3       17 UNK        -0.1800 
     97 C          -4.4719  -15.6575  -52.4417 C.2       17 UNK         0.5000 
     98 O          -4.9466  -15.0969  -53.4294 O.2       17 UNK        -0.5000 
     99 N          -5.0983  -15.6987  -51.2524 N.am      18 UNK        -0.5000 
    100 CA        -6.4448  -15.1528  -51.0311 C.3       18 UNK         0.1400 
    101 CB        -6.7475  -15.0538  -49.5271 C.3       18 UNK        -0.1800 
    102 C         -7.5422  -15.9774  -51.7313 C.2       18 UNK         0.5000 
    103 O         -8.5466  -15.4087  -52.1603 O.2       18 UNK        -0.5000 
    104 N         -7.3238  -17.2944  -51.8416 N.am      19 UNK        -0.5000 
    105 CA        -8.2154  -18.2368  -52.5220 C.3       19 UNK         0.1400 
    106 CB        -8.3197  -19.5070  -51.6623 C.3       19 UNK        -0.1800 
    107 C         -7.7217  -18.5921  -53.9374 C.2       19 UNK         0.5000 
    108 O         -8.4173  -19.3169  -54.6496 O.2       19 UNK        -0.5000 
    109 N         -6.5193  -18.1167  -54.2991 N.am      20 UNK        -0.5000 
    110 CA        -5.7218  -18.5036  -55.4690 C.3       20 UNK         0.1400 
    111 CB        -6.4117  -18.0876  -56.7842 C.3       20 UNK        -0.1800 
    112 C         -5.3225  -19.9962  -55.4360 C.2       20 UNK         0.5000 
    113 O         -5.1645  -20.6265  -56.4834 O.2       20 UNK        -0.5000 
    114 N         -5.1460  -20.5353  -54.2223 N.am      21 UNK        -0.5000 
    115 CA        -4.7942  -21.9229  -53.9326 C.3       21 UNK         0.1400 
    116 CB        -5.3455  -22.2847  -52.5407 C.3       21 UNK        -0.1800 
    117 C         -3.2724  -22.1290  -54.0465 C.2       21 UNK         0.5000 
    118 O         -2.6192  -22.4915  -53.0675 O.2       21 UNK        -0.5000 
    119 N         -2.7362  -21.8482  -55.2383 N.am      22 UNK        -0.5000 
    120 CA        -1.2999  -21.8491  -55.5512 C.3       22 UNK         0.1400 
    121 C         -0.9682  -22.4554  -56.9465 C.2       22 UNK         0.5000 
    122 N         -1.9051  -23.1054  -57.6274 N.am      22 UNK        -0.7600 
    123 O          0.1596  -22.3521  -57.4205 O.2       22 UNK        -0.5000 
    124 C124       -0.6799  -20.4380  -55.3263 C.3       23 UNK        -0.0398 
    125 S125        0.8999  -20.5026  -54.4200 S.3       23 UNK        -0.2404 
    126 C126        0.2781  -20.4057  -52.7154 C.3       23 UNK        -0.0205 
    127 H127        2.6870  -15.6735  -52.9582 H         1 UNK         0.0600 
    128 H128        2.8674  -13.9520  -53.3117 H         1 UNK         0.0600 
    129 H129        1.3296  -14.7639  -53.6261 H         1 UNK         0.0600 
    130 H130        2.4469  -16.0732  -50.7875 H         1 UNK         0.3000 
    131 H131        1.5370  -14.0525  -48.9004 H         1 UNK         0.0600 
    132 H132        2.1869  -15.5603  -47.1823 H         1 UNK         0.0800 
    133 H133        3.4549  -15.6042  -48.3639 H         1 UNK         0.0800 
    134 H134        4.4258  -18.3976  -49.0009 H         1 UNK         0.0800 
    135 H135        3.6241  -17.4409  -50.2264 H         1 UNK         0.0800 
    136 H136        1.5717  -18.4013  -51.4108 H         1 UNK         0.1150 
    137 H137        1.4383  -22.6658  -51.7508 H         1 UNK         0.1150 
    138 H138        4.1821  -20.7966  -49.0207 H         1 UNK         0.1150 
    139 H139        2.4223  -23.8941  -49.6473 H         1 UNK         0.0800 
    140 H140        3.7085  -23.8147  -50.8243 H         1 UNK         0.0800 
    141 H141        4.1831  -22.0109  -46.7993 H         1 UNK         0.0800 
    142 H142        2.6382  -22.4511  -47.4589 H         1 UNK         0.0800 
    143 H143        4.3482  -24.5371  -46.0259 H         1 UNK         0.0600 
    144 H144        3.1352  -22.2627  -44.7356 H         1 UNK         0.3000 
    145 H145        3.3562  -23.6149  -41.4375 H         1 UNK         0.0600 
    146 H146        4.5339  -21.4530  -41.1135 H         1 UNK         0.0600 
    147 H147        4.8069  -21.3131  -42.8487 H         1 UNK         0.0600 
    148 H148        5.5809  -22.6017  -41.9344 H         1 UNK         0.0600 
    149 H149        2.3631  -21.1235  -42.3210 H         1 UNK         0.3000 
    150 H150       -1.0495  -22.1298  -42.8650 H         1 UNK         0.0600 
    151 H151       -0.7220  -21.7189  -40.4382 H         1 UNK         0.0600 
    152 H152       -1.2933  -20.2655  -41.2407 H         1 UNK         0.0600 
    153 H153        0.3998  -20.4096  -40.7801 H         1 UNK         0.0600 
    154 H154        0.5271  -19.6932  -43.1537 H         1 UNK         0.3000 
    155 H155        1.0155  -19.9934  -46.6358 H         1 UNK         0.0600 
    156 H156       -1.3216  -19.1635  -46.5657 H         1 UNK         0.0600 
    157 H157       -0.2073  -17.8274  -46.7298 H         1 UNK         0.0600 
    158 H158       -0.9513  -18.1510  -45.1728 H         1 UNK         0.0600 
    159 H159        1.5187  -17.8349  -44.8693 H         1 UNK         0.3000 
    160 H160        4.7149  -18.9563  -43.7120 H         1 UNK         0.0600 
    161 H161        3.8497  -16.7144  -45.6125 H         1 UNK         0.0600 
    162 H162        4.9998  -17.9818  -46.0164 H         1 UNK         0.0600 
    163 H163        5.3810  -16.8287  -44.7472 H         1 UNK         0.0600 
    164 H164        3.4303  -16.5405  -43.1612 H         1 UNK         0.3000 
    165 H165        1.9341  -17.5547  -40.0675 H         1 UNK         0.0600 
    166 H166        3.1053  -15.4392  -39.6694 H         1 UNK         0.0600 
    167 H167        4.3012  -16.5759  -40.2542 H         1 UNK         0.0600 
    168 H168        3.6585  -15.3447  -41.3364 H         1 UNK         0.0600 
    169 H169        0.8938  -16.5834  -42.4813 H         1 UNK         0.3000 
    170 H170       -1.6210  -14.5707  -41.0015 H         1 UNK         0.0600 
    171 H171       -0.0061  -13.0121  -42.1186 H         1 UNK         0.0600 
    172 H172        0.1932  -14.1607  -43.4379 H         1 UNK         0.0600 
    173 H173       -1.3697  -13.3976  -43.1573 H         1 UNK         0.0600 
    174 H174       -1.6965  -15.8323  -43.4722 H         1 UNK         0.3000 
    175 H175       -2.2455  -18.7077  -43.3425 H         1 UNK         0.0600 
    176 H176       -4.7840  -18.1808  -41.7227 H         1 UNK         0.0600 
    177 H177       -4.5792  -19.4639  -42.9142 H         1 UNK         0.0600 
    178 H178       -3.6194  -19.4683  -41.4460 H         1 UNK         0.0600 
    179 H179       -3.3543  -17.6911  -44.9712 H         1 UNK         0.3000 
    180 H180       -5.7404  -16.2863  -45.6306 H         1 UNK         0.0600 
    181 H181       -5.7555  -13.8617  -46.2240 H         1 UNK         0.0600 
    182 H182       -4.5639  -13.5425  -44.9643 H         1 UNK         0.0600 
    183 H183       -6.1719  -14.1176  -44.5395 H         1 UNK         0.0600 
    184 H184       -4.3389  -16.2047  -47.3371 H         1 UNK         0.3000 
    185 H185       -2.5127  -16.0563  -48.5740 H         1 UNK         0.0600 
    186 H186       -2.4538  -13.0080  -48.2470 H         1 UNK         0.0600 
    187 H187       -2.5179  -13.8826  -49.7737 H         1 UNK         0.0600 
    188 H188       -3.8771  -13.9415  -48.6708 H         1 UNK         0.0600 
    189 H189       -0.2996  -14.5406  -47.3404 H         1 UNK         0.3000 
    190 H190        1.3408  -24.1941  -44.5957 H         1 UNK         0.3000 
    191 H191       -0.5643  -25.2743  -44.5275 H         1 UNK         0.0600 
    192 H192       -0.6471  -27.6600  -45.0973 H         1 UNK         0.0600 
    193 H193        0.9111  -27.2944  -44.3764 H         1 UNK         0.0600 
    194 H194        0.7750  -27.5208  -46.1200 H         1 UNK         0.0600 
    195 H195       -0.2217  -23.3643  -46.6115 H         1 UNK         0.3000 
    196 H196       -1.9606  -24.2882  -48.8417 H         1 UNK         0.0600 
    197 H197       -0.3227  -21.7395  -48.4008 H         1 UNK         0.0600 
    198 H198       -1.3165  -22.0749  -49.8241 H         1 UNK         0.0600 
    199 H199        0.0750  -23.0791  -49.4678 H         1 UNK         0.0600 
    200 H200       -2.0775  -22.6448  -45.8269 H         1 UNK         0.3000 
    201 H201       -3.6593  -21.7692  -44.5615 H         1 UNK         0.0600 
    202 H202       -5.6251  -23.1257  -46.4937 H         1 UNK         0.0600 
    203 H203       -6.0483  -22.4451  -44.9248 H         1 UNK         0.0600 
    204 H204       -4.9473  -23.8071  -45.0229 H         1 UNK         0.0600 
    205 H205       -5.9932  -21.2203  -47.1030 H         1 UNK         0.3000 
    206 H206       -5.9478  -18.3662  -46.7901 H         1 UNK         0.0600 
    207 H207       -8.0058  -19.5674  -47.4304 H         1 UNK         0.0600 
    208 H208       -7.5740  -18.4304  -48.6974 H         1 UNK         0.0600 
    209 H209       -7.2486  -20.1486  -48.9126 H         1 UNK         0.0600 
    210 H210       -4.3682  -20.6058  -49.0059 H         1 UNK         0.3000 
    211 H211       -2.9579  -20.4296  -50.7152 H         1 UNK         0.0600 
    212 H212       -1.8990  -18.1492  -48.9677 H         1 UNK         0.0600 
    213 H213       -0.9743  -18.9602  -50.2327 H         1 UNK         0.0600 
    214 H214       -1.5119  -19.8401  -48.8174 H         1 UNK         0.0600 
    215 H215       -2.0394  -17.1770  -50.9556 H         1 UNK         0.3000 
    216 H216       -3.1684  -16.9297  -53.5462 H         1 UNK         0.0600 
    217 H217       -2.1068  -14.7033  -53.5350 H         1 UNK         0.0600 
    218 H218       -1.0117  -15.9016  -52.8642 H         1 UNK         0.0600 
    219 H219       -1.8637  -14.7886  -51.7979 H         1 UNK         0.0600 
    220 H220       -4.6783  -16.2099  -50.4842 H         1 UNK         0.3000 
    221 H221       -6.4731  -14.1425  -51.4449 H         1 UNK         0.0600 
    222 H222       -7.7148  -14.5783  -49.3606 H         1 UNK         0.0600 
    223 H223       -6.7887  -16.0335  -49.0532 H         1 UNK         0.0600 
    224 H224       -6.0063  -14.4541  -49.0044 H         1 UNK         0.0600 
    225 H225       -6.4568  -17.6756  -51.4844 H         1 UNK         0.3000 
    226 H226       -9.2163  -17.8129  -52.6250 H         1 UNK         0.0600 
    227 H227       -8.7819  -19.2881  -50.7005 H         1 UNK         0.0600 
    228 H228       -8.9366  -20.2652  -52.1465 H         1 UNK         0.0600 
    229 H229       -7.3398  -19.9492  -51.4771 H         1 UNK         0.0600 
    230 H230       -6.0450  -17.5290  -53.6294 H         1 UNK         0.3000 
    231 H231       -4.7895  -17.9421  -55.3969 H         1 UNK         0.0600 
    232 H232       -5.7461  -18.2327  -57.6358 H         1 UNK         0.0600 
    233 H233       -6.6898  -17.0339  -56.7668 H         1 UNK         0.0600 
    234 H234       -7.3132  -18.6704  -56.9744 H         1 UNK         0.0600 
    235 H235       -5.1864  -19.9156  -53.4178 H         1 UNK         0.3000 
    236 H236       -5.2723  -22.5780  -54.6638 H         1 UNK         0.0600 
    237 H237       -4.9223  -21.6520  -51.7597 H         1 UNK         0.0600 
    238 H238       -6.4295  -22.1744  -52.5075 H         1 UNK         0.0600 
    239 H239       -5.1174  -23.3201  -52.2850 H         1 UNK         0.0600 
    240 H240       -3.3558  -21.5275  -55.9750 H         1 UNK         0.3000 
    241 H241       -0.8269  -22.5496  -54.8605 H         1 UNK         0.0600 
    242 H242       -1.6759  -23.4974  -58.5278 H         1 UNK         0.3800 
    243 H243       -2.8272  -23.2442  -57.2459 H         1 UNK         0.3800 
    244 H244       -1.3607  -19.7952  -54.7658 H         1 UNK         0.0800 
    245 H245       -0.5194  -19.9159  -56.2712 H         1 UNK         0.0800 
    246 H246       -0.4435  -21.2038  -52.5422 H         1 UNK         0.0800 
    247 H247       -0.2606  -19.4667  -52.5787 H         1 UNK         0.0800 
@<TRIPOS>BOND
     1    1    2 1    
     2    1  127 1    
     3    1  128 1    
     4    1  129 1    
     5    2    3 2    
     6    2    4 am   BACKBONE|DICT|INTERRES
     7    4    5 1    
     8    4  130 1    
     9    5    6 1    
    10    5   65 1    
    11    5  131 1    
    12    6    7 1    
    13    6  132 1    
    14    6  133 1    
    15    7    8 1    
    16    8    9 1    
    17    8  134 1    
    18    8  135 1    
    19    9   10 ar   
    20    9   14 ar   
    21   10   11 ar   
    22   10  136 1    
    23   11   12 ar   
    24   11  126 1    
    25   12   13 ar   
    26   12  137 1    
    27   13   14 ar   
    28   13   15 1    
    29   14  138 1    
    30   15   16 1    
    31   15  139 1    
    32   15  140 1    
    33   16   17 1    
    34   17   18 1    
    35   17  141 1    
    36   17  142 1    
    37   18   19 1    
    38   18   67 1    
    39   18  143 1    
    40   19   20 am   BACKBONE|DICT|INTERRES
    41   19  144 1    
    42   20   21 2    
    43   20   22 1    
    44   22   23 1    
    45   22   24 1    
    46   22  145 1    
    47   23  146 1    
    48   23  147 1    
    49   23  148 1    
    50   24   25 am   BACKBONE|DICT|INTERRES
    51   24  149 1    
    52   25   26 2    
    53   25   27 1    
    54   27   28 1    
    55   27   29 1    
    56   27  150 1    
    57   28  151 1    
    58   28  152 1    
    59   28  153 1    
    60   29   30 am   BACKBONE|DICT|INTERRES
    61   29  154 1    
    62   30   31 2    
    63   30   32 1    
    64   32   33 1    
    65   32   34 1    
    66   32  155 1    
    67   33  156 1    
    68   33  157 1    
    69   33  158 1    
    70   34   35 am   BACKBONE|DICT|INTERRES
    71   34  159 1    
    72   35   36 2    
    73   35   37 1    
    74   37   38 1    
    75   37   39 1    
    76   37  160 1    
    77   38  161 1    
    78   38  162 1    
    79   38  163 1    
    80   39   40 am   BACKBONE|DICT|INTERRES
    81   39  164 1    
    82   40   41 2    
    83   40   42 1    
    84   42   43 1    
    85   42   44 1    
    86   42  165 1    
    87   43  166 1    
    88   43  167 1    
    89   43  168 1    
    90   44   45 am   BACKBONE|DICT|INTERRES
    91   44  169 1    
    92   45   46 2    
    93   45   47 1    
    94   47   48 1    
    95   47   49 1    
    96   47  170 1    
    97   48  171 1    
    98   48  172 1    
    99   48  173 1    
   100   49   50 am   BACKBONE|DICT|INTERRES
   101   49  174 1    
   102   50   51 2    
   103   50   52 1    
   104   52   53 1    
   105   52   54 1    
   106   52  175 1    
   107   53  176 1    
   108   53  177 1    
   109   53  178 1    
   110   54   55 am   BACKBONE|DICT|INTERRES
   111   54  179 1    
   112   55   56 2    
   113   55   57 1    
   114   57   58 1    
   115   57   59 1    
   116   57  180 1    
   117   58  181 1    
   118   58  182 1    
   119   58  183 1    
   120   59   60 am   BACKBONE|DICT|INTERRES
   121   59  184 1    
   122   60   61 2    
   123   60   62 1    
   124   62   63 1    
   125   62   64 1    
   126   62  185 1    
   127   63  186 1    
   128   63  187 1    
   129   63  188 1    
   130   64   65 am   BACKBONE|DICT|INTERRES
   131   64  189 1    
   132   65   66 2    
   133   67   68 2    
   134   67   69 am   BACKBONE|DICT|INTERRES
   135   69   70 1    
   136   69  190 1    
   137   70   71 1    
   138   70   72 1    
   139   70  191 1    
   140   71  192 1    
   141   71  193 1    
   142   71  194 1    
   143   72   73 2    
   144   72   74 am   BACKBONE|DICT|INTERRES
   145   74   75 1    
   146   74  195 1    
   147   75   76 1    
   148   75   77 1    
   149   75  196 1    
   150   76  197 1    
   151   76  198 1    
   152   76  199 1    
   153   77   78 2    
   154   77   79 am   BACKBONE|DICT|INTERRES
   155   79   80 1    
   156   79  200 1    
   157   80   81 1    
   158   80   82 1    
   159   80  201 1    
   160   81  202 1    
   161   81  203 1    
   162   81  204 1    
   163   82   83 2    
   164   82   84 am   BACKBONE|DICT|INTERRES
   165   84   85 1    
   166   84  205 1    
   167   85   86 1    
   168   85   87 1    
   169   85  206 1    
   170   86  207 1    
   171   86  208 1    
   172   86  209 1    
   173   87   88 2    
   174   87   89 am   BACKBONE|DICT|INTERRES
   175   89   90 1    
   176   89  210 1    
   177   90   91 1    
   178   90   92 1    
   179   90  211 1    
   180   91  212 1    
   181   91  213 1    
   182   91  214 1    
   183   92   93 2    
   184   92   94 am   BACKBONE|DICT|INTERRES
   185   94   95 1    
   186   94  215 1    
   187   95   96 1    
   188   95   97 1    
   189   95  216 1    
   190   96  217 1    
   191   96  218 1    
   192   96  219 1    
   193   97   98 2    
   194   97   99 am   BACKBONE|DICT|INTERRES
   195   99  100 1    
   196   99  220 1    
   197  100  101 1    
   198  100  102 1    
   199  100  221 1    
   200  101  222 1    
   201  101  223 1    
   202  101  224 1    
   203  102  103 2    
   204  102  104 am   BACKBONE|DICT|INTERRES
   205  104  105 1    
   206  104  225 1    
   207  105  106 1    
   208  105  107 1    
   209  105  226 1    
   210  106  227 1    
   211  106  228 1    
   212  106  229 1    
   213  107  108 2    
   214  107  109 am   BACKBONE|DICT|INTERRES
   215  109  110 1    
   216  109  230 1    
   217  110  111 1    
   218  110  112 1    
   219  110  231 1    
   220  111  232 1    
   221  111  233 1    
   222  111  234 1    
   223  112  113 2    
   224  112  114 am   BACKBONE|DICT|INTERRES
   225  114  115 1    
   226  114  235 1    
   227  115  116 1    
   228  115  117 1    
   229  115  236 1    
   230  116  237 1    
   231  116  238 1    
   232  116  239 1    
   233  117  118 2    
   234  117  119 am   BACKBONE|DICT|INTERRES
   235  119  120 1    
   236  119  240 1    
   237  120  121 1    
   238  120  124 1    
   239  120  241 1    
   240  121  122 am   BACKBONE|DICT|INTERRES
   241  121  123 2    
   242  122  242 1    
   243  122  243 1    
   244  124  125 1    
   245  124  244 1    
   246  124  245 1    
   247  125  126 1    
   248  126  246 1    
   249  126  247 1    
@<TRIPOS>SUBSTRUCTURE
     1 UNK         1 GROUP             0       ****    0 ROOT    
