@<TRIPOS>MOLECULE
3R540
247   249    1
SMALL
USER_CHARGES


@<TRIPOS>ATOM
      1 CA         -3.2987  -17.3031  -47.8666 C.3       0 UNK        -0.1800 
      2 C          -3.0796  -15.7999  -47.7805 C.2       0 UNK         0.5000 
      3 O          -4.0445  -15.0417  -47.6821 O.2       0 UNK        -0.5000 
      4 N          -1.8145  -15.3684  -47.8336 N.am      1 UNK        -0.5000 
      5 CA         -1.3935  -13.9646  -47.8146 C.3       1 UNK         0.1400 
      6 C6          0.0248  -13.7640  -48.4176 C.3       23 UNK        -0.0398 
      7 S7          0.2369  -14.5861  -50.0347 S.3       23 UNK        -0.2404 
      8 C8          1.4060  -15.9078  -49.5810 C.3       23 UNK        -0.0205 
      9 C9          1.2803  -17.1143  -50.4958 C.ar      23 UNK        -0.0193 
     10 C10         1.6915  -17.0355  -51.8292 C.ar      23 UNK        -0.1150 
     11 C11         1.5694  -18.1405  -52.6763 C.ar      23 UNK        -0.0193 
     12 C12         1.0508  -19.3369  -52.1709 C.ar      23 UNK        -0.1150 
     13 C13         0.6447  -19.4330  -50.8361 C.ar      23 UNK        -0.0193 
     14 C14         0.7645  -18.3171  -50.0034 C.ar      23 UNK        -0.1150 
     15 C15         0.1195  -20.7539  -50.2908 C.3       23 UNK        -0.0205 
     16 S16        -1.6521  -20.6932  -49.8518 S.3       23 UNK        -0.2404 
     17 C17        -1.5503  -20.6027  -48.0363 C.3       23 UNK        -0.0398 
     18 CA         -1.1618  -21.9685  -47.4138 C.3       11 UNK         0.1400 
     19 N          -0.0818  -21.8414  -46.4311 N.am      11 UNK        -0.5000 
     20 C           0.6267  -22.8701  -45.9465 C.2       10 UNK         0.5000 
     21 O           0.4559  -24.0356  -46.2981 O.2       10 UNK        -0.5000 
     22 CA          1.6530  -22.5563  -44.8429 C.3       10 UNK         0.1400 
     23 CB          2.9677  -22.0361  -45.4419 C.3       10 UNK        -0.1800 
     24 N           1.1335  -21.6018  -43.8626 N.am      10 UNK        -0.5000 
     25 C           0.0885  -21.8515  -43.0602 C.2       9 UNK         0.5000 
     26 O          -0.4845  -22.9402  -43.0111 O.2       9 UNK        -0.5000 
     27 CA         -0.4387  -20.6809  -42.2107 C.3       9 UNK         0.1400 
     28 CB          0.3685  -20.5470  -40.9113 C.3       9 UNK        -0.1800 
     29 N          -0.4352  -19.4054  -42.9306 N.am      9 UNK        -0.5000 
     30 C          -1.1604  -19.1436  -44.0283 C.2       8 UNK         0.5000 
     31 O          -1.9448  -19.9433  -44.5366 O.2       8 UNK        -0.5000 
     32 CA         -0.9239  -17.7851  -44.7132 C.3       8 UNK         0.1400 
     33 CB         -1.6618  -16.6598  -43.9749 C.3       8 UNK        -0.1800 
     34 N           0.4988  -17.4639  -44.8283 N.am      8 UNK        -0.5000 
     35 C           1.3815  -18.1894  -45.5302 C.2       7 UNK         0.5000 
     36 O           1.0687  -19.1530  -46.2279 O.2       7 UNK        -0.5000 
     37 CA          2.8644  -17.8138  -45.3845 C.3       7 UNK         0.1400 
     38 CB          3.2511  -16.6961  -46.3639 C.3       7 UNK        -0.1800 
     39 N           3.1782  -17.4084  -44.0149 N.am      7 UNK        -0.5000 
     40 C           3.2973  -18.2604  -42.9873 C.2       6 UNK         0.5000 
     41 O           3.1891  -19.4816  -43.1004 O.2       6 UNK        -0.5000 
     42 CA          3.5468  -17.6448  -41.5965 C.3       6 UNK         0.1400 
     43 CB          5.0454  -17.3856  -41.3825 C.3       6 UNK        -0.1800 
     44 N           2.8052  -16.4008  -41.3797 N.am      6 UNK        -0.5000 
     45 C           1.4707  -16.3265  -41.2834 C.2       5 UNK         0.5000 
     46 O           0.7310  -17.3083  -41.3272 O.2       5 UNK        -0.5000 
     47 CA          0.8494  -14.9199  -41.1679 C.3       5 UNK         0.1400 
     48 CB          0.7559  -14.4947  -39.6952 C.3       5 UNK        -0.1800 
     49 N           1.5338  -13.8695  -41.9313 N.am      5 UNK        -0.5000 
     50 C           1.8312  -13.9215  -43.2364 C.2       4 UNK         0.5000 
     51 O           1.6495  -14.9169  -43.9383 O.2       4 UNK        -0.5000 
     52 CA          2.3858  -12.6329  -43.8562 C.3       4 UNK         0.1400 
     53 CB          3.1951  -12.9019  -45.1378 C.3       4 UNK        -0.1800 
     54 N           1.2479  -11.7854  -44.1876 N.am      4 UNK        -0.5000 
     55 C           1.0380  -10.5393  -43.7465 C.2       3 UNK         0.5000 
     56 O           1.8170   -9.9412  -43.0031 O.2       3 UNK        -0.5000 
     57 CA         -0.2514   -9.8265  -44.2115 C.3       3 UNK         0.1400 
     58 CB          0.0663   -8.8303  -45.3376 C.3       3 UNK        -0.1800 
     59 N          -1.2981  -10.7398  -44.6761 N.am      3 UNK        -0.5000 
     60 C          -2.0108  -11.5551  -43.8872 C.2       2 UNK         0.5000 
     61 O          -1.9187  -11.5642  -42.6592 O.2       2 UNK        -0.5000 
     62 CA         -2.9740  -12.5443  -44.5799 C.3       2 UNK         0.1400 
     63 CB         -4.4091  -11.9966  -44.5558 C.3       2 UNK        -0.1800 
     64 N          -2.6343  -12.9189  -45.9608 N.am      2 UNK        -0.5000 
     65 C          -1.4672  -13.4341  -46.3700 C.2       1 UNK         0.5000 
     66 O          -0.4823  -13.5341  -45.6420 O.2       1 UNK        -0.5000 
     67 C          -2.3865  -22.7229  -46.8556 C.2       11 UNK         0.5000 
     68 O          -2.9970  -23.5128  -47.5794 O.2       11 UNK        -0.5000 
     69 N          -2.6992  -22.5030  -45.5709 N.am      12 UNK        -0.5000 
     70 CA         -3.7290  -23.2245  -44.8222 C.3       12 UNK         0.1400 
     71 CB         -3.9609  -22.5480  -43.4637 C.3       12 UNK        -0.1800 
     72 C          -3.4088  -24.7208  -44.6528 C.2       12 UNK         0.5000 
     73 O          -4.3196  -25.5451  -44.7173 O.2       12 UNK        -0.5000 
     74 N          -2.1244  -25.0528  -44.4729 N.am      13 UNK        -0.5000 
     75 CA         -1.6398  -26.4319  -44.4552 C.3       13 UNK         0.1400 
     76 CB         -0.2367  -26.4755  -43.8301 C.3       13 UNK        -0.1800 
     77 C          -1.6420  -27.0671  -45.8597 C.2       13 UNK         0.5000 
     78 O          -2.0112  -28.2342  -45.9959 O.2       13 UNK        -0.5000 
     79 N          -1.2215  -26.2950  -46.8713 N.am      14 UNK        -0.5000 
     80 CA         -1.0652  -26.7459  -48.2530 C.3       14 UNK         0.1400 
     81 CB         -0.2052  -25.7368  -49.0305 C.3       14 UNK        -0.1800 
     82 C          -2.3923  -26.9877  -48.9922 C.2       14 UNK         0.5000 
     83 O          -2.5076  -27.9991  -49.6868 O.2       14 UNK        -0.5000 
     84 N          -3.3468  -26.0540  -48.8729 N.am      15 UNK        -0.5000 
     85 CA         -4.5655  -26.0479  -49.6882 C.3       15 UNK         0.1400 
     86 CB         -4.3014  -25.2627  -50.9871 C.3       15 UNK        -0.1800 
     87 C          -5.7998  -25.4833  -48.9688 C.2       15 UNK         0.5000 
     88 O          -6.9030  -25.9641  -49.2284 O.2       15 UNK        -0.5000 
     89 N          -5.6070  -24.4649  -48.1179 N.am      16 UNK        -0.5000 
     90 CA         -6.6426  -23.6591  -47.4552 C.3       16 UNK         0.1400 
     91 CB         -7.3337  -24.4776  -46.3440 C.3       16 UNK        -0.1800 
     92 C          -7.6607  -23.0263  -48.4365 C.2       16 UNK         0.5000 
     93 O          -8.8443  -23.3602  -48.3821 O.2       16 UNK        -0.5000 
     94 N          -7.2519  -22.1282  -49.3426 N.am      17 UNK        -0.5000 
     95 CA         -5.9121  -21.5869  -49.5813 C.3       17 UNK         0.1400 
     96 CB         -5.6632  -20.3571  -48.6872 C.3       17 UNK        -0.1800 
     97 C          -5.7657  -21.2842  -51.0819 C.2       17 UNK         0.5000 
     98 O          -5.2190  -20.2484  -51.4560 O.2       17 UNK        -0.5000 
     99 N          -6.2711  -22.1984  -51.9254 N.am      18 UNK        -0.5000 
    100 CA        -6.3228  -22.0819  -53.3895 C.3       18 UNK         0.1400 
    101 CB        -7.0309  -23.3195  -53.9608 C.3       18 UNK        -0.1800 
    102 C         -4.9523  -21.8877  -54.0693 C.2       18 UNK         0.5000 
    103 O         -4.8829  -21.2924  -55.1453 O.2       18 UNK        -0.5000 
    104 N         -3.8840  -22.3538  -53.4089 N.am      19 UNK        -0.5000 
    105 CA        -2.4918  -22.1603  -53.8097 C.3       19 UNK         0.1400 
    106 CB        -1.5907  -23.0286  -52.9185 C.3       19 UNK        -0.1800 
    107 C         -2.0356  -20.6853  -53.8068 C.2       19 UNK         0.5000 
    108 O         -1.0805  -20.3657  -54.5134 O.2       19 UNK        -0.5000 
    109 N         -2.7431  -19.8026  -53.0808 N.am      20 UNK        -0.5000 
    110 CA        -2.4920  -18.3566  -53.0180 C.3       20 UNK         0.1400 
    111 CB        -3.2755  -17.7468  -51.8443 C.3       20 UNK        -0.1800 
    112 C         -2.7907  -17.6015  -54.3319 C.2       20 UNK         0.5000 
    113 O         -2.5000  -16.4080  -54.4194 O.2       20 UNK        -0.5000 
    114 N         -3.3405  -18.2950  -55.3403 N.am      21 UNK        -0.5000 
    115 CA        -3.3811  -17.8374  -56.7305 C.3       21 UNK         0.1400 
    116 CB        -4.3309  -18.7446  -57.5267 C.3       21 UNK        -0.1800 
    117 C         -1.9801  -17.8136  -57.3825 C.2       21 UNK         0.5000 
    118 O         -1.7536  -17.0208  -58.2971 O.2       21 UNK        -0.5000 
    119 N         -1.0716  -18.6682  -56.8882 N.am      22 UNK        -0.5000 
    120 CA         0.3601  -18.7495  -57.2290 C.3       22 UNK         0.1400 
    121 C          0.6778  -19.1949  -58.6892 C.2       22 UNK         0.5000 
    122 N         -0.2641  -19.7732  -59.4241 N.am      22 UNK        -0.7600 
    123 O          1.8036  -19.0468  -59.1577 O.2       22 UNK        -0.5000 
    124 C124        1.1697  -17.4921  -56.7950 C.3       23 UNK        -0.0398 
    125 S125        0.8472  -16.9802  -55.0710 S.3       23 UNK        -0.2404 
    126 C126        1.9909  -18.0404  -54.1356 C.3       23 UNK        -0.0205 
    127 H127       -3.6010  -17.7000  -46.8975 H         1 UNK         0.0600 
    128 H128       -2.3937  -17.8181  -48.1878 H         1 UNK         0.0600 
    129 H129       -4.0843  -17.5255  -48.5887 H         1 UNK         0.0600 
    130 H130       -1.0655  -16.0382  -47.9151 H         1 UNK         0.3000 
    131 H131       -2.0910  -13.3882  -48.4264 H         1 UNK         0.0600 
    132 H132        0.2202  -12.6993  -48.5544 H         1 UNK         0.0800 
    133 H133        0.8017  -14.1182  -47.7378 H         1 UNK         0.0800 
    134 H134        1.2286  -16.2144  -48.5498 H         1 UNK         0.0800 
    135 H135        2.4249  -15.5197  -49.6184 H         1 UNK         0.0800 
    136 H136        2.0887  -16.1065  -52.2138 H         1 UNK         0.1150 
    137 H137        0.9610  -20.1956  -52.8208 H         1 UNK         0.1150 
    138 H138        0.4631  -18.3880  -48.9689 H         1 UNK         0.1150 
    139 H139        0.2611  -21.5467  -51.0258 H         1 UNK         0.0800 
    140 H140        0.7195  -21.0424  -49.4267 H         1 UNK         0.0800 
    141 H141       -2.4990  -20.2305  -47.6459 H         1 UNK         0.0800 
    142 H142       -0.8233  -19.8333  -47.7861 H         1 UNK         0.0800 
    143 H143       -0.7571  -22.6063  -48.2010 H         1 UNK         0.0600 
    144 H144        0.1529  -20.9020  -46.1249 H         1 UNK         0.3000 
    145 H145        1.8691  -23.4888  -44.3171 H         1 UNK         0.0600 
    146 H146        3.7087  -21.8495  -44.6644 H         1 UNK         0.0600 
    147 H147        3.3952  -22.7655  -46.1309 H         1 UNK         0.0600 
    148 H148        2.8241  -21.1096  -45.9964 H         1 UNK         0.0600 
    149 H149        1.5941  -20.7008  -43.8074 H         1 UNK         0.3000 
    150 H150       -1.4730  -20.9062  -41.9439 H         1 UNK         0.0600 
    151 H151        0.3710  -21.4844  -40.3539 H         1 UNK         0.0600 
    152 H152       -0.0576  -19.7834  -40.2604 H         1 UNK         0.0600 
    153 H153        1.4066  -20.2778  -41.1076 H         1 UNK         0.0600 
    154 H154        0.1445  -18.6682  -42.5384 H         1 UNK         0.3000 
    155 H155       -1.3272  -17.8481  -45.7251 H         1 UNK         0.0600 
    156 H156       -1.3441  -16.5809  -42.9359 H         1 UNK         0.0600 
    157 H157       -1.4888  -15.6960  -44.4496 H         1 UNK         0.0600 
    158 H158       -2.7381  -16.8353  -43.9760 H         1 UNK         0.0600 
    159 H159        0.8356  -16.6455  -44.3285 H         1 UNK         0.3000 
    160 H160        3.4624  -18.6945  -45.6282 H         1 UNK         0.0600 
    161 H161        3.1696  -17.0452  -47.3933 H         1 UNK         0.0600 
    162 H162        2.6089  -15.8213  -46.2598 H         1 UNK         0.0600 
    163 H163        4.2820  -16.3758  -46.2130 H         1 UNK         0.0600 
    164 H164        3.1635  -16.4141  -43.8280 H         1 UNK         0.3000 
    165 H165        3.2173  -18.3704  -40.8497 H         1 UNK         0.0600 
    166 H166        5.2430  -17.0255  -40.3727 H         1 UNK         0.0600 
    167 H167        5.6227  -18.3012  -41.5187 H         1 UNK         0.0600 
    168 H168        5.4317  -16.6462  -42.0851 H         1 UNK         0.0600 
    169 H169        3.3402  -15.5459  -41.3414 H         1 UNK         0.3000 
    170 H170       -0.1658  -14.9843  -41.5632 H         1 UNK         0.0600 
    171 H171        0.2307  -15.2459  -39.1035 H         1 UNK         0.0600 
    172 H172        1.7433  -14.3588  -39.2523 H         1 UNK         0.0600 
    173 H173        0.2071  -13.5587  -39.5886 H         1 UNK         0.0600 
    174 H174        1.7026  -13.0041  -41.4390 H         1 UNK         0.3000 
    175 H175        3.0424  -12.1563  -43.1256 H         1 UNK         0.0600 
    176 H176        2.5752  -13.3370  -45.9228 H         1 UNK         0.0600 
    177 H177        3.6261  -11.9802  -45.5286 H         1 UNK         0.0600 
    178 H178        4.0174  -13.5919  -44.9450 H         1 UNK         0.0600 
    179 H179        0.5291  -12.2460  -44.7424 H         1 UNK         0.3000 
    180 H180       -0.6404   -9.2656  -43.3591 H         1 UNK         0.0600 
    181 H181        0.4492   -9.3358  -46.2251 H         1 UNK         0.0600 
    182 H182        0.8199   -8.1083  -45.0203 H         1 UNK         0.0600 
    183 H183       -0.8201   -8.2657  -45.6273 H         1 UNK         0.0600 
    184 H184       -1.4387  -10.8001  -45.6735 H         1 UNK         0.3000 
    185 H185       -2.9538  -13.4634  -43.9908 H         1 UNK         0.0600 
    186 H186       -5.1199  -12.7352  -44.9272 H         1 UNK         0.0600 
    187 H187       -4.7139  -11.7372  -43.5410 H         1 UNK         0.0600 
    188 H188       -4.5055  -11.0989  -45.1677 H         1 UNK         0.0600 
    189 H189       -3.4049  -12.9292  -46.6156 H         1 UNK         0.3000 
    190 H190       -2.2012  -21.7723  -45.0698 H         1 UNK         0.3000 
    191 H191       -4.6572  -23.1519  -45.3842 H         1 UNK         0.0600 
    192 H192       -3.0809  -22.6075  -42.8250 H         1 UNK         0.0600 
    193 H193       -4.7839  -23.0240  -42.9292 H         1 UNK         0.0600 
    194 H194       -4.2169  -21.4952  -43.5850 H         1 UNK         0.0600 
    195 H195       -1.4365  -24.3164  -44.3659 H         1 UNK         0.3000 
    196 H196       -2.3045  -27.0224  -43.8209 H         1 UNK         0.0600 
    197 H197        0.1285  -27.5011  -43.7654 H         1 UNK         0.0600 
    198 H198       -0.2438  -26.0673  -42.8193 H         1 UNK         0.0600 
    199 H199        0.4871  -25.9066  -44.4134 H         1 UNK         0.0600 
    200 H200       -0.8607  -25.3702  -46.6549 H         1 UNK         0.3000 
    201 H201       -0.5232  -27.6938  -48.2320 H         1 UNK         0.0600 
    202 H202        0.7719  -25.6071  -48.5649 H         1 UNK         0.0600 
    203 H203       -0.6843  -24.7597  -49.0868 H         1 UNK         0.0600 
    204 H204       -0.0344  -26.0754  -50.0532 H         1 UNK         0.0600 
    205 H205       -3.1743  -25.2454  -48.2822 H         1 UNK         0.3000 
    206 H206       -4.8257  -27.0736  -49.9590 H         1 UNK         0.0600 
    207 H207       -3.5248  -25.7397  -51.5853 H         1 UNK         0.0600 
    208 H208       -5.1979  -25.2094  -51.6061 H         1 UNK         0.0600 
    209 H209       -3.9795  -24.2425  -50.7766 H         1 UNK         0.0600 
    210 H210       -4.6551  -24.1390  -47.9701 H         1 UNK         0.3000 
    211 H211       -6.1363  -22.8235  -46.9764 H         1 UNK         0.0600 
    212 H212       -7.8668  -25.3403  -46.7446 H         1 UNK         0.0600 
    213 H213       -8.0581  -23.8680  -45.8026 H         1 UNK         0.0600 
    214 H214       -6.6158  -24.8437  -45.6135 H         1 UNK         0.0600 
    215 H215       -7.9548  -21.7530  -49.9640 H         1 UNK         0.3000 
    216 H216       -5.1402  -22.3217  -49.3629 H         1 UNK         0.0600 
    217 H217       -4.6683  -19.9463  -48.8607 H         1 UNK         0.0600 
    218 H218       -5.7260  -20.6054  -47.6285 H         1 UNK         0.0600 
    219 H219       -6.3845  -19.5643  -48.8883 H         1 UNK         0.0600 
    220 H220       -6.7129  -23.0161  -51.5307 H         1 UNK         0.3000 
    221 H221       -6.9250  -21.2024  -53.6259 H         1 UNK         0.0600 
    222 H222       -6.4888  -24.2367  -53.7274 H         1 UNK         0.0600 
    223 H223       -8.0417  -23.4154  -53.5639 H         1 UNK         0.0600 
    224 H224       -7.1154  -23.2556  -55.0466 H         1 UNK         0.0600 
    225 H225       -4.0391  -22.8199  -52.5291 H         1 UNK         0.3000 
    226 H226       -2.3908  -22.5175  -54.8366 H         1 UNK         0.0600 
    227 H227       -1.7953  -24.0886  -53.0699 H         1 UNK         0.0600 
    228 H228       -0.5363  -22.8670  -53.1468 H         1 UNK         0.0600 
    229 H229       -1.7382  -22.8122  -51.8613 H         1 UNK         0.0600 
    230 H230       -3.5336  -20.1325  -52.5358 H         1 UNK         0.3000 
    231 H231       -1.4301  -18.2159  -52.8133 H         1 UNK         0.0600 
    232 H232       -3.0076  -16.6997  -51.6979 H         1 UNK         0.0600 
    233 H233       -3.0610  -18.2660  -50.9109 H         1 UNK         0.0600 
    234 H234       -4.3515  -17.7895  -52.0147 H         1 UNK         0.0600 
    235 H235       -3.6028  -19.2575  -55.1730 H         1 UNK         0.3000 
    236 H236       -3.7779  -16.8203  -56.7503 H         1 UNK         0.0600 
    237 H237       -5.3369  -18.7271  -57.1068 H         1 UNK         0.0600 
    238 H238       -4.4054  -18.4180  -58.5647 H         1 UNK         0.0600 
    239 H239       -3.9890  -19.7805  -57.5304 H         1 UNK         0.0600 
    240 H240       -1.3404  -19.2610  -56.1095 H         1 UNK         0.3000 
    241 H241        0.7306  -19.5768  -56.6235 H         1 UNK         0.0600 
    242 H242       -0.0512  -20.0688  -60.3640 H         1 UNK         0.3800 
    243 H243       -1.1909  -19.9062  -59.0526 H         1 UNK         0.3800 
    244 H244        2.2413  -17.6629  -56.9102 H         1 UNK         0.0800 
    245 H245        0.9262  -16.6500  -57.4445 H         1 UNK         0.0800 
    246 H246        2.0203  -19.0328  -54.5876 H         1 UNK         0.0800 
    247 H247        3.0016  -17.6356  -54.2029 H         1 UNK         0.0800 
@<TRIPOS>BOND
     1    1    2 1    
     2    1  127 1    
     3    1  128 1    
     4    1  129 1    
     5    2    3 2    
     6    2    4 am   BACKBONE|DICT|INTERRES
     7    4    5 1    
     8    4  130 1    
     9    5    6 1    
    10    5   65 1    
    11    5  131 1    
    12    6    7 1    
    13    6  132 1    
    14    6  133 1    
    15    7    8 1    
    16    8    9 1    
    17    8  134 1    
    18    8  135 1    
    19    9   10 ar   
    20    9   14 ar   
    21   10   11 ar   
    22   10  136 1    
    23   11   12 ar   
    24   11  126 1    
    25   12   13 ar   
    26   12  137 1    
    27   13   14 ar   
    28   13   15 1    
    29   14  138 1    
    30   15   16 1    
    31   15  139 1    
    32   15  140 1    
    33   16   17 1    
    34   17   18 1    
    35   17  141 1    
    36   17  142 1    
    37   18   19 1    
    38   18   67 1    
    39   18  143 1    
    40   19   20 am   BACKBONE|DICT|INTERRES
    41   19  144 1    
    42   20   21 2    
    43   20   22 1    
    44   22   23 1    
    45   22   24 1    
    46   22  145 1    
    47   23  146 1    
    48   23  147 1    
    49   23  148 1    
    50   24   25 am   BACKBONE|DICT|INTERRES
    51   24  149 1    
    52   25   26 2    
    53   25   27 1    
    54   27   28 1    
    55   27   29 1    
    56   27  150 1    
    57   28  151 1    
    58   28  152 1    
    59   28  153 1    
    60   29   30 am   BACKBONE|DICT|INTERRES
    61   29  154 1    
    62   30   31 2    
    63   30   32 1    
    64   32   33 1    
    65   32   34 1    
    66   32  155 1    
    67   33  156 1    
    68   33  157 1    
    69   33  158 1    
    70   34   35 am   BACKBONE|DICT|INTERRES
    71   34  159 1    
    72   35   36 2    
    73   35   37 1    
    74   37   38 1    
    75   37   39 1    
    76   37  160 1    
    77   38  161 1    
    78   38  162 1    
    79   38  163 1    
    80   39   40 am   BACKBONE|DICT|INTERRES
    81   39  164 1    
    82   40   41 2    
    83   40   42 1    
    84   42   43 1    
    85   42   44 1    
    86   42  165 1    
    87   43  166 1    
    88   43  167 1    
    89   43  168 1    
    90   44   45 am   BACKBONE|DICT|INTERRES
    91   44  169 1    
    92   45   46 2    
    93   45   47 1    
    94   47   48 1    
    95   47   49 1    
    96   47  170 1    
    97   48  171 1    
    98   48  172 1    
    99   48  173 1    
   100   49   50 am   BACKBONE|DICT|INTERRES
   101   49  174 1    
   102   50   51 2    
   103   50   52 1    
   104   52   53 1    
   105   52   54 1    
   106   52  175 1    
   107   53  176 1    
   108   53  177 1    
   109   53  178 1    
   110   54   55 am   BACKBONE|DICT|INTERRES
   111   54  179 1    
   112   55   56 2    
   113   55   57 1    
   114   57   58 1    
   115   57   59 1    
   116   57  180 1    
   117   58  181 1    
   118   58  182 1    
   119   58  183 1    
   120   59   60 am   BACKBONE|DICT|INTERRES
   121   59  184 1    
   122   60   61 2    
   123   60   62 1    
   124   62   63 1    
   125   62   64 1    
   126   62  185 1    
   127   63  186 1    
   128   63  187 1    
   129   63  188 1    
   130   64   65 am   BACKBONE|DICT|INTERRES
   131   64  189 1    
   132   65   66 2    
   133   67   68 2    
   134   67   69 am   BACKBONE|DICT|INTERRES
   135   69   70 1    
   136   69  190 1    
   137   70   71 1    
   138   70   72 1    
   139   70  191 1    
   140   71  192 1    
   141   71  193 1    
   142   71  194 1    
   143   72   73 2    
   144   72   74 am   BACKBONE|DICT|INTERRES
   145   74   75 1    
   146   74  195 1    
   147   75   76 1    
   148   75   77 1    
   149   75  196 1    
   150   76  197 1    
   151   76  198 1    
   152   76  199 1    
   153   77   78 2    
   154   77   79 am   BACKBONE|DICT|INTERRES
   155   79   80 1    
   156   79  200 1    
   157   80   81 1    
   158   80   82 1    
   159   80  201 1    
   160   81  202 1    
   161   81  203 1    
   162   81  204 1    
   163   82   83 2    
   164   82   84 am   BACKBONE|DICT|INTERRES
   165   84   85 1    
   166   84  205 1    
   167   85   86 1    
   168   85   87 1    
   169   85  206 1    
   170   86  207 1    
   171   86  208 1    
   172   86  209 1    
   173   87   88 2    
   174   87   89 am   BACKBONE|DICT|INTERRES
   175   89   90 1    
   176   89  210 1    
   177   90   91 1    
   178   90   92 1    
   179   90  211 1    
   180   91  212 1    
   181   91  213 1    
   182   91  214 1    
   183   92   93 2    
   184   92   94 am   BACKBONE|DICT|INTERRES
   185   94   95 1    
   186   94  215 1    
   187   95   96 1    
   188   95   97 1    
   189   95  216 1    
   190   96  217 1    
   191   96  218 1    
   192   96  219 1    
   193   97   98 2    
   194   97   99 am   BACKBONE|DICT|INTERRES
   195   99  100 1    
   196   99  220 1    
   197  100  101 1    
   198  100  102 1    
   199  100  221 1    
   200  101  222 1    
   201  101  223 1    
   202  101  224 1    
   203  102  103 2    
   204  102  104 am   BACKBONE|DICT|INTERRES
   205  104  105 1    
   206  104  225 1    
   207  105  106 1    
   208  105  107 1    
   209  105  226 1    
   210  106  227 1    
   211  106  228 1    
   212  106  229 1    
   213  107  108 2    
   214  107  109 am   BACKBONE|DICT|INTERRES
   215  109  110 1    
   216  109  230 1    
   217  110  111 1    
   218  110  112 1    
   219  110  231 1    
   220  111  232 1    
   221  111  233 1    
   222  111  234 1    
   223  112  113 2    
   224  112  114 am   BACKBONE|DICT|INTERRES
   225  114  115 1    
   226  114  235 1    
   227  115  116 1    
   228  115  117 1    
   229  115  236 1    
   230  116  237 1    
   231  116  238 1    
   232  116  239 1    
   233  117  118 2    
   234  117  119 am   BACKBONE|DICT|INTERRES
   235  119  120 1    
   236  119  240 1    
   237  120  121 1    
   238  120  124 1    
   239  120  241 1    
   240  121  122 am   BACKBONE|DICT|INTERRES
   241  121  123 2    
   242  122  242 1    
   243  122  243 1    
   244  124  125 1    
   245  124  244 1    
   246  124  245 1    
   247  125  126 1    
   248  126  246 1    
   249  126  247 1    
@<TRIPOS>SUBSTRUCTURE
     1 UNK         1 GROUP             0       ****    0 ROOT    
