@<TRIPOS>MOLECULE
3R540
247   249    1
SMALL
USER_CHARGES


@<TRIPOS>ATOM
      1 CA         -0.2551  -14.5289  -52.0466 C.3       0 UNK        -0.1800 
      2 C           0.4136  -14.4152  -50.6862 C.2       0 UNK         0.5000 
      3 O          -0.0804  -13.6930  -49.8204 O.2       0 UNK        -0.5000 
      4 N           1.5340  -15.1244  -50.4890 N.am      1 UNK        -0.5000 
      5 CA          2.3711  -15.0665  -49.2796 C.3       1 UNK         0.1400 
      6 C6          3.7303  -15.8073  -49.4186 C.3       23 UNK        -0.0398 
      7 S7          4.4697  -15.7058  -51.0940 S.3       23 UNK        -0.2404 
      8 C8          5.0021  -17.4186  -51.4526 C.3       23 UNK        -0.0205 
      9 C9          3.9860  -18.4779  -51.0433 C.ar      23 UNK        -0.0193 
     10 C10         2.7432  -18.5642  -51.6777 C.ar      23 UNK        -0.1150 
     11 C11         1.7941  -19.5017  -51.2546 C.ar      23 UNK        -0.0193 
     12 C12         2.1071  -20.3727  -50.2066 C.ar      23 UNK        -0.1150 
     13 C13         3.3538  -20.3071  -49.5771 C.ar      23 UNK        -0.0193 
     14 C14         4.2873  -19.3597  -50.0013 C.ar      23 UNK        -0.1150 
     15 C15         3.7075  -21.2648  -48.4487 C.3       23 UNK        -0.0205 
     16 S16         3.5257  -20.5000  -46.8037 S.3       23 UNK        -0.2404 
     17 C17         1.7126  -20.3966  -46.6522 C.3       23 UNK        -0.0398 
     18 CA          1.0926  -21.7276  -46.1694 C.3       11 UNK         0.1400 
     19 N           1.5007  -22.0773  -44.8083 N.am      11 UNK        -0.5000 
     20 C           1.4338  -23.3092  -44.2865 C.2       10 UNK         0.5000 
     21 O           0.8489  -24.2448  -44.8339 O.2       10 UNK        -0.5000 
     22 CA          2.1412  -23.5347  -42.9400 C.3       10 UNK         0.1400 
     23 CB          3.6583  -23.6657  -43.1475 C.3       10 UNK        -0.1800 
     24 N           1.8762  -22.4301  -42.0209 N.am      10 UNK        -0.5000 
     25 C           1.2319  -22.5442  -40.8519 C.2       9 UNK         0.5000 
     26 O           0.9108  -23.6210  -40.3470 O.2       9 UNK        -0.5000 
     27 CA          0.8493  -21.2340  -40.1279 C.3       9 UNK         0.1400 
     28 CB          1.9098  -20.8722  -39.0770 C.3       9 UNK        -0.1800 
     29 N           0.6571  -20.0820  -41.0128 N.am      9 UNK        -0.5000 
     30 C          -0.1609  -20.0286  -42.0736 C.2       8 UNK         0.5000 
     31 O          -0.8966  -20.9497  -42.4229 O.2       8 UNK        -0.5000 
     32 CA         -0.1017  -18.7542  -42.9318 C.3       8 UNK         0.1400 
     33 CB         -1.1430  -17.7502  -42.4171 C.3       8 UNK        -0.1800 
     34 N           1.2141  -18.1057  -42.9880 N.am      8 UNK        -0.5000 
     35 C           2.3940  -18.6820  -43.2710 C.2       7 UNK         0.5000 
     36 O           2.5474  -19.8916  -43.4433 O.2       7 UNK        -0.5000 
     37 CA          3.6121  -17.7508  -43.3491 C.3       7 UNK         0.1400 
     38 CB          3.6545  -17.0294  -44.7039 C.3       7 UNK        -0.1800 
     39 N           3.5862  -16.7642  -42.2718 N.am      7 UNK        -0.5000 
     40 C           4.0393  -16.9896  -41.0310 C.2       6 UNK         0.5000 
     41 O           4.5863  -18.0358  -40.6812 O.2       6 UNK        -0.5000 
     42 CA          3.8407  -15.8601  -40.0018 C.3       6 UNK         0.1400 
     43 CB          5.0526  -14.9160  -39.9984 C.3       6 UNK        -0.1800 
     44 N           2.6259  -15.0783  -40.2374 N.am      6 UNK        -0.5000 
     45 C           1.3797  -15.5409  -40.0675 C.2       5 UNK         0.5000 
     46 O           1.1187  -16.6707  -39.6526 O.2       5 UNK        -0.5000 
     47 CA          0.2317  -14.5885  -40.4570 C.3       5 UNK         0.1400 
     48 CB         -0.1955  -13.7422  -39.2485 C.3       5 UNK        -0.1800 
     49 N           0.5343  -13.6986  -41.5852 N.am      5 UNK        -0.5000 
     50 C           0.8654  -14.1058  -42.8175 C.2       4 UNK         0.5000 
     51 O           1.0617  -15.2841  -43.1179 O.2       4 UNK        -0.5000 
     52 CA          1.0333  -13.0214  -43.8917 C.3       4 UNK         0.1400 
     53 CB          2.5035  -12.9119  -44.3250 C.3       4 UNK        -0.1800 
     54 N           0.2054  -13.3471  -45.0510 N.am      4 UNK        -0.5000 
     55 C          -1.1155  -13.1190  -45.1172 C.2       3 UNK         0.5000 
     56 O          -1.7437  -12.5245  -44.2398 O.2       3 UNK        -0.5000 
     57 CA         -1.8735  -13.6296  -46.3609 C.3       3 UNK         0.1400 
     58 CB         -2.0535  -12.4960  -47.3814 C.3       3 UNK        -0.1800 
     59 N          -1.2143  -14.7606  -47.0130 N.am      3 UNK        -0.5000 
     60 C          -1.1358  -15.9940  -46.4917 C.2       2 UNK         0.5000 
     61 O          -1.7393  -16.3345  -45.4757 O.2       2 UNK        -0.5000 
     62 CA         -0.2375  -17.0272  -47.2051 C.3       2 UNK         0.1400 
     63 CB         -1.0960  -18.1216  -47.8600 C.3       2 UNK        -0.1800 
     64 N           0.6547  -16.4667  -48.2220 N.am      2 UNK        -0.5000 
     65 C           1.6230  -15.5590  -48.0230 C.2       1 UNK         0.5000 
     66 O           1.8964  -15.0790  -46.9243 O.2       1 UNK        -0.5000 
     67 C          -0.4269  -21.7399  -46.4065 C.2       11 UNK         0.5000 
     68 O          -0.8221  -21.8201  -47.5682 O.2       11 UNK        -0.5000 
     69 N          -1.2621  -21.7081  -45.3561 N.am      12 UNK        -0.5000 
     70 CA         -2.7178  -21.8383  -45.4986 C.3       12 UNK         0.1400 
     71 CB         -3.4138  -21.5592  -44.1599 C.3       12 UNK        -0.1800 
     72 C          -3.1422  -23.2124  -46.0530 C.2       12 UNK         0.5000 
     73 O          -4.0990  -23.2851  -46.8235 O.2       12 UNK        -0.5000 
     74 N          -2.3951  -24.2675  -45.6958 N.am      13 UNK        -0.5000 
     75 CA         -2.5910  -25.6239  -46.2099 C.3       13 UNK         0.1400 
     76 CB         -1.8207  -26.6180  -45.3281 C.3       13 UNK        -0.1800 
     77 C          -2.1670  -25.7624  -47.6843 C.2       13 UNK         0.5000 
     78 O          -2.7844  -26.5306  -48.4220 O.2       13 UNK        -0.5000 
     79 N          -1.1342  -25.0086  -48.0872 N.am      14 UNK        -0.5000 
     80 CA         -0.6508  -24.9354  -49.4659 C.3       14 UNK         0.1400 
     81 CB          0.7744  -24.3591  -49.4798 C.3       14 UNK        -0.1800 
     82 C          -1.5887  -24.1011  -50.3561 C.2       14 UNK         0.5000 
     83 O          -1.8715  -24.5008  -51.4858 O.2       14 UNK        -0.5000 
     84 N          -2.0553  -22.9627  -49.8252 N.am      15 UNK        -0.5000 
     85 CA         -2.9827  -22.0460  -50.4825 C.3       15 UNK         0.1400 
     86 CB         -3.0348  -20.7325  -49.6877 C.3       15 UNK        -0.1800 
     87 C          -4.3936  -22.6331  -50.6520 C.2       15 UNK         0.5000 
     88 O          -5.0148  -22.4037  -51.6908 O.2       15 UNK        -0.5000 
     89 N          -4.8684  -23.3703  -49.6361 N.am      16 UNK        -0.5000 
     90 CA         -6.1779  -24.0201  -49.5435 C.3       16 UNK         0.1400 
     91 CB         -6.2725  -25.1946  -50.5425 C.3       16 UNK        -0.1800 
     92 C          -7.3245  -22.9953  -49.6645 C.2       16 UNK         0.5000 
     93 O          -7.5895  -22.2717  -48.7038 O.2       16 UNK        -0.5000 
     94 N          -7.9599  -22.9259  -50.8425 N.am      17 UNK        -0.5000 
     95 CA         -8.9777  -21.9311  -51.1929 C.3       17 UNK         0.1400 
     96 CB         -9.6983  -22.3923  -52.4693 C.3       17 UNK        -0.1800 
     97 C          -8.4073  -20.5101  -51.3873 C.2       17 UNK         0.5000 
     98 O          -9.1737  -19.5461  -51.3634 O.2       17 UNK        -0.5000 
     99 N          -7.0859  -20.4089  -51.5962 N.am      18 UNK        -0.5000 
    100 CA        -6.2620  -19.2145  -51.7994 C.3       18 UNK         0.1400 
    101 CB        -6.3344  -18.2482  -50.6036 C.3       18 UNK        -0.1800 
    102 C         -6.5229  -18.5009  -53.1334 C.2       18 UNK         0.5000 
    103 O         -5.5876  -18.3335  -53.9139 O.2       18 UNK        -0.5000 
    104 N         -7.7794  -18.1380  -53.4099 N.am      19 UNK        -0.5000 
    105 CA        -8.2080  -17.4527  -54.6337 C.3       19 UNK         0.1400 
    106 CB        -9.6875  -17.0654  -54.4906 C.3       19 UNK        -0.1800 
    107 C         -7.9883  -18.2739  -55.9216 C.2       19 UNK         0.5000 
    108 O         -7.8651  -17.6932  -57.0004 O.2       19 UNK        -0.5000 
    109 N         -7.9392  -19.6040  -55.7806 N.am      20 UNK        -0.5000 
    110 CA        -7.7565  -20.5625  -56.8676 C.3       20 UNK         0.1400 
    111 CB        -8.5984  -21.8095  -56.5468 C.3       20 UNK        -0.1800 
    112 C         -6.2838  -20.9574  -57.1035 C.2       20 UNK         0.5000 
    113 O         -6.0303  -21.7261  -58.0329 O.2       20 UNK        -0.5000 
    114 N         -5.3438  -20.4792  -56.2728 N.am      21 UNK        -0.5000 
    115 CA        -3.9449  -20.9111  -56.3107 C.3       21 UNK         0.1400 
    116 CB        -3.7578  -22.1561  -55.4195 C.3       21 UNK        -0.1800 
    117 C         -2.9834  -19.7771  -55.9297 C.2       21 UNK         0.5000 
    118 O         -2.2592  -19.2773  -56.7915 O.2       21 UNK        -0.5000 
    119 N         -2.9709  -19.4204  -54.6409 N.am      22 UNK        -0.5000 
    120 CA        -2.0782  -18.4148  -54.0433 C.3       22 UNK         0.1400 
    121 C         -2.3384  -16.9591  -54.5259 C.2       22 UNK         0.5000 
    122 N         -3.5857  -16.5686  -54.7503 N.am      22 UNK        -0.7600 
    123 O         -1.4030  -16.1897  -54.7230 O.2       22 UNK        -0.5000 
    124 C124       -2.1025  -18.5286  -52.4953 C.3       23 UNK        -0.0398 
    125 S125       -0.5361  -18.0659  -51.6869 S.3       23 UNK        -0.2404 
    126 C126        0.4371  -19.5841  -51.9367 C.3       23 UNK        -0.0205 
    127 H127       -0.3490  -13.5444  -52.5043 H         1 UNK         0.0600 
    128 H128        0.3149  -15.1652  -52.7241 H         1 UNK         0.0600 
    129 H129       -1.2533  -14.9537  -51.9407 H         1 UNK         0.0600 
    130 H130        1.8996  -15.6982  -51.2359 H         1 UNK         0.3000 
    131 H131        2.5951  -14.0099  -49.1173 H         1 UNK         0.0600 
    132 H132        3.6266  -16.8486  -49.1192 H         1 UNK         0.0800 
    133 H133        4.4465  -15.3846  -48.7121 H         1 UNK         0.0800 
    134 H134        5.2007  -17.5092  -52.5213 H         1 UNK         0.0800 
    135 H135        5.9564  -17.5928  -50.9529 H         1 UNK         0.0800 
    136 H136        2.5052  -17.8871  -52.4861 H         1 UNK         0.1150 
    137 H137        1.3794  -21.1024  -49.8805 H         1 UNK         0.1150 
    138 H138        5.2462  -19.3013  -49.5054 H         1 UNK         0.1150 
    139 H139        3.1022  -22.1698  -48.5092 H         1 UNK         0.0800 
    140 H140        4.7420  -21.5905  -48.5665 H         1 UNK         0.0800 
    141 H141        1.3078  -20.0949  -47.6167 H         1 UNK         0.0800 
    142 H142        1.4658  -19.5895  -45.9631 H         1 UNK         0.0800 
    143 H143        1.4796  -22.5162  -46.8173 H         1 UNK         0.0600 
    144 H144        1.9943  -21.3453  -44.3016 H         1 UNK         0.3000 
    145 H145        1.7706  -24.4777  -42.5330 H         1 UNK         0.0600 
    146 H146        4.1643  -23.8882  -42.2080 H         1 UNK         0.0600 
    147 H147        3.8899  -24.4743  -43.8420 H         1 UNK         0.0600 
    148 H148        4.0915  -22.7495  -43.5516 H         1 UNK         0.0600 
    149 H149        2.0931  -21.4983  -42.3594 H         1 UNK         0.3000 
    150 H150       -0.0983  -21.4111  -39.6157 H         1 UNK         0.0600 
    151 H151        2.0672  -21.6953  -38.3787 H         1 UNK         0.0600 
    152 H152        1.6058  -20.0038  -38.4918 H         1 UNK         0.0600 
    153 H153        2.8710  -20.6442  -39.5401 H         1 UNK         0.0600 
    154 H154        1.2190  -19.2657  -40.8155 H         1 UNK         0.3000 
    155 H155       -0.3650  -19.0286  -43.9550 H         1 UNK         0.0600 
    156 H156       -0.9678  -17.4946  -41.3721 H         1 UNK         0.0600 
    157 H157       -2.1500  -18.1629  -42.4892 H         1 UNK         0.0600 
    158 H158       -1.1310  -16.8260  -42.9925 H         1 UNK         0.0600 
    159 H159        1.1978  -17.0909  -42.9067 H         1 UNK         0.3000 
    160 H160        4.5134  -18.3616  -43.2636 H         1 UNK         0.0600 
    161 H161        4.5266  -16.3802  -44.7804 H         1 UNK         0.0600 
    162 H162        2.7672  -16.4167  -44.8586 H         1 UNK         0.0600 
    163 H163        3.7055  -17.7418  -45.5275 H         1 UNK         0.0600 
    164 H164        3.0867  -15.9055  -42.4604 H         1 UNK         0.3000 
    165 H165        3.7637  -16.3210  -39.0146 H         1 UNK         0.0600 
    166 H166        4.9580  -14.1552  -39.2233 H         1 UNK         0.0600 
    167 H167        5.9745  -15.4652  -39.8022 H         1 UNK         0.0600 
    168 H168        5.1707  -14.4079  -40.9564 H         1 UNK         0.0600 
    169 H169        2.7460  -14.1359  -40.5784 H         1 UNK         0.3000 
    170 H170       -0.6180  -15.2065  -40.7516 H         1 UNK         0.0600 
    171 H171       -0.4515  -14.3759  -38.3982 H         1 UNK         0.0600 
    172 H172        0.5997  -13.0680  -38.9278 H         1 UNK         0.0600 
    173 H173       -1.0749  -13.1404  -39.4785 H         1 UNK         0.0600 
    174 H174        0.4006  -12.7113  -41.4200 H         1 UNK         0.3000 
    175 H175        0.7242  -12.0548  -43.4882 H         1 UNK         0.0600 
    176 H176        2.8831  -13.8564  -44.7161 H         1 UNK         0.0600 
    177 H177        2.6305  -12.1556  -45.0996 H         1 UNK         0.0600 
    178 H178        3.1376  -12.6277  -43.4844 H         1 UNK         0.0600 
    179 H179        0.6506  -13.9016  -45.7748 H         1 UNK         0.3000 
    180 H180       -2.8640  -13.9535  -46.0345 H         1 UNK         0.0600 
    181 H181       -1.0931  -12.1201  -47.7365 H         1 UNK         0.0600 
    182 H182       -2.5929  -11.6561  -46.9419 H         1 UNK         0.0600 
    183 H183       -2.6231  -12.8311  -48.2485 H         1 UNK         0.0600 
    184 H184       -0.7113  -14.5568  -47.8686 H         1 UNK         0.3000 
    185 H185        0.3893  -17.4860  -46.4386 H         1 UNK         0.0600 
    186 H186       -1.6880  -18.6560  -47.1157 H         1 UNK         0.0600 
    187 H187       -1.7881  -17.7025  -48.5916 H         1 UNK         0.0600 
    188 H188       -0.4816  -18.8588  -48.3754 H         1 UNK         0.0600 
    189 H189        0.4923  -16.7709  -49.1719 H         1 UNK         0.3000 
    190 H190       -0.8965  -21.6436  -44.4124 H         1 UNK         0.3000 
    191 H191       -3.0523  -21.0808  -46.2105 H         1 UNK         0.0600 
    192 H192       -3.0959  -22.2598  -43.3869 H         1 UNK         0.0600 
    193 H193       -4.4967  -21.6464  -44.2569 H         1 UNK         0.0600 
    194 H194       -3.2020  -20.5489  -43.8096 H         1 UNK         0.0600 
    195 H195       -1.6021  -24.1218  -45.0854 H         1 UNK         0.3000 
    196 H196       -3.6542  -25.8653  -46.1451 H         1 UNK         0.0600 
    197 H197       -0.7466  -26.4308  -45.3522 H         1 UNK         0.0600 
    198 H198       -1.9822  -27.6430  -45.6641 H         1 UNK         0.0600 
    199 H199       -2.1482  -26.5610  -44.2899 H         1 UNK         0.0600 
    200 H200       -0.6958  -24.3968  -47.4151 H         1 UNK         0.3000 
    201 H201       -0.6099  -25.9475  -49.8742 H         1 UNK         0.0600 
    202 H202        1.4522  -24.9670  -48.8803 H         1 UNK         0.0600 
    203 H203        0.8045  -23.3419  -49.0914 H         1 UNK         0.0600 
    204 H204        1.1729  -24.3321  -50.4948 H         1 UNK         0.0600 
    205 H205       -1.7115  -22.6729  -48.9124 H         1 UNK         0.3000 
    206 H206       -2.5927  -21.8321  -51.4794 H         1 UNK         0.0600 
    207 H207       -2.0518  -20.2644  -49.6462 H         1 UNK         0.0600 
    208 H208       -3.7163  -20.0150  -50.1422 H         1 UNK         0.0600 
    209 H209       -3.3700  -20.8958  -48.6631 H         1 UNK         0.0600 
    210 H210       -4.3153  -23.4205  -48.7860 H         1 UNK         0.3000 
    211 H211       -6.2437  -24.4385  -48.5379 H         1 UNK         0.0600 
    212 H212       -6.1410  -24.8771  -51.5772 H         1 UNK         0.0600 
    213 H213       -7.2380  -25.6965  -50.4677 H         1 UNK         0.0600 
    214 H214       -5.5058  -25.9405  -50.3314 H         1 UNK         0.0600 
    215 H215       -7.6576  -23.5433  -51.5823 H         1 UNK         0.3000 
    216 H216       -9.7080  -21.8833  -50.3825 H         1 UNK         0.0600 
    217 H217      -10.4797  -21.6872  -52.7561 H         1 UNK         0.0600 
    218 H218      -10.1754  -23.3617  -52.3243 H         1 UNK         0.0600 
    219 H219       -9.0097  -22.4794  -53.3101 H         1 UNK         0.0600 
    220 H220       -6.5584  -21.2778  -51.6306 H         1 UNK         0.3000 
    221 H221       -5.2370  -19.5813  -51.8525 H         1 UNK         0.0600 
    222 H222       -7.3278  -17.8156  -50.4834 H         1 UNK         0.0600 
    223 H223       -6.0756  -18.7553  -49.6740 H         1 UNK         0.0600 
    224 H224       -5.6331  -17.4224  -50.7297 H         1 UNK         0.0600 
    225 H225       -8.4950  -18.3676  -52.7256 H         1 UNK         0.3000 
    226 H226       -7.6198  -16.5375  -54.7270 H         1 UNK         0.0600 
    227 H227       -9.8427  -16.4121  -53.6318 H         1 UNK         0.0600 
    228 H228      -10.0402  -16.5300  -55.3732 H         1 UNK         0.0600 
    229 H229      -10.3214  -17.9440  -54.3629 H         1 UNK         0.0600 
    230 H230       -8.0449  -19.9862  -54.8530 H         1 UNK         0.3000 
    231 H231       -8.1309  -20.1346  -57.8000 H         1 UNK         0.0600 
    232 H232       -9.6457  -21.5507  -56.3893 H         1 UNK         0.0600 
    233 H233       -8.2385  -22.3178  -55.6517 H         1 UNK         0.0600 
    234 H234       -8.5645  -22.5282  -57.3666 H         1 UNK         0.0600 
    235 H235       -5.5940  -19.7917  -55.5721 H         1 UNK         0.3000 
    236 H236       -3.6770  -21.1937  -57.3313 H         1 UNK         0.0600 
    237 H237       -2.7077  -22.4460  -55.3630 H         1 UNK         0.0600 
    238 H238       -4.1098  -21.9878  -54.4010 H         1 UNK         0.0600 
    239 H239       -4.3064  -23.0088  -55.8196 H         1 UNK         0.0600 
    240 H240       -3.6488  -19.8378  -54.0225 H         1 UNK         0.3000 
    241 H241       -1.0740  -18.6734  -54.3838 H         1 UNK         0.0600 
    242 H242       -3.7674  -15.6340  -55.0778 H         1 UNK         0.3800 
    243 H243       -4.3584  -17.2036  -54.5588 H         1 UNK         0.3800 
    244 H244       -2.9107  -17.9313  -52.0691 H         1 UNK         0.0800 
    245 H245       -2.3171  -19.5545  -52.1999 H         1 UNK         0.0800 
    246 H246        0.5863  -19.7537  -53.0035 H         1 UNK         0.0800 
    247 H247       -0.1279  -20.4388  -51.5610 H         1 UNK         0.0800 
@<TRIPOS>BOND
     1    1    2 1    
     2    1  127 1    
     3    1  128 1    
     4    1  129 1    
     5    2    3 2    
     6    2    4 am   BACKBONE|DICT|INTERRES
     7    4    5 1    
     8    4  130 1    
     9    5    6 1    
    10    5   65 1    
    11    5  131 1    
    12    6    7 1    
    13    6  132 1    
    14    6  133 1    
    15    7    8 1    
    16    8    9 1    
    17    8  134 1    
    18    8  135 1    
    19    9   10 ar   
    20    9   14 ar   
    21   10   11 ar   
    22   10  136 1    
    23   11   12 ar   
    24   11  126 1    
    25   12   13 ar   
    26   12  137 1    
    27   13   14 ar   
    28   13   15 1    
    29   14  138 1    
    30   15   16 1    
    31   15  139 1    
    32   15  140 1    
    33   16   17 1    
    34   17   18 1    
    35   17  141 1    
    36   17  142 1    
    37   18   19 1    
    38   18   67 1    
    39   18  143 1    
    40   19   20 am   BACKBONE|DICT|INTERRES
    41   19  144 1    
    42   20   21 2    
    43   20   22 1    
    44   22   23 1    
    45   22   24 1    
    46   22  145 1    
    47   23  146 1    
    48   23  147 1    
    49   23  148 1    
    50   24   25 am   BACKBONE|DICT|INTERRES
    51   24  149 1    
    52   25   26 2    
    53   25   27 1    
    54   27   28 1    
    55   27   29 1    
    56   27  150 1    
    57   28  151 1    
    58   28  152 1    
    59   28  153 1    
    60   29   30 am   BACKBONE|DICT|INTERRES
    61   29  154 1    
    62   30   31 2    
    63   30   32 1    
    64   32   33 1    
    65   32   34 1    
    66   32  155 1    
    67   33  156 1    
    68   33  157 1    
    69   33  158 1    
    70   34   35 am   BACKBONE|DICT|INTERRES
    71   34  159 1    
    72   35   36 2    
    73   35   37 1    
    74   37   38 1    
    75   37   39 1    
    76   37  160 1    
    77   38  161 1    
    78   38  162 1    
    79   38  163 1    
    80   39   40 am   BACKBONE|DICT|INTERRES
    81   39  164 1    
    82   40   41 2    
    83   40   42 1    
    84   42   43 1    
    85   42   44 1    
    86   42  165 1    
    87   43  166 1    
    88   43  167 1    
    89   43  168 1    
    90   44   45 am   BACKBONE|DICT|INTERRES
    91   44  169 1    
    92   45   46 2    
    93   45   47 1    
    94   47   48 1    
    95   47   49 1    
    96   47  170 1    
    97   48  171 1    
    98   48  172 1    
    99   48  173 1    
   100   49   50 am   BACKBONE|DICT|INTERRES
   101   49  174 1    
   102   50   51 2    
   103   50   52 1    
   104   52   53 1    
   105   52   54 1    
   106   52  175 1    
   107   53  176 1    
   108   53  177 1    
   109   53  178 1    
   110   54   55 am   BACKBONE|DICT|INTERRES
   111   54  179 1    
   112   55   56 2    
   113   55   57 1    
   114   57   58 1    
   115   57   59 1    
   116   57  180 1    
   117   58  181 1    
   118   58  182 1    
   119   58  183 1    
   120   59   60 am   BACKBONE|DICT|INTERRES
   121   59  184 1    
   122   60   61 2    
   123   60   62 1    
   124   62   63 1    
   125   62   64 1    
   126   62  185 1    
   127   63  186 1    
   128   63  187 1    
   129   63  188 1    
   130   64   65 am   BACKBONE|DICT|INTERRES
   131   64  189 1    
   132   65   66 2    
   133   67   68 2    
   134   67   69 am   BACKBONE|DICT|INTERRES
   135   69   70 1    
   136   69  190 1    
   137   70   71 1    
   138   70   72 1    
   139   70  191 1    
   140   71  192 1    
   141   71  193 1    
   142   71  194 1    
   143   72   73 2    
   144   72   74 am   BACKBONE|DICT|INTERRES
   145   74   75 1    
   146   74  195 1    
   147   75   76 1    
   148   75   77 1    
   149   75  196 1    
   150   76  197 1    
   151   76  198 1    
   152   76  199 1    
   153   77   78 2    
   154   77   79 am   BACKBONE|DICT|INTERRES
   155   79   80 1    
   156   79  200 1    
   157   80   81 1    
   158   80   82 1    
   159   80  201 1    
   160   81  202 1    
   161   81  203 1    
   162   81  204 1    
   163   82   83 2    
   164   82   84 am   BACKBONE|DICT|INTERRES
   165   84   85 1    
   166   84  205 1    
   167   85   86 1    
   168   85   87 1    
   169   85  206 1    
   170   86  207 1    
   171   86  208 1    
   172   86  209 1    
   173   87   88 2    
   174   87   89 am   BACKBONE|DICT|INTERRES
   175   89   90 1    
   176   89  210 1    
   177   90   91 1    
   178   90   92 1    
   179   90  211 1    
   180   91  212 1    
   181   91  213 1    
   182   91  214 1    
   183   92   93 2    
   184   92   94 am   BACKBONE|DICT|INTERRES
   185   94   95 1    
   186   94  215 1    
   187   95   96 1    
   188   95   97 1    
   189   95  216 1    
   190   96  217 1    
   191   96  218 1    
   192   96  219 1    
   193   97   98 2    
   194   97   99 am   BACKBONE|DICT|INTERRES
   195   99  100 1    
   196   99  220 1    
   197  100  101 1    
   198  100  102 1    
   199  100  221 1    
   200  101  222 1    
   201  101  223 1    
   202  101  224 1    
   203  102  103 2    
   204  102  104 am   BACKBONE|DICT|INTERRES
   205  104  105 1    
   206  104  225 1    
   207  105  106 1    
   208  105  107 1    
   209  105  226 1    
   210  106  227 1    
   211  106  228 1    
   212  106  229 1    
   213  107  108 2    
   214  107  109 am   BACKBONE|DICT|INTERRES
   215  109  110 1    
   216  109  230 1    
   217  110  111 1    
   218  110  112 1    
   219  110  231 1    
   220  111  232 1    
   221  111  233 1    
   222  111  234 1    
   223  112  113 2    
   224  112  114 am   BACKBONE|DICT|INTERRES
   225  114  115 1    
   226  114  235 1    
   227  115  116 1    
   228  115  117 1    
   229  115  236 1    
   230  116  237 1    
   231  116  238 1    
   232  116  239 1    
   233  117  118 2    
   234  117  119 am   BACKBONE|DICT|INTERRES
   235  119  120 1    
   236  119  240 1    
   237  120  121 1    
   238  120  124 1    
   239  120  241 1    
   240  121  122 am   BACKBONE|DICT|INTERRES
   241  121  123 2    
   242  122  242 1    
   243  122  243 1    
   244  124  125 1    
   245  124  244 1    
   246  124  245 1    
   247  125  126 1    
   248  126  246 1    
   249  126  247 1    
@<TRIPOS>SUBSTRUCTURE
     1 UNK         1 GROUP             0       ****    0 ROOT    
