@<TRIPOS>MOLECULE
3R540
247   249    1
SMALL
USER_CHARGES


@<TRIPOS>ATOM
      1 CA          8.5439  -13.2289  -48.7511 C.3       0 UNK        -0.1800 
      2 C           7.5457  -13.8220  -47.7665 C.2       0 UNK         0.5000 
      3 O           7.9220  -14.6505  -46.9368 O.2       0 UNK        -0.5000 
      4 N           6.2762  -13.4091  -47.8615 N.am      1 UNK        -0.5000 
      5 CA          5.1853  -13.8296  -46.9771 C.3       1 UNK         0.1400 
      6 C6          3.8036  -13.4020  -47.5256 C.3       23 UNK        -0.0398 
      7 S7          3.3978  -14.2125  -49.1083 S.3       23 UNK        -0.2404 
      8 C8          1.8572  -15.0702  -48.6663 C.3       23 UNK        -0.0205 
      9 C9          1.4406  -16.0603  -49.7381 C.ar      23 UNK        -0.0193 
     10 C10         0.4774  -15.7104  -50.6857 C.ar      23 UNK        -0.1150 
     11 C11         0.0656  -16.6312  -51.6527 C.ar      23 UNK        -0.0193 
     12 C12         0.6280  -17.9120  -51.6694 C.ar      23 UNK        -0.1150 
     13 C13         1.6117  -18.2661  -50.7391 C.ar      23 UNK        -0.0193 
     14 C14         2.0095  -17.3356  -49.7741 C.ar      23 UNK        -0.1150 
     15 C15         2.2911  -19.6275  -50.8099 C.3       23 UNK        -0.0205 
     16 S16         2.1120  -20.5892  -49.2740 S.3       23 UNK        -0.2404 
     17 C17         0.3918  -21.1663  -49.4153 C.3       23 UNK        -0.0398 
     18 CA          0.0894  -22.3038  -48.4117 C.3       11 UNK         0.1400 
     19 N           0.1078  -21.8527  -47.0154 N.am      11 UNK        -0.5000 
     20 C           0.0068  -22.6602  -45.9489 C.2       10 UNK         0.5000 
     21 O          -0.0474  -23.8870  -46.0215 O.2       10 UNK        -0.5000 
     22 CA         -0.1265  -21.9856  -44.5727 C.3       10 UNK         0.1400 
     23 CB          1.2415  -21.5568  -44.0206 C.3       10 UNK        -0.1800 
     24 N          -1.0365  -20.8412  -44.6199 N.am      10 UNK        -0.5000 
     25 C          -2.3590  -20.9439  -44.8185 C.2       9 UNK         0.5000 
     26 O          -2.9530  -22.0179  -44.9084 O.2       9 UNK        -0.5000 
     27 CA         -3.1421  -19.6306  -44.9914 C.3       9 UNK         0.1400 
     28 CB         -3.5963  -19.0843  -43.6302 C.3       9 UNK        -0.1800 
     29 N          -2.3637  -18.6134  -45.6980 N.am      9 UNK        -0.5000 
     30 C          -2.0489  -18.6781  -47.0014 C.2       8 UNK         0.5000 
     31 O          -2.4211  -19.5835  -47.7473 O.2       8 UNK        -0.5000 
     32 CA         -1.1166  -17.5798  -47.5480 C.3       8 UNK         0.1400 
     33 CB         -1.9381  -16.3731  -48.0232 C.3       8 UNK        -0.1800 
     34 N          -0.1225  -17.1461  -46.5613 N.am      8 UNK        -0.5000 
     35 C           0.8230  -17.9522  -46.0508 C.2       7 UNK         0.5000 
     36 O           0.9812  -19.1136  -46.4213 O.2       7 UNK        -0.5000 
     37 CA          1.6975  -17.4189  -44.8954 C.3       7 UNK         0.1400 
     38 CB          3.1334  -17.1291  -45.3596 C.3       7 UNK        -0.1800 
     39 N           1.1535  -16.2382  -44.2220 N.am      7 UNK        -0.5000 
     40 C           0.0011  -16.2096  -43.5374 C.2       6 UNK         0.5000 
     41 O          -0.7189  -17.1947  -43.3737 O.2       6 UNK        -0.5000 
     42 CA         -0.4469  -14.8393  -43.0001 C.3       6 UNK         0.1400 
     43 CB          0.0236  -14.6493  -41.5513 C.3       6 UNK        -0.1800 
     44 N           0.0302  -13.7182  -43.8142 N.am      6 UNK        -0.5000 
     45 C          -0.3418  -13.4678  -45.0774 C.2       5 UNK         0.5000 
     46 O          -1.0991  -14.2012  -45.7136 O.2       5 UNK        -0.5000 
     47 CA          0.2591  -12.2087  -45.7396 C.3       5 UNK         0.1400 
     48 CB         -0.5231  -11.7513  -46.9881 C.3       5 UNK        -0.1800 
     49 N           0.4560  -11.0969  -44.8032 N.am      5 UNK        -0.5000 
     50 C          -0.4777  -10.4512  -44.0897 C.2       4 UNK         0.5000 
     51 O          -1.6841  -10.6924  -44.1582 O.2       4 UNK        -0.5000 
     52 CA          0.0468   -9.3808  -43.1077 C.3       4 UNK         0.1400 
     53 CB         -1.0770   -8.7208  -42.2880 C.3       4 UNK        -0.1800 
     54 N           1.0292   -9.9490  -42.1819 N.am      4 UNK        -0.5000 
     55 C           2.3236  -10.1614  -42.4509 C.2       3 UNK         0.5000 
     56 O           2.8499   -9.8307  -43.5161 O.2       3 UNK        -0.5000 
     57 CA          3.1658  -10.8777  -41.3698 C.3       3 UNK         0.1400 
     58 CB          2.3200  -11.5846  -40.2873 C.3       3 UNK        -0.1800 
     59 N           4.1376  -11.8232  -41.9324 N.am      3 UNK        -0.5000 
     60 C           3.8922  -12.8347  -42.7774 C.2       2 UNK         0.5000 
     61 O           2.7799  -13.1114  -43.2358 O.2       2 UNK        -0.5000 
     62 CA          5.0955  -13.7253  -43.1323 C.3       2 UNK         0.1400 
     63 CB          5.0739  -15.0029  -42.2789 C.3       2 UNK        -0.1800 
     64 N           5.0821  -14.1006  -44.5444 N.am      2 UNK        -0.5000 
     65 C           5.3790  -13.2710  -45.5518 C.2       1 UNK         0.5000 
     66 O           5.7608  -12.1085  -45.3951 O.2       1 UNK        -0.5000 
     67 C          -1.2338  -23.0089  -48.7684 C.2       11 UNK         0.5000 
     68 O          -1.1975  -24.0785  -49.3758 O.2       11 UNK        -0.5000 
     69 N          -2.3686  -22.4298  -48.3494 N.am      12 UNK        -0.5000 
     70 CA         -3.7025  -23.0119  -48.5037 C.3       12 UNK         0.1400 
     71 CB         -4.7637  -22.0174  -48.0111 C.3       12 UNK        -0.1800 
     72 C          -3.8426  -24.3641  -47.7848 C.2       12 UNK         0.5000 
     73 O          -4.3194  -25.3229  -48.3917 O.2       12 UNK        -0.5000 
     74 N          -3.3887  -24.4291  -46.5247 N.am      13 UNK        -0.5000 
     75 CA         -3.3743  -25.6408  -45.7044 C.3       13 UNK         0.1400 
     76 CB         -2.9492  -25.2923  -44.2704 C.3       13 UNK        -0.1800 
     77 C          -2.4807  -26.7497  -46.2882 C.2       13 UNK         0.5000 
     78 O          -2.9226  -27.8958  -46.3758 O.2       13 UNK        -0.5000 
     79 N          -1.2653  -26.3865  -46.7238 N.am      14 UNK        -0.5000 
     80 CA         -0.3056  -27.2836  -47.3763 C.3       14 UNK         0.1400 
     81 CB          1.0253  -26.5455  -47.5835 C.3       14 UNK        -0.1800 
     82 C          -0.8190  -27.8544  -48.7121 C.2       14 UNK         0.5000 
     83 O          -0.5155  -29.0007  -49.0433 O.2       14 UNK        -0.5000 
     84 N          -1.6223  -27.0596  -49.4291 N.am      15 UNK        -0.5000 
     85 CA         -2.3139  -27.4337  -50.6616 C.3       15 UNK         0.1400 
     86 CB         -2.5219  -26.1643  -51.5004 C.3       15 UNK        -0.1800 
     87 C          -3.6443  -28.1850  -50.4218 C.2       15 UNK         0.5000 
     88 O          -4.3772  -28.4157  -51.3836 O.2       15 UNK        -0.5000 
     89 N          -3.9318  -28.5627  -49.1661 N.am      16 UNK        -0.5000 
     90 CA         -5.1027  -29.3140  -48.7026 C.3       16 UNK         0.1400 
     91 CB         -5.1645  -30.7155  -49.3474 C.3       16 UNK        -0.1800 
     92 C          -6.4146  -28.5152  -48.8341 C.2       16 UNK         0.5000 
     93 O          -7.4073  -29.0248  -49.3572 O.2       16 UNK        -0.5000 
     94 N          -6.3821  -27.2740  -48.3303 N.am      17 UNK        -0.5000 
     95 CA         -7.4707  -26.2930  -48.2803 C.3       17 UNK         0.1400 
     96 CB         -8.6728  -26.8177  -47.4662 C.3       17 UNK        -0.1800 
     97 C          -7.8542  -25.7535  -49.6721 C.2       17 UNK         0.5000 
     98 O          -9.0331  -25.5165  -49.9447 O.2       17 UNK        -0.5000 
     99 N          -6.8414  -25.5506  -50.5238 N.am      18 UNK        -0.5000 
    100 CA        -6.9721  -24.8773  -51.8157 C.3       18 UNK         0.1400 
    101 CB        -5.8306  -25.3345  -52.7364 C.3       18 UNK        -0.1800 
    102 C         -6.9467  -23.3460  -51.6451 C.2       18 UNK         0.5000 
    103 O         -6.6655  -22.8419  -50.5565 O.2       18 UNK        -0.5000 
    104 N         -7.2040  -22.6259  -52.7433 N.am      19 UNK        -0.5000 
    105 CA        -7.2080  -21.1606  -52.7952 C.3       19 UNK         0.1400 
    106 CB        -7.9549  -20.7171  -54.0636 C.3       19 UNK        -0.1800 
    107 C         -5.8058  -20.5166  -52.7499 C.2       19 UNK         0.5000 
    108 O         -5.7185  -19.2920  -52.6569 O.2       19 UNK        -0.5000 
    109 N         -4.7377  -21.3202  -52.8816 N.am      20 UNK        -0.5000 
    110 CA        -3.3168  -20.9268  -52.8685 C.3       20 UNK         0.1400 
    111 CB        -2.9219  -20.3757  -51.4817 C.3       20 UNK        -0.1800 
    112 C         -2.9080  -19.9539  -53.9995 C.2       20 UNK         0.5000 
    113 O         -1.8217  -19.3793  -53.9412 O.2       20 UNK        -0.5000 
    114 N         -3.7862  -19.7890  -55.0001 N.am      21 UNK        -0.5000 
    115 CA        -3.7349  -18.8143  -56.0928 C.3       21 UNK         0.1400 
    116 CB        -2.5062  -19.0497  -56.9974 C.3       21 UNK        -0.1800 
    117 C         -3.8676  -17.3464  -55.6242 C.2       21 UNK         0.5000 
    118 O         -3.4297  -16.4454  -56.3428 O.2       21 UNK        -0.5000 
    119 N         -4.4879  -17.1133  -54.4577 N.am      22 UNK        -0.5000 
    120 CA        -4.7248  -15.7653  -53.9099 C.3       22 UNK         0.1400 
    121 C         -5.9458  -15.6261  -52.9567 C.2       22 UNK         0.5000 
    122 N         -6.5849  -16.6931  -52.4975 N.am      22 UNK        -0.7600 
    123 O         -6.3521  -14.5083  -52.6495 O.2       22 UNK        -0.5000 
    124 C124       -3.4447  -15.1037  -53.3318 C.3       23 UNK        -0.0398 
    125 S125       -2.6259  -16.0652  -52.0088 S.3       23 UNK        -0.2404 
    126 C126       -0.9501  -16.2110  -52.7026 C.3       23 UNK        -0.0205 
    127 H127        9.3351  -12.7060  -48.2138 H         1 UNK         0.0600 
    128 H128        8.0703  -12.5212  -49.4321 H         1 UNK         0.0600 
    129 H129        8.9995  -14.0202  -49.3463 H         1 UNK         0.0600 
    130 H130        6.0302  -12.7219  -48.5591 H         1 UNK         0.3000 
    131 H131        5.2089  -14.9204  -46.9223 H         1 UNK         0.0600 
    132 H132        3.0287  -13.6470  -46.7997 H         1 UNK         0.0800 
    133 H133        3.7581  -12.3204  -47.6665 H         1 UNK         0.0800 
    134 H134        1.0686  -14.3355  -48.4974 H         1 UNK         0.0800 
    135 H135        1.9856  -15.6028  -47.7271 H         1 UNK         0.0800 
    136 H136        0.0424  -14.7209  -50.6707 H         1 UNK         0.1150 
    137 H137        0.3193  -18.6210  -52.4250 H         1 UNK         0.1150 
    138 H138        2.7667  -17.6049  -49.0509 H         1 UNK         0.1150 
    139 H139        1.9178  -20.2110  -51.6529 H         1 UNK         0.0800 
    140 H140        3.3542  -19.4711  -50.9970 H         1 UNK         0.0800 
    141 H141        0.2384  -21.5104  -50.4399 H         1 UNK         0.0800 
    142 H142       -0.2812  -20.3209  -49.2676 H         1 UNK         0.0800 
    143 H143        0.8755  -23.0555  -48.5124 H         1 UNK         0.0600 
    144 H144        0.2235  -20.8547  -46.8630 H         1 UNK         0.3000 
    145 H145       -0.5477  -22.7193  -43.8821 H         1 UNK         0.0600 
    146 H146        1.1427  -21.0813  -43.0448 H         1 UNK         0.0600 
    147 H147        1.8937  -22.4220  -43.8958 H         1 UNK         0.0600 
    148 H148        1.7535  -20.8607  -44.6837 H         1 UNK         0.0600 
    149 H149       -0.6212  -19.9220  -44.5901 H         1 UNK         0.3000 
    150 H150       -4.0344  -19.8458  -45.5823 H         1 UNK         0.0600 
    151 H151       -4.2401  -19.8020  -43.1201 H         1 UNK         0.0600 
    152 H152       -4.1645  -18.1610  -43.7439 H         1 UNK         0.0600 
    153 H153       -2.7509  -18.8804  -42.9727 H         1 UNK         0.0600 
    154 H154       -1.9778  -17.8658  -45.1351 H         1 UNK         0.3000 
    155 H155       -0.5817  -17.9888  -48.4074 H         1 UNK         0.0600 
    156 H156       -2.5492  -15.9596  -47.2202 H         1 UNK         0.0600 
    157 H157       -1.2973  -15.5756  -48.3974 H         1 UNK         0.0600 
    158 H158       -2.6096  -16.6578  -48.8342 H         1 UNK         0.0600 
    159 H159       -0.2356  -16.2114  -46.1892 H         1 UNK         0.3000 
    160 H160        1.7470  -18.2219  -44.1570 H         1 UNK         0.0600 
    161 H161        3.1952  -16.2228  -45.9583 H         1 UNK         0.0600 
    162 H162        3.5274  -17.9498  -45.9612 H         1 UNK         0.0600 
    163 H163        3.7993  -17.0122  -44.5051 H         1 UNK         0.0600 
    164 H164        1.6790  -15.3786  -44.2917 H         1 UNK         0.3000 
    165 H165       -1.5386  -14.8222  -43.0121 H         1 UNK         0.0600 
    166 H166       -0.3531  -13.7149  -41.1352 H         1 UNK         0.0600 
    167 H167       -0.3386  -15.4569  -40.9138 H         1 UNK         0.0600 
    168 H168        1.1121  -14.6381  -41.4803 H         1 UNK         0.0600 
    169 H169        0.7570  -13.1402  -43.4061 H         1 UNK         0.3000 
    170 H170        1.2563  -12.4930  -46.0686 H         1 UNK         0.0600 
    171 H171       -0.5524  -12.5375  -47.7434 H         1 UNK         0.0600 
    172 H172       -1.5548  -11.4936  -46.7478 H         1 UNK         0.0600 
    173 H173       -0.0572  -10.8797  -47.4477 H         1 UNK         0.0600 
    174 H174        1.4205  -10.8308  -44.6324 H         1 UNK         0.3000 
    175 H175        0.5236   -8.6000  -43.7040 H         1 UNK         0.0600 
    176 H176       -1.6035   -9.4465  -41.6668 H         1 UNK         0.0600 
    177 H177       -0.6825   -7.9432  -41.6337 H         1 UNK         0.0600 
    178 H178       -1.8131   -8.2499  -42.9409 H         1 UNK         0.0600 
    179 H179        0.6664  -10.2743  -41.2976 H         1 UNK         0.3000 
    180 H180        3.7482  -10.0975  -40.8780 H         1 UNK         0.0600 
    181 H181        1.6532  -12.3304  -40.7187 H         1 UNK         0.0600 
    182 H182        1.7127  -10.8744  -39.7251 H         1 UNK         0.0600 
    183 H183        2.9579  -12.0935  -39.5644 H         1 UNK         0.0600 
    184 H184        5.0937  -11.6700  -41.6448 H         1 UNK         0.3000 
    185 H185        6.0209  -13.1835  -42.9248 H         1 UNK         0.0600 
    186 H186        5.1282  -14.7622  -41.2164 H         1 UNK         0.0600 
    187 H187        4.1608  -15.5788  -42.4362 H         1 UNK         0.0600 
    188 H188        5.9226  -15.6474  -42.5088 H         1 UNK         0.0600 
    189 H189        4.7752  -15.0384  -44.7494 H         1 UNK         0.3000 
    190 H190       -2.3217  -21.5151  -47.9094 H         1 UNK         0.3000 
    191 H191       -3.8709  -23.1875  -49.5682 H         1 UNK         0.0600 
    192 H192       -4.6111  -21.7435  -46.9686 H         1 UNK         0.0600 
    193 H193       -5.7647  -22.4424  -48.0898 H         1 UNK         0.0600 
    194 H194       -4.7512  -21.1027  -48.6042 H         1 UNK         0.0600 
    195 H195       -3.0455  -23.5806  -46.0835 H         1 UNK         0.3000 
    196 H196       -4.3957  -26.0254  -45.6683 H         1 UNK         0.0600 
    197 H197       -2.9464  -26.1797  -43.6363 H         1 UNK         0.0600 
    198 H198       -3.6346  -24.5735  -43.8209 H         1 UNK         0.0600 
    199 H199       -1.9479  -24.8623  -44.2394 H         1 UNK         0.0600 
    200 H200       -0.9602  -25.4257  -46.5837 H         1 UNK         0.3000 
    201 H201       -0.1284  -28.1257  -46.7044 H         1 UNK         0.0600 
    202 H202        1.4439  -26.2137  -46.6332 H         1 UNK         0.0600 
    203 H203        0.9020  -25.6680  -48.2193 H         1 UNK         0.0600 
    204 H204        1.7643  -27.1939  -48.0557 H         1 UNK         0.0600 
    205 H205       -1.7769  -26.1114  -49.1039 H         1 UNK         0.3000 
    206 H206       -1.6725  -28.1069  -51.2337 H         1 UNK         0.0600 
    207 H207       -1.5713  -25.6761  -51.7159 H         1 UNK         0.0600 
    208 H208       -2.9881  -26.3949  -52.4586 H         1 UNK         0.0600 
    209 H209       -3.1529  -25.4447  -50.9783 H         1 UNK         0.0600 
    210 H210       -3.2855  -28.2928  -48.4340 H         1 UNK         0.3000 
    211 H211       -4.9532  -29.4641  -47.6324 H         1 UNK         0.0600 
    212 H212       -5.3736  -30.6666  -50.4162 H         1 UNK         0.0600 
    213 H213       -5.9508  -31.3178  -48.8910 H         1 UNK         0.0600 
    214 H214       -4.2258  -31.2528  -49.2127 H         1 UNK         0.0600 
    215 H215       -5.4811  -26.9093  -48.0382 H         1 UNK         0.3000 
    216 H216       -7.0695  -25.4364  -47.7367 H         1 UNK         0.0600 
    217 H217       -9.4021  -26.0251  -47.2956 H         1 UNK         0.0600 
    218 H218       -8.3580  -27.1829  -46.4887 H         1 UNK         0.0600 
    219 H219       -9.1903  -27.6290  -47.9784 H         1 UNK         0.0600 
    220 H220       -5.9024  -25.7232  -50.1913 H         1 UNK         0.3000 
    221 H221       -7.9221  -25.1611  -52.2734 H         1 UNK         0.0600 
    222 H222       -4.8765  -24.9107  -52.4275 H         1 UNK         0.0600 
    223 H223       -5.7351  -26.4205  -52.7455 H         1 UNK         0.0600 
    224 H224       -6.0058  -25.0200  -53.7656 H         1 UNK         0.0600 
    225 H225       -7.4228  -23.1052  -53.6052 H         1 UNK         0.3000 
    226 H226       -7.7584  -20.7864  -51.9293 H         1 UNK         0.0600 
    227 H227       -8.9753  -21.1009  -54.0745 H         1 UNK         0.0600 
    228 H228       -8.0211  -19.6296  -54.1224 H         1 UNK         0.0600 
    229 H229       -7.4553  -21.0649  -54.9686 H         1 UNK         0.0600 
    230 H230       -4.9153  -22.3075  -52.9917 H         1 UNK         0.3000 
    231 H231       -2.7463  -21.8415  -53.0354 H         1 UNK         0.0600 
    232 H232       -1.8436  -20.2340  -51.4055 H         1 UNK         0.0600 
    233 H233       -3.2157  -21.0587  -50.6871 H         1 UNK         0.0600 
    234 H234       -3.3878  -19.4104  -51.2802 H         1 UNK         0.0600 
    235 H235       -4.6396  -20.3249  -54.9425 H         1 UNK         0.3000 
    236 H236       -4.6210  -19.0070  -56.6990 H         1 UNK         0.0600 
    237 H237       -2.4332  -20.0939  -57.3011 H         1 UNK         0.0600 
    238 H238       -2.5714  -18.4530  -57.9079 H         1 UNK         0.0600 
    239 H239       -1.5756  -18.7783  -56.4985 H         1 UNK         0.0600 
    240 H240       -4.8138  -17.8922  -53.8984 H         1 UNK         0.3000 
    241 H241       -5.0243  -15.1498  -54.7608 H         1 UNK         0.0600 
    242 H242       -6.2478  -17.6422  -52.6484 H         1 UNK         0.3800 
    243 H243       -7.3810  -16.5523  -51.8972 H         1 UNK         0.3800 
    244 H244       -2.7388  -14.9353  -54.1454 H         1 UNK         0.0800 
    245 H245       -3.6662  -14.1086  -52.9427 H         1 UNK         0.0800 
    246 H246       -0.6402  -15.2500  -53.1156 H         1 UNK         0.0800 
    247 H247       -0.9649  -16.9133  -53.5368 H         1 UNK         0.0800 
@<TRIPOS>BOND
     1    1    2 1    
     2    1  127 1    
     3    1  128 1    
     4    1  129 1    
     5    2    3 2    
     6    2    4 am   BACKBONE|DICT|INTERRES
     7    4    5 1    
     8    4  130 1    
     9    5    6 1    
    10    5   65 1    
    11    5  131 1    
    12    6    7 1    
    13    6  132 1    
    14    6  133 1    
    15    7    8 1    
    16    8    9 1    
    17    8  134 1    
    18    8  135 1    
    19    9   10 ar   
    20    9   14 ar   
    21   10   11 ar   
    22   10  136 1    
    23   11   12 ar   
    24   11  126 1    
    25   12   13 ar   
    26   12  137 1    
    27   13   14 ar   
    28   13   15 1    
    29   14  138 1    
    30   15   16 1    
    31   15  139 1    
    32   15  140 1    
    33   16   17 1    
    34   17   18 1    
    35   17  141 1    
    36   17  142 1    
    37   18   19 1    
    38   18   67 1    
    39   18  143 1    
    40   19   20 am   BACKBONE|DICT|INTERRES
    41   19  144 1    
    42   20   21 2    
    43   20   22 1    
    44   22   23 1    
    45   22   24 1    
    46   22  145 1    
    47   23  146 1    
    48   23  147 1    
    49   23  148 1    
    50   24   25 am   BACKBONE|DICT|INTERRES
    51   24  149 1    
    52   25   26 2    
    53   25   27 1    
    54   27   28 1    
    55   27   29 1    
    56   27  150 1    
    57   28  151 1    
    58   28  152 1    
    59   28  153 1    
    60   29   30 am   BACKBONE|DICT|INTERRES
    61   29  154 1    
    62   30   31 2    
    63   30   32 1    
    64   32   33 1    
    65   32   34 1    
    66   32  155 1    
    67   33  156 1    
    68   33  157 1    
    69   33  158 1    
    70   34   35 am   BACKBONE|DICT|INTERRES
    71   34  159 1    
    72   35   36 2    
    73   35   37 1    
    74   37   38 1    
    75   37   39 1    
    76   37  160 1    
    77   38  161 1    
    78   38  162 1    
    79   38  163 1    
    80   39   40 am   BACKBONE|DICT|INTERRES
    81   39  164 1    
    82   40   41 2    
    83   40   42 1    
    84   42   43 1    
    85   42   44 1    
    86   42  165 1    
    87   43  166 1    
    88   43  167 1    
    89   43  168 1    
    90   44   45 am   BACKBONE|DICT|INTERRES
    91   44  169 1    
    92   45   46 2    
    93   45   47 1    
    94   47   48 1    
    95   47   49 1    
    96   47  170 1    
    97   48  171 1    
    98   48  172 1    
    99   48  173 1    
   100   49   50 am   BACKBONE|DICT|INTERRES
   101   49  174 1    
   102   50   51 2    
   103   50   52 1    
   104   52   53 1    
   105   52   54 1    
   106   52  175 1    
   107   53  176 1    
   108   53  177 1    
   109   53  178 1    
   110   54   55 am   BACKBONE|DICT|INTERRES
   111   54  179 1    
   112   55   56 2    
   113   55   57 1    
   114   57   58 1    
   115   57   59 1    
   116   57  180 1    
   117   58  181 1    
   118   58  182 1    
   119   58  183 1    
   120   59   60 am   BACKBONE|DICT|INTERRES
   121   59  184 1    
   122   60   61 2    
   123   60   62 1    
   124   62   63 1    
   125   62   64 1    
   126   62  185 1    
   127   63  186 1    
   128   63  187 1    
   129   63  188 1    
   130   64   65 am   BACKBONE|DICT|INTERRES
   131   64  189 1    
   132   65   66 2    
   133   67   68 2    
   134   67   69 am   BACKBONE|DICT|INTERRES
   135   69   70 1    
   136   69  190 1    
   137   70   71 1    
   138   70   72 1    
   139   70  191 1    
   140   71  192 1    
   141   71  193 1    
   142   71  194 1    
   143   72   73 2    
   144   72   74 am   BACKBONE|DICT|INTERRES
   145   74   75 1    
   146   74  195 1    
   147   75   76 1    
   148   75   77 1    
   149   75  196 1    
   150   76  197 1    
   151   76  198 1    
   152   76  199 1    
   153   77   78 2    
   154   77   79 am   BACKBONE|DICT|INTERRES
   155   79   80 1    
   156   79  200 1    
   157   80   81 1    
   158   80   82 1    
   159   80  201 1    
   160   81  202 1    
   161   81  203 1    
   162   81  204 1    
   163   82   83 2    
   164   82   84 am   BACKBONE|DICT|INTERRES
   165   84   85 1    
   166   84  205 1    
   167   85   86 1    
   168   85   87 1    
   169   85  206 1    
   170   86  207 1    
   171   86  208 1    
   172   86  209 1    
   173   87   88 2    
   174   87   89 am   BACKBONE|DICT|INTERRES
   175   89   90 1    
   176   89  210 1    
   177   90   91 1    
   178   90   92 1    
   179   90  211 1    
   180   91  212 1    
   181   91  213 1    
   182   91  214 1    
   183   92   93 2    
   184   92   94 am   BACKBONE|DICT|INTERRES
   185   94   95 1    
   186   94  215 1    
   187   95   96 1    
   188   95   97 1    
   189   95  216 1    
   190   96  217 1    
   191   96  218 1    
   192   96  219 1    
   193   97   98 2    
   194   97   99 am   BACKBONE|DICT|INTERRES
   195   99  100 1    
   196   99  220 1    
   197  100  101 1    
   198  100  102 1    
   199  100  221 1    
   200  101  222 1    
   201  101  223 1    
   202  101  224 1    
   203  102  103 2    
   204  102  104 am   BACKBONE|DICT|INTERRES
   205  104  105 1    
   206  104  225 1    
   207  105  106 1    
   208  105  107 1    
   209  105  226 1    
   210  106  227 1    
   211  106  228 1    
   212  106  229 1    
   213  107  108 2    
   214  107  109 am   BACKBONE|DICT|INTERRES
   215  109  110 1    
   216  109  230 1    
   217  110  111 1    
   218  110  112 1    
   219  110  231 1    
   220  111  232 1    
   221  111  233 1    
   222  111  234 1    
   223  112  113 2    
   224  112  114 am   BACKBONE|DICT|INTERRES
   225  114  115 1    
   226  114  235 1    
   227  115  116 1    
   228  115  117 1    
   229  115  236 1    
   230  116  237 1    
   231  116  238 1    
   232  116  239 1    
   233  117  118 2    
   234  117  119 am   BACKBONE|DICT|INTERRES
   235  119  120 1    
   236  119  240 1    
   237  120  121 1    
   238  120  124 1    
   239  120  241 1    
   240  121  122 am   BACKBONE|DICT|INTERRES
   241  121  123 2    
   242  122  242 1    
   243  122  243 1    
   244  124  125 1    
   245  124  244 1    
   246  124  245 1    
   247  125  126 1    
   248  126  246 1    
   249  126  247 1    
@<TRIPOS>SUBSTRUCTURE
     1 UNK         1 GROUP             0       ****    0 ROOT    
