@<TRIPOS>MOLECULE
3R540
247   249    1
SMALL
USER_CHARGES


@<TRIPOS>ATOM
      1 CA         -4.4316   -8.5813  -44.2198 C.3       0 UNK        -0.1800 
      2 C          -3.8485   -9.1576  -45.5027 C.2       0 UNK         0.5000 
      3 O          -2.8833   -8.6091  -46.0359 O.2       0 UNK        -0.5000 
      4 N          -4.4351  -10.2536  -46.0004 N.am      1 UNK        -0.5000 
      5 CA         -3.9725  -10.9917  -47.1808 C.3       1 UNK         0.1400 
      6 C6         -5.1459  -11.7313  -47.8801 C.3       23 UNK        -0.0398 
      7 S7         -4.9389  -11.7864  -49.6954 S.3       23 UNK        -0.2404 
      8 C8         -5.7310  -13.3668  -50.1321 C.3       23 UNK        -0.0205 
      9 C9         -4.9082  -14.5643  -49.6825 C.ar      23 UNK        -0.0193 
     10 C10        -3.7257  -14.8941  -50.3489 C.ar      23 UNK        -0.1150 
     11 C11        -2.9514  -15.9875  -49.9380 C.ar      23 UNK        -0.0193 
     12 C12        -3.3801  -16.7422  -48.8421 C.ar      23 UNK        -0.1150 
     13 C13        -4.5670  -16.4298  -48.1685 C.ar      23 UNK        -0.0193 
     14 C14        -5.3269  -15.3402  -48.6004 C.ar      23 UNK        -0.1150 
     15 C15        -5.0184  -17.2167  -46.9426 C.3       23 UNK        -0.0205 
     16 S16        -5.1340  -19.0119  -47.2354 S.3       23 UNK        -0.2404 
     17 C17        -3.5985  -19.5628  -46.4273 C.3       23 UNK        -0.0398 
     18 CA         -3.4037  -21.0950  -46.4663 C.3       11 UNK         0.1400 
     19 N          -1.9831  -21.4497  -46.4397 N.am      11 UNK        -0.5000 
     20 C          -1.4839  -22.6734  -46.6513 C.2       10 UNK         0.5000 
     21 O          -2.1725  -23.6385  -46.9859 O.2       10 UNK        -0.5000 
     22 CA          0.0249  -22.8591  -46.3922 C.3       10 UNK         0.1400 
     23 CB          0.8484  -22.5214  -47.6390 C.3       10 UNK        -0.1800 
     24 N           0.5073  -22.0592  -45.2649 N.am      10 UNK        -0.5000 
     25 C           0.1387  -22.2601  -43.9925 C.2       9 UNK         0.5000 
     26 O          -0.6112  -23.1686  -43.6402 O.2       9 UNK        -0.5000 
     27 CA          0.6402  -21.2503  -42.9468 C.3       9 UNK         0.1400 
     28 CB          2.0799  -21.5749  -42.5229 C.3       9 UNK        -0.1800 
     29 N           0.5541  -19.8662  -43.4152 N.am      9 UNK        -0.5000 
     30 C          -0.5909  -19.2362  -43.7154 C.2       8 UNK         0.5000 
     31 O          -1.7025  -19.7477  -43.5834 O.2       8 UNK        -0.5000 
     32 CA         -0.4783  -17.8205  -44.3128 C.3       8 UNK         0.1400 
     33 CB         -0.2686  -16.7715  -43.2117 C.3       8 UNK        -0.1800 
     34 N           0.5906  -17.7090  -45.3051 N.am      8 UNK        -0.5000 
     35 C           0.6248  -18.3830  -46.4637 C.2       7 UNK         0.5000 
     36 O          -0.2649  -19.1435  -46.8401 O.2       7 UNK        -0.5000 
     37 CA          1.8915  -18.2239  -47.3187 C.3       7 UNK         0.1400 
     38 CB          1.8639  -16.9099  -48.1125 C.3       7 UNK        -0.1800 
     39 N           3.1043  -18.2865  -46.5052 N.am      7 UNK        -0.5000 
     40 C           3.5333  -19.3902  -45.8763 C.2       6 UNK         0.5000 
     41 O           2.9681  -20.4818  -45.9430 O.2       6 UNK        -0.5000 
     42 CA          4.7804  -19.2313  -44.9889 C.3       6 UNK         0.1400 
     43 CB          6.0613  -19.2987  -45.8337 C.3       6 UNK        -0.1800 
     44 N           4.7664  -17.9833  -44.2235 N.am      6 UNK        -0.5000 
     45 C           3.8892  -17.7064  -43.2483 C.2       5 UNK         0.5000 
     46 O           3.0093  -18.4816  -42.8794 O.2       5 UNK        -0.5000 
     47 CA          3.9822  -16.3114  -42.6078 C.3       5 UNK         0.1400 
     48 CB          5.0337  -16.2984  -41.4883 C.3       5 UNK        -0.1800 
     49 N           4.2844  -15.2539  -43.5747 N.am      5 UNK        -0.5000 
     50 C           3.4801  -14.8978  -44.5837 C.2       4 UNK         0.5000 
     51 O           2.4104  -15.4552  -44.8455 O.2       4 UNK        -0.5000 
     52 CA          3.9621  -13.7422  -45.4641 C.3       4 UNK         0.1400 
     53 CB          4.6864  -14.2693  -46.7153 C.3       4 UNK        -0.1800 
     54 N           2.8000  -12.9514  -45.8460 N.am      4 UNK        -0.5000 
     55 C           2.8177  -11.6664  -46.2147 C.2       3 UNK         0.5000 
     56 O           3.8540  -11.0038  -46.2942 O.2       3 UNK        -0.5000 
     57 CA          1.4581  -10.9938  -46.5124 C.3       3 UNK         0.1400 
     58 CB          1.5547   -9.9523  -47.6467 C.3       3 UNK        -0.1800 
     59 N           0.3462  -11.9197  -46.7642 N.am      3 UNK        -0.5000 
     60 C           0.2216  -12.8107  -47.7576 C.2       2 UNK         0.5000 
     61 O           1.0968  -13.0437  -48.5907 O.2       2 UNK        -0.5000 
     62 CA         -1.1263  -13.5472  -47.8571 C.3       2 UNK         0.1400 
     63 CB         -1.2432  -14.6639  -46.7989 C.3       2 UNK        -0.1800 
     64 N          -2.2859  -12.6442  -47.8477 N.am      2 UNK        -0.5000 
     65 C          -2.7866  -11.9257  -46.8343 C.2       1 UNK         0.5000 
     66 O          -2.3332  -11.9655  -45.6866 O.2       1 UNK        -0.5000 
     67 C          -4.2055  -21.7971  -45.3473 C.2       11 UNK         0.5000 
     68 O          -5.3430  -22.2028  -45.5775 O.2       11 UNK        -0.5000 
     69 N          -3.6007  -21.9539  -44.1634 N.am      12 UNK        -0.5000 
     70 CA         -4.1840  -22.6969  -43.0482 C.3       12 UNK         0.1400 
     71 CB         -3.4685  -22.3111  -41.7440 C.3       12 UNK        -0.1800 
     72 C          -4.1397  -24.2201  -43.2768 C.2       12 UNK         0.5000 
     73 O          -5.1293  -24.9022  -43.0086 O.2       12 UNK        -0.5000 
     74 N          -2.9915  -24.7237  -43.7486 N.am      13 UNK        -0.5000 
     75 CA         -2.7178  -26.1484  -43.9231 C.3       13 UNK         0.1400 
     76 CB         -1.1988  -26.3691  -44.0145 C.3       13 UNK        -0.1800 
     77 C          -3.4333  -26.7683  -45.1355 C.2       13 UNK         0.5000 
     78 O          -4.1606  -27.7490  -44.9707 O.2       13 UNK        -0.5000 
     79 N          -3.1854  -26.2165  -46.3299 N.am      14 UNK        -0.5000 
     80 CA         -3.6543  -26.7677  -47.6022 C.3       14 UNK         0.1400 
     81 CB         -2.5286  -26.6618  -48.6420 C.3       14 UNK        -0.1800 
     82 C          -4.9104  -26.0508  -48.1135 C.2       14 UNK         0.5000 
     83 O          -5.7913  -26.7072  -48.6706 O.2       14 UNK        -0.5000 
     84 N          -4.9619  -24.7234  -47.9290 N.am      15 UNK        -0.5000 
     85 CA         -6.0187  -23.7845  -48.3329 C.3       15 UNK         0.1400 
     86 CB         -7.3645  -24.1130  -47.6591 C.3       15 UNK        -0.1800 
     87 C          -6.1745  -23.6100  -49.8536 C.2       15 UNK         0.5000 
     88 O          -6.1215  -22.4771  -50.3335 O.2       15 UNK        -0.5000 
     89 N          -6.3303  -24.7172  -50.5895 N.am      16 UNK        -0.5000 
     90 CA         -6.4150  -24.7777  -52.0489 C.3       16 UNK         0.1400 
     91 CB         -6.6310  -26.2371  -52.4786 C.3       16 UNK        -0.1800 
     92 C          -5.1490  -24.1877  -52.6937 C.2       16 UNK         0.5000 
     93 O          -4.0660  -24.7472  -52.5126 O.2       16 UNK        -0.5000 
     94 N          -5.3038  -23.0234  -53.3442 N.am      17 UNK        -0.5000 
     95 CA         -4.2517  -22.1763  -53.9300 C.3       17 UNK         0.1400 
     96 CB         -3.5676  -22.9137  -55.1012 C.3       17 UNK        -0.1800 
     97 C          -3.2174  -21.6481  -52.9071 C.2       17 UNK         0.5000 
     98 O          -2.1503  -21.1771  -53.3133 O.2       17 UNK        -0.5000 
     99 N          -3.5299  -21.7662  -51.6046 N.am      18 UNK        -0.5000 
    100 CA        -2.6104  -21.6691  -50.4670 C.3       18 UNK         0.1400 
    101 CB        -2.2497  -20.2002  -50.1849 C.3       18 UNK        -0.1800 
    102 C         -1.3856  -22.5843  -50.6735 C.2       18 UNK         0.5000 
    103 O         -0.2466  -22.1132  -50.6731 O.2       18 UNK        -0.5000 
    104 N         -1.6712  -23.8613  -50.9727 N.am      19 UNK        -0.5000 
    105 CA        -0.7813  -24.9089  -51.4856 C.3       19 UNK         0.1400 
    106 CB         0.4014  -25.1985  -50.5389 C.3       19 UNK        -0.1800 
    107 C         -0.3173  -24.6005  -52.9205 C.2       19 UNK         0.5000 
    108 O         -0.6619  -25.3329  -53.8483 O.2       19 UNK        -0.5000 
    109 N          0.4258  -23.5015  -53.0680 N.am      20 UNK        -0.5000 
    110 CA         0.8651  -22.9136  -54.3295 C.3       20 UNK         0.1400 
    111 CB         2.0167  -23.7485  -54.9270 C.3       20 UNK        -0.1800 
    112 C          1.2685  -21.4337  -54.1629 C.2       20 UNK         0.5000 
    113 O          1.8147  -20.8611  -55.1074 O.2       20 UNK        -0.5000 
    114 N          1.0419  -20.8338  -52.9811 N.am      21 UNK        -0.5000 
    115 CA         1.5027  -19.4832  -52.6563 C.3       21 UNK         0.1400 
    116 CB         1.4686  -19.2725  -51.1337 C.3       21 UNK        -0.1800 
    117 C          0.7260  -18.3711  -53.3836 C.2       21 UNK         0.5000 
    118 O          1.3339  -17.3527  -53.7174 O.2       21 UNK        -0.5000 
    119 N         -0.5770  -18.5785  -53.6224 N.am      22 UNK        -0.5000 
    120 CA        -1.4610  -17.6084  -54.2990 C.3       22 UNK         0.1400 
    121 C         -2.3109  -18.2178  -55.4488 C.2       22 UNK         0.5000 
    122 N         -2.3475  -19.5286  -55.6425 N.am      22 UNK        -0.7600 
    123 O         -2.9312  -17.4791  -56.2088 O.2       22 UNK        -0.5000 
    124 C124       -2.3435  -16.8141  -53.2983 C.3       23 UNK        -0.0398 
    125 S125       -1.3600  -15.6710  -52.2698 S.3       23 UNK        -0.2404 
    126 C126       -1.6205  -16.3530  -50.5994 C.3       23 UNK        -0.0205 
    127 H127       -4.7569   -7.5539  -44.3835 H         1 UNK         0.0600 
    128 H128       -3.6773   -8.5801  -43.4329 H         1 UNK         0.0600 
    129 H129       -5.2882   -9.1571  -43.8685 H         1 UNK         0.0600 
    130 H130       -5.1986  -10.6750  -45.4911 H         1 UNK         0.3000 
    131 H131       -3.5800  -10.2506  -47.8809 H         1 UNK         0.0600 
    132 H132       -6.0853  -11.2066  -47.6995 H         1 UNK         0.0800 
    133 H133       -5.2863  -12.7322  -47.4699 H         1 UNK         0.0800 
    134 H134       -5.8575  -13.4090  -51.2148 H         1 UNK         0.0800 
    135 H135       -6.7355  -13.3992  -49.7072 H         1 UNK         0.0800 
    136 H136       -3.4102  -14.2756  -51.1761 H         1 UNK         0.1150 
    137 H137       -2.7712  -17.5667  -48.5064 H         1 UNK         0.1150 
    138 H138       -6.2400  -15.0829  -48.0820 H         1 UNK         0.1150 
    139 H139       -4.3383  -17.0045  -46.1168 H         1 UNK         0.0800 
    140 H140       -6.0010  -16.8741  -46.6148 H         1 UNK         0.0800 
    141 H141       -2.7788  -19.0753  -46.9486 H         1 UNK         0.0800 
    142 H142       -3.5668  -19.1829  -45.4048 H         1 UNK         0.0800 
    143 H143       -3.7895  -21.4615  -47.4183 H         1 UNK         0.0600 
    144 H144       -1.3329  -20.6948  -46.2430 H         1 UNK         0.3000 
    145 H145        0.1935  -23.9108  -46.1528 H         1 UNK         0.0600 
    146 H146        1.9166  -22.6323  -47.4526 H         1 UNK         0.0600 
    147 H147        0.5944  -23.1963  -48.4532 H         1 UNK         0.0600 
    148 H148        0.6713  -21.5014  -47.9825 H         1 UNK         0.0600 
    149 H149        1.1645  -21.3156  -45.4783 H         1 UNK         0.3000 
    150 H150        0.0007  -21.3429  -42.0666 H         1 UNK         0.0600 
    151 H151        2.1613  -22.6040  -42.1706 H         1 UNK         0.0600 
    152 H152        2.4057  -20.9270  -41.7092 H         1 UNK         0.0600 
    153 H153        2.7811  -21.4534  -43.3487 H         1 UNK         0.0600 
    154 H154        1.4310  -19.3573  -43.4877 H         1 UNK         0.3000 
    155 H155       -1.4210  -17.5974  -44.8168 H         1 UNK         0.0600 
    156 H156        0.6716  -16.9263  -42.6821 H         1 UNK         0.0600 
    157 H157       -1.0723  -16.8119  -42.4756 H         1 UNK         0.0600 
    158 H158       -0.2560  -15.7633  -43.6264 H         1 UNK         0.0600 
    159 H159        1.3491  -17.0695  -45.0860 H         1 UNK         0.3000 
    160 H160        1.9172  -19.0507  -48.0320 H         1 UNK         0.0600 
    161 H161        1.8403  -16.0377  -47.4589 H         1 UNK         0.0600 
    162 H162        0.9829  -16.8648  -48.7518 H         1 UNK         0.0600 
    163 H163        2.7371  -16.8207  -48.7588 H         1 UNK         0.0600 
    164 H164        3.6021  -17.4217  -46.3598 H         1 UNK         0.3000 
    165 H165        4.7939  -20.0634  -44.2817 H         1 UNK         0.0600 
    166 H166        6.9507  -19.2657  -45.2041 H         1 UNK         0.0600 
    167 H167        6.1030  -20.2274  -46.4046 H         1 UNK         0.0600 
    168 H168        6.1218  -18.4734  -46.5443 H         1 UNK         0.0600 
    169 H169        5.4573  -17.2880  -44.4639 H         1 UNK         0.3000 
    170 H170        3.0103  -16.0884  -42.1627 H         1 UNK         0.0600 
    171 H171        4.8208  -17.0674  -40.7443 H         1 UNK         0.0600 
    172 H172        6.0372  -16.4835  -41.8737 H         1 UNK         0.0600 
    173 H173        5.0446  -15.3402  -40.9685 H         1 UNK         0.0600 
    174 H174        5.1486  -14.7505  -43.4338 H         1 UNK         0.3000 
    175 H175        4.6458  -13.1202  -44.8822 H         1 UNK         0.0600 
    176 H176        4.0223  -14.8625  -47.3444 H         1 UNK         0.0600 
    177 H177        5.0725  -13.4501  -47.3219 H         1 UNK         0.0600 
    178 H178        5.5347  -14.8984  -46.4432 H         1 UNK         0.0600 
    179 H179        1.9158  -13.4376  -45.7729 H         1 UNK         0.3000 
    180 H180        1.1918  -10.4567  -45.6011 H         1 UNK         0.0600 
    181 H181        1.8780  -10.4051  -48.5845 H         1 UNK         0.0600 
    182 H182        2.2692   -9.1660  -47.4004 H         1 UNK         0.0600 
    183 H183        0.5931   -9.4692  -47.8207 H         1 UNK         0.0600 
    184 H184       -0.4532  -11.8275  -46.1426 H         1 UNK         0.3000 
    185 H185       -1.1484  -14.0192  -48.8380 H         1 UNK         0.0600 
    186 H186       -0.5019  -15.4424  -46.9753 H         1 UNK         0.0600 
    187 H187       -1.0845  -14.2926  -45.7863 H         1 UNK         0.0600 
    188 H188       -2.2237  -15.1367  -46.8266 H         1 UNK         0.0600 
    189 H189       -2.7347  -12.5348  -48.7480 H         1 UNK         0.3000 
    190 H190       -2.6887  -21.5361  -44.0164 H         1 UNK         0.3000 
    191 H191       -5.2317  -22.4048  -42.9491 H         1 UNK         0.0600 
    192 H192       -2.4112  -22.5746  -41.7655 H         1 UNK         0.0600 
    193 H193       -3.9155  -22.8207  -40.8897 H         1 UNK         0.0600 
    194 H194       -3.5402  -21.2392  -41.5587 H         1 UNK         0.0600 
    195 H195       -2.2045  -24.0930  -43.8821 H         1 UNK         0.3000 
    196 H196       -3.0709  -26.6706  -43.0311 H         1 UNK         0.0600 
    197 H197       -0.9630  -27.4266  -44.1407 H         1 UNK         0.0600 
    198 H198       -0.6979  -26.0306  -43.1073 H         1 UNK         0.0600 
    199 H199       -0.7605  -25.8313  -44.8557 H         1 UNK         0.0600 
    200 H200       -2.6296  -25.3676  -46.3836 H         1 UNK         0.3000 
    201 H201       -3.8987  -27.8260  -47.4873 H         1 UNK         0.0600 
    202 H202       -1.6430  -27.2110  -48.3224 H         1 UNK         0.0600 
    203 H203       -2.2370  -25.6256  -48.8104 H         1 UNK         0.0600 
    204 H204       -2.8406  -27.0751  -49.6021 H         1 UNK         0.0600 
    205 H205       -4.1592  -24.2972  -47.4809 H         1 UNK         0.3000 
    206 H206       -5.7046  -22.8093  -47.9665 H         1 UNK         0.0600 
    207 H207       -7.2590  -24.1524  -46.5748 H         1 UNK         0.0600 
    208 H208       -8.1072  -23.3470  -47.8847 H         1 UNK         0.0600 
    209 H209       -7.7712  -25.0681  -47.9918 H         1 UNK         0.0600 
    210 H210       -6.3035  -25.6048  -50.0943 H         1 UNK         0.3000 
    211 H211       -7.2841  -24.1958  -52.3620 H         1 UNK         0.0600 
    212 H212       -5.8138  -26.8798  -52.1479 H         1 UNK         0.0600 
    213 H213       -6.6957  -26.3189  -53.5643 H         1 UNK         0.0600 
    214 H214       -7.5577  -26.6363  -52.0659 H         1 UNK         0.0600 
    215 H215       -6.2343  -22.6303  -53.3848 H         1 UNK         0.3000 
    216 H216       -4.7525  -21.2960  -54.3351 H         1 UNK         0.0600 
    217 H217       -2.8848  -22.2601  -55.6426 H         1 UNK         0.0600 
    218 H218       -4.3013  -23.2774  -55.8204 H         1 UNK         0.0600 
    219 H219       -2.9848  -23.7684  -54.7564 H         1 UNK         0.0600 
    220 H220       -4.4625  -22.0961  -51.3761 H         1 UNK         0.3000 
    221 H221       -3.1396  -22.0578  -49.5969 H         1 UNK         0.0600 
    222 H222       -1.7785  -19.7344  -51.0488 H         1 UNK         0.0600 
    223 H223       -3.1405  -19.6219  -49.9403 H         1 UNK         0.0600 
    224 H224       -1.5642  -20.1159  -49.3402 H         1 UNK         0.0600 
    225 H225       -2.6518  -24.0921  -51.0870 H         1 UNK         0.3000 
    226 H226       -1.3894  -25.8135  -51.5346 H         1 UNK         0.0600 
    227 H227        0.0588  -25.4093  -49.5266 H         1 UNK         0.0600 
    228 H228        0.9591  -26.0711  -50.8800 H         1 UNK         0.0600 
    229 H229        1.1064  -24.3692  -50.4864 H         1 UNK         0.0600 
    230 H230        0.6161  -22.9671  -52.2281 H         1 UNK         0.3000 
    231 H231        0.0224  -22.9269  -55.0238 H         1 UNK         0.0600 
    232 H232        2.3483  -23.3401  -55.8823 H         1 UNK         0.0600 
    233 H233        1.7123  -24.7784  -55.1124 H         1 UNK         0.0600 
    234 H234        2.8793  -23.7697  -54.2603 H         1 UNK         0.0600 
    235 H235        0.5268  -21.3096  -52.2484 H         1 UNK         0.3000 
    236 H236        2.5460  -19.4055  -52.9701 H         1 UNK         0.0600 
    237 H237        2.0695  -20.0211  -50.6171 H         1 UNK         0.0600 
    238 H238        1.8692  -18.2935  -50.8689 H         1 UNK         0.0600 
    239 H239        0.4569  -19.3277  -50.7364 H         1 UNK         0.0600 
    240 H240       -0.9975  -19.4583  -53.3449 H         1 UNK         0.3000 
    241 H241       -0.8386  -16.8793  -54.8211 H         1 UNK         0.0600 
    242 H242       -2.8812  -19.8886  -56.4168 H         1 UNK         0.3800 
    243 H243       -1.9264  -20.1665  -54.9789 H         1 UNK         0.3800 
    244 H244       -3.0785  -16.2036  -53.8256 H         1 UNK         0.0800 
    245 H245       -2.9160  -17.4969  -52.6683 H         1 UNK         0.0800 
    246 H246       -0.8140  -15.9913  -49.9638 H         1 UNK         0.0800 
    247 H247       -1.5058  -17.4356  -50.6411 H         1 UNK         0.0800 
@<TRIPOS>BOND
     1    1    2 1    
     2    1  127 1    
     3    1  128 1    
     4    1  129 1    
     5    2    3 2    
     6    2    4 am   BACKBONE|DICT|INTERRES
     7    4    5 1    
     8    4  130 1    
     9    5    6 1    
    10    5   65 1    
    11    5  131 1    
    12    6    7 1    
    13    6  132 1    
    14    6  133 1    
    15    7    8 1    
    16    8    9 1    
    17    8  134 1    
    18    8  135 1    
    19    9   10 ar   
    20    9   14 ar   
    21   10   11 ar   
    22   10  136 1    
    23   11   12 ar   
    24   11  126 1    
    25   12   13 ar   
    26   12  137 1    
    27   13   14 ar   
    28   13   15 1    
    29   14  138 1    
    30   15   16 1    
    31   15  139 1    
    32   15  140 1    
    33   16   17 1    
    34   17   18 1    
    35   17  141 1    
    36   17  142 1    
    37   18   19 1    
    38   18   67 1    
    39   18  143 1    
    40   19   20 am   BACKBONE|DICT|INTERRES
    41   19  144 1    
    42   20   21 2    
    43   20   22 1    
    44   22   23 1    
    45   22   24 1    
    46   22  145 1    
    47   23  146 1    
    48   23  147 1    
    49   23  148 1    
    50   24   25 am   BACKBONE|DICT|INTERRES
    51   24  149 1    
    52   25   26 2    
    53   25   27 1    
    54   27   28 1    
    55   27   29 1    
    56   27  150 1    
    57   28  151 1    
    58   28  152 1    
    59   28  153 1    
    60   29   30 am   BACKBONE|DICT|INTERRES
    61   29  154 1    
    62   30   31 2    
    63   30   32 1    
    64   32   33 1    
    65   32   34 1    
    66   32  155 1    
    67   33  156 1    
    68   33  157 1    
    69   33  158 1    
    70   34   35 am   BACKBONE|DICT|INTERRES
    71   34  159 1    
    72   35   36 2    
    73   35   37 1    
    74   37   38 1    
    75   37   39 1    
    76   37  160 1    
    77   38  161 1    
    78   38  162 1    
    79   38  163 1    
    80   39   40 am   BACKBONE|DICT|INTERRES
    81   39  164 1    
    82   40   41 2    
    83   40   42 1    
    84   42   43 1    
    85   42   44 1    
    86   42  165 1    
    87   43  166 1    
    88   43  167 1    
    89   43  168 1    
    90   44   45 am   BACKBONE|DICT|INTERRES
    91   44  169 1    
    92   45   46 2    
    93   45   47 1    
    94   47   48 1    
    95   47   49 1    
    96   47  170 1    
    97   48  171 1    
    98   48  172 1    
    99   48  173 1    
   100   49   50 am   BACKBONE|DICT|INTERRES
   101   49  174 1    
   102   50   51 2    
   103   50   52 1    
   104   52   53 1    
   105   52   54 1    
   106   52  175 1    
   107   53  176 1    
   108   53  177 1    
   109   53  178 1    
   110   54   55 am   BACKBONE|DICT|INTERRES
   111   54  179 1    
   112   55   56 2    
   113   55   57 1    
   114   57   58 1    
   115   57   59 1    
   116   57  180 1    
   117   58  181 1    
   118   58  182 1    
   119   58  183 1    
   120   59   60 am   BACKBONE|DICT|INTERRES
   121   59  184 1    
   122   60   61 2    
   123   60   62 1    
   124   62   63 1    
   125   62   64 1    
   126   62  185 1    
   127   63  186 1    
   128   63  187 1    
   129   63  188 1    
   130   64   65 am   BACKBONE|DICT|INTERRES
   131   64  189 1    
   132   65   66 2    
   133   67   68 2    
   134   67   69 am   BACKBONE|DICT|INTERRES
   135   69   70 1    
   136   69  190 1    
   137   70   71 1    
   138   70   72 1    
   139   70  191 1    
   140   71  192 1    
   141   71  193 1    
   142   71  194 1    
   143   72   73 2    
   144   72   74 am   BACKBONE|DICT|INTERRES
   145   74   75 1    
   146   74  195 1    
   147   75   76 1    
   148   75   77 1    
   149   75  196 1    
   150   76  197 1    
   151   76  198 1    
   152   76  199 1    
   153   77   78 2    
   154   77   79 am   BACKBONE|DICT|INTERRES
   155   79   80 1    
   156   79  200 1    
   157   80   81 1    
   158   80   82 1    
   159   80  201 1    
   160   81  202 1    
   161   81  203 1    
   162   81  204 1    
   163   82   83 2    
   164   82   84 am   BACKBONE|DICT|INTERRES
   165   84   85 1    
   166   84  205 1    
   167   85   86 1    
   168   85   87 1    
   169   85  206 1    
   170   86  207 1    
   171   86  208 1    
   172   86  209 1    
   173   87   88 2    
   174   87   89 am   BACKBONE|DICT|INTERRES
   175   89   90 1    
   176   89  210 1    
   177   90   91 1    
   178   90   92 1    
   179   90  211 1    
   180   91  212 1    
   181   91  213 1    
   182   91  214 1    
   183   92   93 2    
   184   92   94 am   BACKBONE|DICT|INTERRES
   185   94   95 1    
   186   94  215 1    
   187   95   96 1    
   188   95   97 1    
   189   95  216 1    
   190   96  217 1    
   191   96  218 1    
   192   96  219 1    
   193   97   98 2    
   194   97   99 am   BACKBONE|DICT|INTERRES
   195   99  100 1    
   196   99  220 1    
   197  100  101 1    
   198  100  102 1    
   199  100  221 1    
   200  101  222 1    
   201  101  223 1    
   202  101  224 1    
   203  102  103 2    
   204  102  104 am   BACKBONE|DICT|INTERRES
   205  104  105 1    
   206  104  225 1    
   207  105  106 1    
   208  105  107 1    
   209  105  226 1    
   210  106  227 1    
   211  106  228 1    
   212  106  229 1    
   213  107  108 2    
   214  107  109 am   BACKBONE|DICT|INTERRES
   215  109  110 1    
   216  109  230 1    
   217  110  111 1    
   218  110  112 1    
   219  110  231 1    
   220  111  232 1    
   221  111  233 1    
   222  111  234 1    
   223  112  113 2    
   224  112  114 am   BACKBONE|DICT|INTERRES
   225  114  115 1    
   226  114  235 1    
   227  115  116 1    
   228  115  117 1    
   229  115  236 1    
   230  116  237 1    
   231  116  238 1    
   232  116  239 1    
   233  117  118 2    
   234  117  119 am   BACKBONE|DICT|INTERRES
   235  119  120 1    
   236  119  240 1    
   237  120  121 1    
   238  120  124 1    
   239  120  241 1    
   240  121  122 am   BACKBONE|DICT|INTERRES
   241  121  123 2    
   242  122  242 1    
   243  122  243 1    
   244  124  125 1    
   245  124  244 1    
   246  124  245 1    
   247  125  126 1    
   248  126  246 1    
   249  126  247 1    
@<TRIPOS>SUBSTRUCTURE
     1 UNK         1 GROUP             0       ****    0 ROOT    
