@<TRIPOS>MOLECULE
3R540
247   249    1
SMALL
USER_CHARGES


@<TRIPOS>ATOM
      1 CA          3.5526  -12.5356  -50.6460 C.3       0 UNK        -0.1800 
      2 C           2.8486  -12.6607  -49.3023 C.2       0 UNK         0.5000 
      3 O           1.8584  -11.9684  -49.0677 O.2       0 UNK        -0.5000 
      4 N           3.3586  -13.5416  -48.4300 N.am      1 UNK        -0.5000 
      5 CA          2.8414  -13.8449  -47.0869 C.3       1 UNK         0.1400 
      6 C6          1.4309  -14.4950  -47.0857 C.3       23 UNK        -0.0398 
      7 S7          1.3903  -16.0385  -48.0530 S.3       23 UNK        -0.2404 
      8 C8          0.0227  -15.7072  -49.2167 C.3       23 UNK        -0.0205 
      9 C9         -0.1689  -16.8394  -50.2212 C.ar      23 UNK        -0.0193 
     10 C10        -0.3110  -16.5658  -51.5857 C.ar      23 UNK        -0.1150 
     11 C11        -0.4650  -17.6091  -52.5048 C.ar      23 UNK        -0.0193 
     12 C12        -0.4516  -18.9325  -52.0557 C.ar      23 UNK        -0.1150 
     13 C13        -0.3215  -19.2222  -50.6951 C.ar      23 UNK        -0.0193 
     14 C14        -0.2102  -18.1669  -49.7861 C.ar      23 UNK        -0.1150 
     15 C15        -0.3180  -20.6702  -50.2189 C.3       23 UNK        -0.0205 
     16 S16         1.2345  -21.1438  -49.3974 S.3       23 UNK        -0.2404 
     17 C17         0.8329  -20.8160  -47.6494 C.3       23 UNK        -0.0398 
     18 CA          0.4980  -22.0943  -46.8543 C.3       11 UNK         0.1400 
     19 N           0.6218  -21.8597  -45.4163 N.am      11 UNK        -0.5000 
     20 C           0.6173  -22.8229  -44.4866 C.2       10 UNK         0.5000 
     21 O           0.5381  -24.0233  -44.7464 O.2       10 UNK        -0.5000 
     22 CA          0.6637  -22.3591  -43.0206 C.3       10 UNK         0.1400 
     23 CB          2.0983  -21.9934  -42.6119 C.3       10 UNK        -0.1800 
     24 N          -0.2251  -21.2239  -42.7655 N.am      10 UNK        -0.5000 
     25 C          -1.5600  -21.2695  -42.8824 C.2       9 UNK         0.5000 
     26 O          -2.1843  -22.2856  -43.1880 O.2       9 UNK        -0.5000 
     27 CA         -2.3245  -19.9520  -42.6653 C.3       9 UNK         0.1400 
     28 CB         -2.4617  -19.6391  -41.1677 C.3       9 UNK        -0.1800 
     29 N          -1.7086  -18.8148  -43.3483 N.am      9 UNK        -0.5000 
     30 C          -1.5546  -18.7036  -44.6749 C.2       8 UNK         0.5000 
     31 O          -1.9151  -19.5572  -45.4821 O.2       8 UNK        -0.5000 
     32 CA         -0.8280  -17.4499  -45.1861 C.3       8 UNK         0.1400 
     33 CB         -1.7619  -16.2304  -45.2032 C.3       8 UNK        -0.1800 
     34 N           0.3631  -17.1514  -44.3956 N.am      8 UNK        -0.5000 
     35 C           1.4576  -17.9234  -44.3645 C.2       7 UNK         0.5000 
     36 O           1.5853  -18.9665  -45.0065 O.2       7 UNK        -0.5000 
     37 CA          2.5805  -17.4671  -43.4187 C.3       7 UNK         0.1400 
     38 CB          3.3915  -16.3306  -44.0588 C.3       7 UNK        -0.1800 
     39 N           2.0820  -17.0439  -42.1073 N.am      7 UNK        -0.5000 
     40 C           1.4474  -17.8542  -41.2482 C.2       6 UNK         0.5000 
     41 O           1.2141  -19.0424  -41.4712 O.2       6 UNK        -0.5000 
     42 CA          0.9563  -17.2298  -39.9306 C.3       6 UNK         0.1400 
     43 CB          2.1263  -17.0337  -38.9544 C.3       6 UNK        -0.1800 
     44 N           0.2339  -15.9639  -40.0815 N.am      6 UNK        -0.5000 
     45 C          -0.8298  -15.7451  -40.8686 C.2       5 UNK         0.5000 
     46 O          -1.2660  -16.5650  -41.6743 O.2       5 UNK        -0.5000 
     47 CA         -1.5443  -14.3855  -40.7343 C.3       5 UNK         0.1400 
     48 CB         -2.9150  -14.5792  -40.0681 C.3       5 UNK        -0.1800 
     49 N          -0.7808  -13.4092  -39.9495 N.am      5 UNK        -0.5000 
     50 C           0.2201  -12.6238  -40.3709 C.2       4 UNK         0.5000 
     51 O           0.8125  -11.8780  -39.5897 O.2       4 UNK        -0.5000 
     52 CA          0.6138  -12.6102  -41.8657 C.3       4 UNK         0.1400 
     53 CB         -0.1922  -11.5425  -42.6218 C.3       4 UNK        -0.1800 
     54 N           2.0357  -12.3302  -42.0330 N.am      4 UNK        -0.5000 
     55 C           3.0227  -13.1894  -41.7586 C.2       3 UNK         0.5000 
     56 O           2.8265  -14.3528  -41.4000 O.2       3 UNK        -0.5000 
     57 CA          4.4568  -12.6601  -41.9689 C.3       3 UNK         0.1400 
     58 CB          5.5388  -13.7007  -41.6300 C.3       3 UNK        -0.1800 
     59 N           4.6438  -12.2045  -43.3480 N.am      3 UNK        -0.5000 
     60 C           4.2915  -10.9994  -43.8171 C.2       2 UNK         0.5000 
     61 O           3.8403  -10.0991  -43.1078 O.2       2 UNK        -0.5000 
     62 CA          4.4090  -10.7825  -45.3385 C.3       2 UNK         0.1400 
     63 CB          5.8085  -10.2662  -45.7052 C.3       2 UNK        -0.1800 
     64 N           4.1137  -11.9819  -46.1294 N.am      2 UNK        -0.5000 
     65 C           2.9328  -12.6197  -46.1513 C.2       1 UNK         0.5000 
     66 O           1.9568  -12.2702  -45.4866 O.2       1 UNK        -0.5000 
     67 C          -0.8902  -22.6621  -47.2272 C.2       11 UNK         0.5000 
     68 O          -0.9714  -23.5875  -48.0358 O.2       11 UNK        -0.5000 
     69 N          -1.9576  -22.1307  -46.6142 N.am      12 UNK        -0.5000 
     70 CA         -3.3303  -22.6082  -46.7796 C.3       12 UNK         0.1400 
     71 CB         -4.3127  -21.6416  -46.1038 C.3       12 UNK        -0.1800 
     72 C          -3.5239  -24.0427  -46.2587 C.2       12 UNK         0.5000 
     73 O          -4.1837  -24.8398  -46.9232 O.2       12 UNK        -0.5000 
     74 N          -2.9061  -24.3691  -45.1163 N.am      13 UNK        -0.5000 
     75 CA         -2.8757  -25.7253  -44.5664 C.3       13 UNK         0.1400 
     76 CB         -2.2713  -25.6919  -43.1544 C.3       13 UNK        -0.1800 
     77 C          -2.1141  -26.7195  -45.4665 C.2       13 UNK         0.5000 
     78 O          -2.5158  -27.8800  -45.5619 O.2       13 UNK        -0.5000 
     79 N          -1.0387  -26.2475  -46.1106 N.am      14 UNK        -0.5000 
     80 CA         -0.1966  -27.0372  -47.0040 C.3       14 UNK         0.1400 
     81 CB          1.1806  -26.3660  -47.1312 C.3       14 UNK        -0.1800 
     82 C          -0.8196  -27.2630  -48.3942 C.2       14 UNK         0.5000 
     83 O          -0.8330  -28.4023  -48.8630 O.2       14 UNK        -0.5000 
     84 N          -1.2743  -26.1832  -49.0463 N.am      15 UNK        -0.5000 
     85 CA         -1.5700  -26.1655  -50.4836 C.3       15 UNK         0.1400 
     86 CB         -0.3835  -25.5011  -51.2064 C.3       15 UNK        -0.1800 
     87 C          -2.8897  -25.4660  -50.8565 C.2       15 UNK         0.5000 
     88 O          -3.1850  -25.3609  -52.0495 O.2       15 UNK        -0.5000 
     89 N          -3.6495  -24.9627  -49.8699 N.am      16 UNK        -0.5000 
     90 CA         -4.9446  -24.2713  -50.0196 C.3       16 UNK         0.1400 
     91 CB         -6.0264  -25.2663  -50.4897 C.3       16 UNK        -0.1800 
     92 C          -4.9048  -23.0062  -50.9068 C.2       16 UNK         0.5000 
     93 O          -5.9493  -22.5732  -51.3970 O.2       16 UNK        -0.5000 
     94 N          -3.6990  -22.4658  -51.1446 N.am      17 UNK        -0.5000 
     95 CA         -3.3880  -21.4068  -52.1118 C.3       17 UNK         0.1400 
     96 CB         -3.8715  -20.0397  -51.5884 C.3       17 UNK        -0.1800 
     97 C          -3.8623  -21.7344  -53.5446 C.2       17 UNK         0.5000 
     98 O          -4.3120  -20.8424  -54.2638 O.2       17 UNK        -0.5000 
     99 N          -3.7851  -23.0244  -53.9150 N.am      18 UNK        -0.5000 
    100 CA        -4.2911  -23.6125  -55.1604 C.3       18 UNK         0.1400 
    101 CB        -3.4702  -23.1196  -56.3707 C.3       18 UNK        -0.1800 
    102 C         -5.8092  -23.3846  -55.3221 C.2       18 UNK         0.5000 
    103 O         -6.2586  -22.9117  -56.3658 O.2       18 UNK        -0.5000 
    104 N         -6.5589  -23.6719  -54.2466 N.am      19 UNK        -0.5000 
    105 CA        -7.9899  -23.3942  -54.0654 C.3       19 UNK         0.1400 
    106 CB        -8.8466  -24.2447  -55.0263 C.3       19 UNK        -0.1800 
    107 C         -8.2988  -21.8827  -54.1428 C.2       19 UNK         0.5000 
    108 O         -9.2613  -21.4723  -54.7932 O.2       19 UNK        -0.5000 
    109 N         -7.4377  -21.0888  -53.4900 N.am      20 UNK        -0.5000 
    110 CA        -7.4193  -19.6225  -53.4213 C.3       20 UNK         0.1400 
    111 CB        -8.6793  -19.0970  -52.7030 C.3       20 UNK        -0.1800 
    112 C         -7.1662  -18.8989  -54.7640 C.2       20 UNK         0.5000 
    113 O         -7.3204  -17.6774  -54.8208 O.2       20 UNK        -0.5000 
    114 N         -6.7785  -19.6324  -55.8160 N.am      21 UNK        -0.5000 
    115 CA        -6.5263  -19.0835  -57.1484 C.3       21 UNK         0.1400 
    116 CB        -6.8877  -20.1414  -58.2023 C.3       21 UNK        -0.1800 
    117 C         -5.0729  -18.6156  -57.3449 C.2       21 UNK         0.5000 
    118 O         -4.8331  -17.7871  -58.2243 O.2       21 UNK        -0.5000 
    119 N         -4.1309  -19.1630  -56.5621 N.am      22 UNK        -0.5000 
    120 CA        -2.6743  -18.9440  -56.6662 C.3       22 UNK         0.1400 
    121 C         -2.0273  -19.4219  -58.0061 C.2       22 UNK         0.5000 
    122 N         -2.6834  -20.2595  -58.8003 N.am      22 UNK        -0.7600 
    123 O         -0.8946  -19.0645  -58.3187 O.2       22 UNK        -0.5000 
    124 C124       -2.2515  -17.5010  -56.2611 C.3       23 UNK        -0.0398 
    125 S125       -2.3890  -17.2460  -54.4594 S.3       23 UNK        -0.2404 
    126 C126       -0.6310  -17.3213  -53.9874 C.3       23 UNK        -0.0205 
    127 H127        4.4123  -13.2022  -50.7181 H         1 UNK         0.0600 
    128 H128        3.9015  -11.5135  -50.7933 H         1 UNK         0.0600 
    129 H129        2.8635  -12.7820  -51.4538 H         1 UNK         0.0600 
    130 H130        4.1684  -14.0790  -48.7059 H         1 UNK         0.3000 
    131 H131        3.5299  -14.5788  -46.6655 H         1 UNK         0.0600 
    132 H132        1.1293  -14.7443  -46.0673 H         1 UNK         0.0800 
    133 H133        0.6808  -13.7972  -47.4608 H         1 UNK         0.0800 
    134 H134       -0.9030  -15.5696  -48.6563 H         1 UNK         0.0800 
    135 H135        0.2231  -14.7682  -49.7354 H         1 UNK         0.0800 
    136 H136       -0.3027  -15.5426  -51.9344 H         1 UNK         0.1150 
    137 H137       -0.5523  -19.7356  -52.7717 H         1 UNK         0.1150 
    138 H138       -0.1226  -18.3655  -48.7317 H         1 UNK         0.1150 
    139 H139       -1.1752  -20.8473  -49.5684 H         1 UNK         0.0800 
    140 H140       -0.4278  -21.3470  -51.0648 H         1 UNK         0.0800 
    141 H141        0.0262  -20.0924  -47.5466 H         1 UNK         0.0800 
    142 H142        1.7169  -20.3386  -47.2255 H         1 UNK         0.0800 
    143 H143        1.2386  -22.8545  -47.1122 H         1 UNK         0.0600 
    144 H144        0.7132  -20.8937  -45.1207 H         1 UNK         0.3000 
    145 H145        0.3325  -23.1924  -42.3975 H         1 UNK         0.0600 
    146 H146        2.1547  -21.7518  -41.5504 H         1 UNK         0.0600 
    147 H147        2.7815  -22.8240  -42.7936 H         1 UNK         0.0600 
    148 H148        2.4687  -21.1322  -43.1697 H         1 UNK         0.0600 
    149 H149        0.2166  -20.3561  -42.4723 H         1 UNK         0.3000 
    150 H150       -3.3273  -20.0800  -43.0776 H         1 UNK         0.0600 
    151 H151       -3.0758  -18.7530  -41.0057 H         1 UNK         0.0600 
    152 H152       -2.9354  -20.4657  -40.6368 H         1 UNK         0.0600 
    153 H153       -1.4915  -19.4612  -40.7030 H         1 UNK         0.0600 
    154 H154       -1.4020  -18.0450  -42.7571 H         1 UNK         0.3000 
    155 H155       -0.5118  -17.6468  -46.2126 H         1 UNK         0.0600 
    156 H156       -2.0971  -15.9605  -44.2014 H         1 UNK         0.0600 
    157 H157       -2.6504  -16.4313  -45.8031 H         1 UNK         0.0600 
    158 H158       -1.2688  -15.3613  -45.6380 H         1 UNK         0.0600 
    159 H159        0.3137  -16.3590  -43.7735 H         1 UNK         0.3000 
    160 H160        3.2476  -18.3180  -43.2658 H         1 UNK         0.0600 
    161 H161        2.8066  -15.4142  -44.1455 H         1 UNK         0.0600 
    162 H162        3.7291  -16.6049  -45.0592 H         1 UNK         0.0600 
    163 H163        4.2789  -16.1094  -43.4686 H         1 UNK         0.0600 
    164 H164        2.2611  -16.0803  -41.8316 H         1 UNK         0.3000 
    165 H165        0.2598  -17.9396  -39.4800 H         1 UNK         0.0600 
    166 H166        1.7731  -16.7145  -37.9738 H         1 UNK         0.0600 
    167 H167        2.6780  -17.9640  -38.8126 H         1 UNK         0.0600 
    168 H168        2.8320  -16.2851  -39.3169 H         1 UNK         0.0600 
    169 H169        0.5322  -15.2116  -39.4784 H         1 UNK         0.3000 
    170 H170       -1.7256  -14.0015  -41.7391 H         1 UNK         0.0600 
    171 H171       -3.5325  -15.2764  -40.6363 H         1 UNK         0.0600 
    172 H172       -2.8201  -14.9755  -39.0563 H         1 UNK         0.0600 
    173 H173       -3.4620  -13.6379  -40.0103 H         1 UNK         0.0600 
    174 H174       -1.0306  -13.3618  -38.9725 H         1 UNK         0.3000 
    175 H175        0.4251  -13.5811  -42.3237 H         1 UNK         0.0600 
    176 H176        0.0049  -10.5418  -42.2350 H         1 UNK         0.0600 
    177 H177        0.0504  -11.5435  -43.6844 H         1 UNK         0.0600 
    178 H178       -1.2644  -11.7211  -42.5353 H         1 UNK         0.0600 
    179 H179        2.2872  -11.3936  -42.3238 H         1 UNK         0.3000 
    180 H180        4.5899  -11.8178  -41.2868 H         1 UNK         0.0600 
    181 H181        5.4966  -14.5632  -42.2935 H         1 UNK         0.0600 
    182 H182        5.4256  -14.0650  -40.6081 H         1 UNK         0.0600 
    183 H183        6.5362  -13.2682  -41.7100 H         1 UNK         0.0600 
    184 H184        4.9740  -12.8929  -44.0078 H         1 UNK         0.3000 
    185 H185        3.6807  -10.0176  -45.6161 H         1 UNK         0.0600 
    186 H186        6.0481   -9.3591  -45.1487 H         1 UNK         0.0600 
    187 H187        6.5814  -11.0025  -45.4813 H         1 UNK         0.0600 
    188 H188        5.8737  -10.0215  -46.7655 H         1 UNK         0.0600 
    189 H189        4.8546  -12.3215  -46.7255 H         1 UNK         0.3000 
    190 H190       -1.8331  -21.3224  -46.0083 H         1 UNK         0.3000 
    191 H191       -3.5469  -22.6095  -47.8490 H         1 UNK         0.0600 
    192 H192       -4.2449  -20.6443  -46.5388 H         1 UNK         0.0600 
    193 H193       -5.3420  -21.9802  -46.2273 H         1 UNK         0.0600 
    194 H194       -4.1208  -21.5542  -45.0343 H         1 UNK         0.0600 
    195 H195       -2.4287  -23.6454  -44.5864 H         1 UNK         0.3000 
    196 H196       -3.9064  -26.0765  -44.4846 H         1 UNK         0.0600 
    197 H197       -2.2622  -26.6877  -42.7096 H         1 UNK         0.0600 
    198 H198       -2.8495  -25.0454  -42.4939 H         1 UNK         0.0600 
    199 H199       -1.2444  -25.3264  -43.1634 H         1 UNK         0.0600 
    200 H200       -0.7460  -25.2943  -45.9313 H         1 UNK         0.3000 
    201 H201       -0.0416  -28.0177  -46.5484 H         1 UNK         0.0600 
    202 H202        1.6685  -26.2825  -46.1599 H         1 UNK         0.0600 
    203 H203        1.1064  -25.3638  -47.5536 H         1 UNK         0.0600 
    204 H204        1.8401  -26.9463  -47.7776 H         1 UNK         0.0600 
    205 H205       -1.2012  -25.2721  -48.5941 H         1 UNK         0.3000 
    206 H206       -1.6681  -27.1842  -50.8635 H         1 UNK         0.0600 
    207 H207        0.5445  -26.0407  -51.0165 H         1 UNK         0.0600 
    208 H208       -0.5306  -25.4870  -52.2871 H         1 UNK         0.0600 
    209 H209       -0.2424  -24.4703  -50.8782 H         1 UNK         0.0600 
    210 H210       -3.3552  -25.1126  -48.9121 H         1 UNK         0.3000 
    211 H211       -5.2397  -23.9190  -49.0327 H         1 UNK         0.0600 
    212 H212       -5.8429  -25.6181  -51.5052 H         1 UNK         0.0600 
    213 H213       -7.0167  -24.8095  -50.4758 H         1 UNK         0.0600 
    214 H214       -6.0669  -26.1375  -49.8358 H         1 UNK         0.0600 
    215 H215       -2.9057  -22.9107  -50.7063 H         1 UNK         0.3000 
    216 H216       -2.3055  -21.3631  -52.1944 H         1 UNK         0.0600 
    217 H217       -3.6561  -19.2397  -52.2978 H         1 UNK         0.0600 
    218 H218       -3.3703  -19.7820  -50.6556 H         1 UNK         0.0600 
    219 H219       -4.9423  -20.0362  -51.3940 H         1 UNK         0.0600 
    220 H220       -3.4344  -23.6956  -53.2383 H         1 UNK         0.3000 
    221 H221       -4.1461  -24.6905  -55.0773 H         1 UNK         0.0600 
    222 H222       -3.6019  -22.0524  -56.5450 H         1 UNK         0.0600 
    223 H223       -2.4060  -23.3059  -56.2275 H         1 UNK         0.0600 
    224 H224       -3.7709  -23.6374  -57.2822 H         1 UNK         0.0600 
    225 H225       -6.0800  -23.9996  -53.4198 H         1 UNK         0.3000 
    226 H226       -8.2344  -23.7018  -53.0475 H         1 UNK         0.0600 
    227 H227       -8.6054  -25.3038  -54.9364 H         1 UNK         0.0600 
    228 H228       -9.9081  -24.1339  -54.8023 H         1 UNK         0.0600 
    229 H229       -8.7020  -23.9546  -56.0673 H         1 UNK         0.0600 
    230 H230       -6.7062  -21.5494  -52.9571 H         1 UNK         0.3000 
    231 H231       -6.5643  -19.3667  -52.7980 H         1 UNK         0.0600 
    232 H232       -9.5790  -19.2488  -53.2997 H         1 UNK         0.0600 
    233 H233       -8.5997  -18.0284  -52.5004 H         1 UNK         0.0600 
    234 H234       -8.8230  -19.5958  -51.7445 H         1 UNK         0.0600 
    235 H235       -6.6467  -20.6284  -55.6966 H         1 UNK         0.3000 
    236 H236       -7.1759  -18.2212  -57.3128 H         1 UNK         0.0600 
    237 H237       -7.9078  -20.5021  -58.0684 H         1 UNK         0.0600 
    238 H238       -6.8180  -19.7271  -59.2088 H         1 UNK         0.0600 
    239 H239       -6.2189  -21.0009  -58.1579 H         1 UNK         0.0600 
    240 H240       -4.4136  -19.8041  -55.8243 H         1 UNK         0.3000 
    241 H241       -2.2386  -19.6230  -55.9322 H         1 UNK         0.0600 
    242 H242       -3.6092  -20.5741  -58.5618 H         1 UNK         0.3800 
    243 H243       -2.2508  -20.5713  -59.6555 H         1 UNK         0.3800 
    244 H244       -2.8625  -16.7560  -56.7710 H         1 UNK         0.0800 
    245 H245       -1.2248  -17.2817  -56.5568 H         1 UNK         0.0800 
    246 H246       -0.1280  -18.1006  -54.5624 H         1 UNK         0.0800 
    247 H247       -0.1444  -16.3811  -54.2513 H         1 UNK         0.0800 
@<TRIPOS>BOND
     1    1    2 1    
     2    1  127 1    
     3    1  128 1    
     4    1  129 1    
     5    2    3 2    
     6    2    4 am   BACKBONE|DICT|INTERRES
     7    4    5 1    
     8    4  130 1    
     9    5    6 1    
    10    5   65 1    
    11    5  131 1    
    12    6    7 1    
    13    6  132 1    
    14    6  133 1    
    15    7    8 1    
    16    8    9 1    
    17    8  134 1    
    18    8  135 1    
    19    9   10 ar   
    20    9   14 ar   
    21   10   11 ar   
    22   10  136 1    
    23   11   12 ar   
    24   11  126 1    
    25   12   13 ar   
    26   12  137 1    
    27   13   14 ar   
    28   13   15 1    
    29   14  138 1    
    30   15   16 1    
    31   15  139 1    
    32   15  140 1    
    33   16   17 1    
    34   17   18 1    
    35   17  141 1    
    36   17  142 1    
    37   18   19 1    
    38   18   67 1    
    39   18  143 1    
    40   19   20 am   BACKBONE|DICT|INTERRES
    41   19  144 1    
    42   20   21 2    
    43   20   22 1    
    44   22   23 1    
    45   22   24 1    
    46   22  145 1    
    47   23  146 1    
    48   23  147 1    
    49   23  148 1    
    50   24   25 am   BACKBONE|DICT|INTERRES
    51   24  149 1    
    52   25   26 2    
    53   25   27 1    
    54   27   28 1    
    55   27   29 1    
    56   27  150 1    
    57   28  151 1    
    58   28  152 1    
    59   28  153 1    
    60   29   30 am   BACKBONE|DICT|INTERRES
    61   29  154 1    
    62   30   31 2    
    63   30   32 1    
    64   32   33 1    
    65   32   34 1    
    66   32  155 1    
    67   33  156 1    
    68   33  157 1    
    69   33  158 1    
    70   34   35 am   BACKBONE|DICT|INTERRES
    71   34  159 1    
    72   35   36 2    
    73   35   37 1    
    74   37   38 1    
    75   37   39 1    
    76   37  160 1    
    77   38  161 1    
    78   38  162 1    
    79   38  163 1    
    80   39   40 am   BACKBONE|DICT|INTERRES
    81   39  164 1    
    82   40   41 2    
    83   40   42 1    
    84   42   43 1    
    85   42   44 1    
    86   42  165 1    
    87   43  166 1    
    88   43  167 1    
    89   43  168 1    
    90   44   45 am   BACKBONE|DICT|INTERRES
    91   44  169 1    
    92   45   46 2    
    93   45   47 1    
    94   47   48 1    
    95   47   49 1    
    96   47  170 1    
    97   48  171 1    
    98   48  172 1    
    99   48  173 1    
   100   49   50 am   BACKBONE|DICT|INTERRES
   101   49  174 1    
   102   50   51 2    
   103   50   52 1    
   104   52   53 1    
   105   52   54 1    
   106   52  175 1    
   107   53  176 1    
   108   53  177 1    
   109   53  178 1    
   110   54   55 am   BACKBONE|DICT|INTERRES
   111   54  179 1    
   112   55   56 2    
   113   55   57 1    
   114   57   58 1    
   115   57   59 1    
   116   57  180 1    
   117   58  181 1    
   118   58  182 1    
   119   58  183 1    
   120   59   60 am   BACKBONE|DICT|INTERRES
   121   59  184 1    
   122   60   61 2    
   123   60   62 1    
   124   62   63 1    
   125   62   64 1    
   126   62  185 1    
   127   63  186 1    
   128   63  187 1    
   129   63  188 1    
   130   64   65 am   BACKBONE|DICT|INTERRES
   131   64  189 1    
   132   65   66 2    
   133   67   68 2    
   134   67   69 am   BACKBONE|DICT|INTERRES
   135   69   70 1    
   136   69  190 1    
   137   70   71 1    
   138   70   72 1    
   139   70  191 1    
   140   71  192 1    
   141   71  193 1    
   142   71  194 1    
   143   72   73 2    
   144   72   74 am   BACKBONE|DICT|INTERRES
   145   74   75 1    
   146   74  195 1    
   147   75   76 1    
   148   75   77 1    
   149   75  196 1    
   150   76  197 1    
   151   76  198 1    
   152   76  199 1    
   153   77   78 2    
   154   77   79 am   BACKBONE|DICT|INTERRES
   155   79   80 1    
   156   79  200 1    
   157   80   81 1    
   158   80   82 1    
   159   80  201 1    
   160   81  202 1    
   161   81  203 1    
   162   81  204 1    
   163   82   83 2    
   164   82   84 am   BACKBONE|DICT|INTERRES
   165   84   85 1    
   166   84  205 1    
   167   85   86 1    
   168   85   87 1    
   169   85  206 1    
   170   86  207 1    
   171   86  208 1    
   172   86  209 1    
   173   87   88 2    
   174   87   89 am   BACKBONE|DICT|INTERRES
   175   89   90 1    
   176   89  210 1    
   177   90   91 1    
   178   90   92 1    
   179   90  211 1    
   180   91  212 1    
   181   91  213 1    
   182   91  214 1    
   183   92   93 2    
   184   92   94 am   BACKBONE|DICT|INTERRES
   185   94   95 1    
   186   94  215 1    
   187   95   96 1    
   188   95   97 1    
   189   95  216 1    
   190   96  217 1    
   191   96  218 1    
   192   96  219 1    
   193   97   98 2    
   194   97   99 am   BACKBONE|DICT|INTERRES
   195   99  100 1    
   196   99  220 1    
   197  100  101 1    
   198  100  102 1    
   199  100  221 1    
   200  101  222 1    
   201  101  223 1    
   202  101  224 1    
   203  102  103 2    
   204  102  104 am   BACKBONE|DICT|INTERRES
   205  104  105 1    
   206  104  225 1    
   207  105  106 1    
   208  105  107 1    
   209  105  226 1    
   210  106  227 1    
   211  106  228 1    
   212  106  229 1    
   213  107  108 2    
   214  107  109 am   BACKBONE|DICT|INTERRES
   215  109  110 1    
   216  109  230 1    
   217  110  111 1    
   218  110  112 1    
   219  110  231 1    
   220  111  232 1    
   221  111  233 1    
   222  111  234 1    
   223  112  113 2    
   224  112  114 am   BACKBONE|DICT|INTERRES
   225  114  115 1    
   226  114  235 1    
   227  115  116 1    
   228  115  117 1    
   229  115  236 1    
   230  116  237 1    
   231  116  238 1    
   232  116  239 1    
   233  117  118 2    
   234  117  119 am   BACKBONE|DICT|INTERRES
   235  119  120 1    
   236  119  240 1    
   237  120  121 1    
   238  120  124 1    
   239  120  241 1    
   240  121  122 am   BACKBONE|DICT|INTERRES
   241  121  123 2    
   242  122  242 1    
   243  122  243 1    
   244  124  125 1    
   245  124  244 1    
   246  124  245 1    
   247  125  126 1    
   248  126  246 1    
   249  126  247 1    
@<TRIPOS>SUBSTRUCTURE
     1 UNK         1 GROUP             0       ****    0 ROOT    
