@<TRIPOS>MOLECULE
3R540
247   249    1
SMALL
USER_CHARGES


@<TRIPOS>ATOM
      1 CA         -3.8036  -17.5777  -47.1224 C.3       0 UNK        -0.1800 
      2 C          -3.7682  -16.1053  -47.5074 C.2       0 UNK         0.5000 
      3 O          -4.7377  -15.3865  -47.2666 O.2       0 UNK        -0.5000 
      4 N          -2.6607  -15.6540  -48.1092 N.am      1 UNK        -0.5000 
      5 CA         -2.4018  -14.2519  -48.4392 C.3       1 UNK         0.1400 
      6 C6         -1.2729  -14.0914  -49.4897 C.3       23 UNK        -0.0398 
      7 S7          0.2998  -14.9417  -49.0931 S.3       23 UNK        -0.2404 
      8 C8          0.4935  -16.0933  -50.4931 C.3       23 UNK        -0.0205 
      9 C9          0.1367  -17.5288  -50.1288 C.ar      23 UNK        -0.0193 
     10 C10        -1.1915  -17.9620  -50.1430 C.ar      23 UNK        -0.1150 
     11 C11        -1.5061  -19.2955  -49.8661 C.ar      23 UNK        -0.0193 
     12 C12        -0.4775  -20.2038  -49.5938 C.ar      23 UNK        -0.1150 
     13 C13         0.8612  -19.7887  -49.5796 C.ar      23 UNK        -0.0193 
     14 C14         1.1512  -18.4452  -49.8379 C.ar      23 UNK        -0.1150 
     15 C15         2.0354  -20.7443  -49.3413 C.3       23 UNK        -0.0205 
     16 S16         1.6359  -22.3765  -48.6239 S.3       23 UNK        -0.2404 
     17 C17         1.1088  -21.8913  -46.9476 C.3       23 UNK        -0.0398 
     18 CA          0.3390  -22.9919  -46.1822 C.3       11 UNK         0.1400 
     19 N           0.1652  -22.6276  -44.7728 N.am      11 UNK        -0.5000 
     20 C          -0.4023  -23.3888  -43.8250 C.2       10 UNK         0.5000 
     21 O          -0.8209  -24.5306  -44.0174 O.2       10 UNK        -0.5000 
     22 CA         -0.5702  -22.7389  -42.4408 C.3       10 UNK         0.1400 
     23 CB          0.7399  -22.7896  -41.6396 C.3       10 UNK        -0.1800 
     24 N          -1.0222  -21.3527  -42.5661 N.am      10 UNK        -0.5000 
     25 C          -2.2915  -21.0000  -42.8164 C.2       9 UNK         0.5000 
     26 O          -3.2257  -21.8007  -42.8556 O.2       9 UNK        -0.5000 
     27 CA         -2.5664  -19.5083  -43.0910 C.3       9 UNK         0.1400 
     28 CB         -2.9452  -18.7843  -41.7912 C.3       9 UNK        -0.1800 
     29 N          -1.4407  -18.8195  -43.7287 N.am      9 UNK        -0.5000 
     30 C          -1.0168  -19.0798  -44.9742 C.2       8 UNK         0.5000 
     31 O          -1.5558  -19.8994  -45.7140 O.2       8 UNK        -0.5000 
     32 CA          0.2449  -18.3540  -45.4688 C.3       8 UNK         0.1400 
     33 CB         -0.1141  -17.0348  -46.1539 C.3       8 UNK        -0.1800 
     34 N           1.2327  -18.1160  -44.4217 N.am      8 UNK        -0.5000 
     35 C           1.8879  -19.0757  -43.7561 C.2       7 UNK         0.5000 
     36 O           1.6547  -20.2774  -43.8925 O.2       7 UNK        -0.5000 
     37 CA          2.9725  -18.6143  -42.7718 C.3       7 UNK         0.1400 
     38 CB          4.2695  -18.2808  -43.5249 C.3       7 UNK        -0.1800 
     39 N           2.5311  -17.4344  -42.0311 N.am      7 UNK        -0.5000 
     40 C           2.0176  -17.4610  -40.7951 C.2       6 UNK         0.5000 
     41 O           1.9334  -18.4805  -40.1092 O.2       6 UNK        -0.5000 
     42 CA          1.4959  -16.1256  -40.2260 C.3       6 UNK         0.1400 
     43 CB          2.5999  -15.4145  -39.4288 C.3       6 UNK        -0.1800 
     44 N           0.9717  -15.2057  -41.2392 N.am      6 UNK        -0.5000 
     45 C          -0.0819  -15.4560  -42.0285 C.2       5 UNK         0.5000 
     46 O          -0.7177  -16.5093  -42.0103 O.2       5 UNK        -0.5000 
     47 CA         -0.4701  -14.3614  -43.0387 C.3       5 UNK         0.1400 
     48 CB         -1.3417  -13.2984  -42.3535 C.3       5 UNK        -0.1800 
     49 N           0.6401  -13.6970  -43.7349 N.am      5 UNK        -0.5000 
     50 C           1.7062  -14.2792  -44.3069 C.2       4 UNK         0.5000 
     51 O           2.0119  -15.4613  -44.1485 O.2       4 UNK        -0.5000 
     52 CA          2.5661  -13.3943  -45.2236 C.3       4 UNK         0.1400 
     53 CB          3.3656  -14.2110  -46.2573 C.3       4 UNK        -0.1800 
     54 N           1.7333  -12.4151  -45.9207 N.am      4 UNK        -0.5000 
     55 C           2.0852  -11.1471  -46.1654 C.2       3 UNK         0.5000 
     56 O           3.1577  -10.6564  -45.8101 O.2       3 UNK        -0.5000 
     57 CA          1.0834  -10.2694  -46.9430 C.3       3 UNK         0.1400 
     58 CB          1.5027  -10.1656  -48.4179 C.3       3 UNK        -0.1800 
     59 N          -0.3033  -10.7357  -46.8856 N.am      3 UNK        -0.5000 
     60 C          -1.0723  -10.7688  -45.7884 C.2       2 UNK         0.5000 
     61 O          -0.6854  -10.4268  -44.6709 O.2       2 UNK        -0.5000 
     62 CA         -2.5126  -11.2892  -45.9698 C.3       2 UNK         0.1400 
     63 CB         -3.4882  -10.1151  -46.1407 C.3       2 UNK        -0.1800 
     64 N          -2.6695  -12.2103  -47.1007 N.am      2 UNK        -0.5000 
     65 C          -2.1155  -13.4286  -47.1659 C.2       1 UNK         0.5000 
     66 O          -1.3817  -13.8862  -46.2886 O.2       1 UNK        -0.5000 
     67 C          -1.0019  -23.3243  -46.8701 C.2       11 UNK         0.5000 
     68 O          -1.0685  -24.2971  -47.6191 O.2       11 UNK        -0.5000 
     69 N          -2.0522  -22.5464  -46.5711 N.am      12 UNK        -0.5000 
     70 CA         -3.4041  -22.6526  -47.1243 C.3       12 UNK         0.1400 
     71 CB         -4.3020  -21.5919  -46.4679 C.3       12 UNK        -0.1800 
     72 C          -4.0675  -24.0375  -47.0270 C.2       12 UNK         0.5000 
     73 O          -4.9324  -24.3288  -47.8527 O.2       12 UNK        -0.5000 
     74 N          -3.6490  -24.8643  -46.0589 N.am      13 UNK        -0.5000 
     75 CA         -4.0895  -26.2519  -45.9086 C.3       13 UNK         0.1400 
     76 CB         -3.6455  -26.7702  -44.5326 C.3       13 UNK        -0.1800 
     77 C          -3.5713  -27.1788  -47.0284 C.2       13 UNK         0.5000 
     78 O          -4.2564  -28.1404  -47.3788 O.2       13 UNK        -0.5000 
     79 N          -2.3830  -26.8749  -47.5671 N.am      14 UNK        -0.5000 
     80 CA         -1.7535  -27.5891  -48.6799 C.3       14 UNK         0.1400 
     81 CB         -0.2652  -27.7909  -48.3534 C.3       14 UNK        -0.1800 
     82 C          -1.8982  -26.8240  -50.0082 C.2       14 UNK         0.5000 
     83 O          -1.8289  -27.4402  -51.0718 O.2       14 UNK        -0.5000 
     84 N          -2.0527  -25.4955  -49.9241 N.am      15 UNK        -0.5000 
     85 CA         -2.1435  -24.4841  -50.9822 C.3       15 UNK         0.1400 
     86 CB         -3.2945  -24.7738  -51.9636 C.3       15 UNK        -0.1800 
     87 C          -0.8211  -24.2281  -51.7253 C.2       15 UNK         0.5000 
     88 O          -0.5289  -23.0727  -52.0350 O.2       15 UNK        -0.5000 
     89 N          -0.0467  -25.2909  -51.9849 N.am      16 UNK        -0.5000 
     90 CA          1.2609  -25.3091  -52.6439 C.3       16 UNK         0.1400 
     91 CB          2.3321  -24.6775  -51.7267 C.3       16 UNK        -0.1800 
     92 C           1.1963  -24.6805  -54.0504 C.2       16 UNK         0.5000 
     93 O           0.7570  -25.3446  -54.9902 O.2       16 UNK        -0.5000 
     94 N           1.6078  -23.4117  -54.1626 N.am      17 UNK        -0.5000 
     95 CA          1.5323  -22.6033  -55.3785 C.3       17 UNK         0.1400 
     96 CB          2.4471  -21.3799  -55.2063 C.3       17 UNK        -0.1800 
     97 C           0.1011  -22.1500  -55.7342 C.2       17 UNK         0.5000 
     98 O          -0.1257  -21.7614  -56.8807 O.2       17 UNK        -0.5000 
     99 N          -0.8206  -22.1815  -54.7561 N.am      18 UNK        -0.5000 
    100 CA        -2.2019  -21.6862  -54.8220 C.3       18 UNK         0.1400 
    101 CB        -3.0508  -22.5284  -55.7960 C.3       18 UNK        -0.1800 
    102 C         -2.2452  -20.1703  -55.1131 C.2       18 UNK         0.5000 
    103 O         -2.9715  -19.7174  -55.9996 O.2       18 UNK        -0.5000 
    104 N         -1.3962  -19.4266  -54.3916 N.am      19 UNK        -0.5000 
    105 CA        -1.0486  -18.0352  -54.6761 C.3       19 UNK         0.1400 
    106 CB         0.2608  -17.7027  -53.9453 C.3       19 UNK        -0.1800 
    107 C         -2.1420  -17.0026  -54.3423 C.2       19 UNK         0.5000 
    108 O         -2.1051  -15.9054  -54.9018 O.2       19 UNK        -0.5000 
    109 N         -3.0840  -17.3440  -53.4545 N.am      20 UNK        -0.5000 
    110 CA        -4.2018  -16.4828  -53.0686 C.3       20 UNK         0.1400 
    111 CB        -3.7390  -15.3851  -52.0842 C.3       20 UNK        -0.1800 
    112 C         -5.3640  -17.3408  -52.5428 C.2       20 UNK         0.5000 
    113 O         -5.6096  -18.4236  -53.0788 O.2       20 UNK        -0.5000 
    114 N         -6.0640  -16.8472  -51.5119 N.am      21 UNK        -0.5000 
    115 CA        -7.2323  -17.4506  -50.8653 C.3       21 UNK         0.1400 
    116 CB        -7.9649  -16.3552  -50.0691 C.3       21 UNK        -0.1800 
    117 C         -6.8823  -18.6791  -49.9965 C.2       21 UNK         0.5000 
    118 O         -7.1870  -18.7116  -48.8028 O.2       21 UNK        -0.5000 
    119 N         -6.2326  -19.6653  -50.6175 N.am      22 UNK        -0.5000 
    120 CA        -5.9127  -20.9781  -50.0486 C.3       22 UNK         0.1400 
    121 C         -7.1765  -21.8738  -49.8576 C.2       22 UNK         0.5000 
    122 N         -7.0732  -22.9885  -49.1466 N.am      22 UNK        -0.7600 
    123 O         -8.2564  -21.5928  -50.3745 O.2       22 UNK        -0.5000 
    124 C124       -4.8428  -21.7049  -50.9036 C.3       23 UNK        -0.0398 
    125 S125       -3.3261  -20.7652  -51.3297 S.3       23 UNK        -0.2404 
    126 C126       -2.9534  -19.7644  -49.8590 C.3       23 UNK        -0.0205 
    127 H127       -2.9062  -18.1044  -47.4444 H         1 UNK         0.0600 
    128 H128       -4.6657  -18.0660  -47.5768 H         1 UNK         0.0600 
    129 H129       -3.8840  -17.6813  -46.0403 H         1 UNK         0.0600 
    130 H130       -1.8710  -16.2695  -48.2394 H         1 UNK         0.3000 
    131 H131       -3.3138  -13.8533  -48.8894 H         1 UNK         0.0600 
    132 H132       -1.0518  -13.0353  -49.6533 H         1 UNK         0.0800 
    133 H133       -1.6369  -14.4477  -50.4502 H         1 UNK         0.0800 
    134 H134       -0.0947  -15.7716  -51.3531 H         1 UNK         0.0800 
    135 H135        1.5323  -16.0470  -50.8232 H         1 UNK         0.0800 
    136 H136       -1.9778  -17.2639  -50.3821 H         1 UNK         0.1150 
    137 H137       -0.7323  -21.2379  -49.4132 H         1 UNK         0.1150 
    138 H138        2.1808  -18.1154  -49.8419 H         1 UNK         0.1150 
    139 H139        2.5290  -20.9129  -50.2991 H         1 UNK         0.0800 
    140 H140        2.7717  -20.2603  -48.6975 H         1 UNK         0.0800 
    141 H141        0.4911  -20.9997  -47.0261 H         1 UNK         0.0800 
    142 H142        2.0013  -21.6009  -46.3914 H         1 UNK         0.0800 
    143 H143        0.9443  -23.9006  -46.1967 H         1 UNK         0.0600 
    144 H144        0.5279  -21.7194  -44.4981 H         1 UNK         0.3000 
    145 H145       -1.3209  -23.3093  -41.8894 H         1 UNK         0.0600 
    146 H146        0.6120  -22.3538  -40.6486 H         1 UNK         0.0600 
    147 H147        1.0698  -23.8199  -41.5015 H         1 UNK         0.0600 
    148 H148        1.5470  -22.2531  -42.1385 H         1 UNK         0.0600 
    149 H149       -0.3066  -20.6396  -42.5864 H         1 UNK         0.3000 
    150 H150       -3.4203  -19.4531  -43.7699 H         1 UNK         0.0600 
    151 H151       -3.7928  -19.2690  -41.3050 H         1 UNK         0.0600 
    152 H152       -3.2308  -17.7504  -41.9856 H         1 UNK         0.0600 
    153 H153       -2.1179  -18.7762  -41.0804 H         1 UNK         0.0600 
    154 H154       -0.9714  -18.1064  -43.1778 H         1 UNK         0.3000 
    155 H155        0.7273  -18.9796  -46.2186 H         1 UNK         0.0600 
    156 H156       -0.7032  -16.3874  -45.5060 H         1 UNK         0.0600 
    157 H157       -0.6928  -17.2270  -47.0551 H         1 UNK         0.0600 
    158 H158        0.7776  -16.4883  -46.4599 H         1 UNK         0.0600 
    159 H159        1.4964  -17.1447  -44.2672 H         1 UNK         0.3000 
    160 H160        3.1809  -19.4407  -42.0890 H         1 UNK         0.0600 
    161 H161        4.1304  -17.4573  -44.2270 H         1 UNK         0.0600 
    162 H162        4.6235  -19.1419  -44.0933 H         1 UNK         0.0600 
    163 H163        5.0632  -17.9989  -42.8330 H         1 UNK         0.0600 
    164 H164        2.5049  -16.5622  -42.5488 H         1 UNK         0.3000 
    165 H165        0.6787  -16.3616  -39.5412 H         1 UNK         0.0600 
    166 H166        2.2199  -14.5160  -38.9423 H         1 UNK         0.0600 
    167 H167        2.9965  -16.0629  -38.6463 H         1 UNK         0.0600 
    168 H168        3.4341  -15.1242  -40.0688 H         1 UNK         0.0600 
    169 H169        1.4491  -14.3227  -41.3443 H         1 UNK         0.3000 
    170 H170       -1.0790  -14.8424  -43.8047 H         1 UNK         0.0600 
    171 H171       -2.1930  -13.7553  -41.8469 H         1 UNK         0.0600 
    172 H172       -0.7780  -12.7353  -41.6088 H         1 UNK         0.0600 
    173 H173       -1.7406  -12.5884  -43.0764 H         1 UNK         0.0600 
    174 H174        0.5041  -12.7129  -43.9191 H         1 UNK         0.3000 
    175 H175        3.2733  -12.8837  -44.5672 H         1 UNK         0.0600 
    176 H176        2.7051  -14.7776  -46.9147 H         1 UNK         0.0600 
    177 H177        3.9824  -13.5634  -46.8804 H         1 UNK         0.0600 
    178 H178        4.0343  -14.9209  -45.7691 H         1 UNK         0.0600 
    179 H179        0.8274  -12.7449  -46.2313 H         1 UNK         0.3000 
    180 H180        1.1186   -9.2699  -46.5048 H         1 UNK         0.0600 
    181 H181        1.4641  -11.1358  -48.9153 H         1 UNK         0.0600 
    182 H182        2.5229   -9.7903  -48.5098 H         1 UNK         0.0600 
    183 H183        0.8563   -9.4798  -48.9658 H         1 UNK         0.0600 
    184 H184       -0.7116  -11.0374  -47.7572 H         1 UNK         0.3000 
    185 H185       -2.7860  -11.8271  -45.0605 H         1 UNK         0.0600 
    186 H186       -3.4182   -9.4233  -45.3001 H         1 UNK         0.0600 
    187 H187       -3.2822   -9.5487  -47.0498 H         1 UNK         0.0600 
    188 H188       -4.5205  -10.4628  -46.1871 H         1 UNK         0.0600 
    189 H189       -3.2654  -11.8960  -47.8532 H         1 UNK         0.3000 
    190 H190       -1.8808  -21.7231  -45.9988 H         1 UNK         0.3000 
    191 H191       -3.3243  -22.4331  -48.1888 H         1 UNK         0.0600 
    192 H192       -3.9532  -20.5831  -46.6854 H         1 UNK         0.0600 
    193 H193       -5.3305  -21.6614  -46.8237 H         1 UNK         0.0600 
    194 H194       -4.3268  -21.7085  -45.3843 H         1 UNK         0.0600 
    195 H195       -2.9244  -24.5455  -45.4294 H         1 UNK         0.3000 
    196 H196       -5.1809  -26.2680  -45.9437 H         1 UNK         0.0600 
    197 H197       -3.9873  -27.7934  -44.3713 H         1 UNK         0.0600 
    198 H198       -4.0570  -26.1593  -43.7289 H         1 UNK         0.0600 
    199 H199       -2.5592  -26.7668  -44.4334 H         1 UNK         0.0600 
    200 H200       -1.9037  -26.0399  -47.2466 H         1 UNK         0.3000 
    201 H201       -2.2107  -28.5720  -48.8108 H         1 UNK         0.0600 
    202 H202        0.2412  -28.3337  -49.1526 H         1 UNK         0.0600 
    203 H203       -0.1384  -28.3683  -47.4375 H         1 UNK         0.0600 
    204 H204        0.2517  -26.8388  -48.2236 H         1 UNK         0.0600 
    205 H205       -1.9414  -25.0974  -48.9953 H         1 UNK         0.3000 
    206 H206       -2.3767  -23.5561  -50.4600 H         1 UNK         0.0600 
    207 H207       -4.2365  -24.9199  -51.4350 H         1 UNK         0.0600 
    208 H208       -3.4327  -23.9410  -52.6539 H         1 UNK         0.0600 
    209 H209       -3.1054  -25.6628  -52.5655 H         1 UNK         0.0600 
    210 H210       -0.4313  -26.1979  -51.7415 H         1 UNK         0.3000 
    211 H211        1.5251  -26.3582  -52.7846 H         1 UNK         0.0600 
    212 H212        2.1054  -23.6420  -51.4710 H         1 UNK         0.0600 
    213 H213        3.3146  -24.6959  -52.1999 H         1 UNK         0.0600 
    214 H214        2.4151  -25.2308  -50.7911 H         1 UNK         0.0600 
    215 H215        1.9105  -22.9377  -53.3239 H         1 UNK         0.3000 
    216 H216        1.9069  -23.1988  -56.2137 H         1 UNK         0.0600 
    217 H217        2.4434  -20.7581  -56.1026 H         1 UNK         0.0600 
    218 H218        3.4792  -21.6807  -55.0259 H         1 UNK         0.0600 
    219 H219        2.1281  -20.7538  -54.3719 H         1 UNK         0.0600 
    220 H220       -0.5293  -22.5109  -53.8383 H         1 UNK         0.3000 
    221 H221       -2.6223  -21.8284  -53.8288 H         1 UNK         0.0600 
    222 H222       -2.7255  -22.4101  -56.8298 H         1 UNK         0.0600 
    223 H223       -2.9984  -23.5882  -55.5464 H         1 UNK         0.0600 
    224 H224       -4.1000  -22.2349  -55.7485 H         1 UNK         0.0600 
    225 H225       -0.8561  -19.8849  -53.6719 H         1 UNK         0.3000 
    226 H226       -0.8586  -17.9532  -55.7485 H         1 UNK         0.0600 
    227 H227        1.0842  -18.3124  -54.3178 H         1 UNK         0.0600 
    228 H228        0.5417  -16.6582  -54.0867 H         1 UNK         0.0600 
    229 H229        0.1740  -17.8803  -52.8748 H         1 UNK         0.0600 
    230 H230       -3.0992  -18.2862  -53.0867 H         1 UNK         0.3000 
    231 H231       -4.5802  -15.9932  -53.9683 H         1 UNK         0.0600 
    232 H232       -3.4862  -15.7982  -51.1090 H         1 UNK         0.0600 
    233 H233       -4.5170  -14.6357  -51.9346 H         1 UNK         0.0600 
    234 H234       -2.8660  -14.8536  -52.4620 H         1 UNK         0.0600 
    235 H235       -5.7678  -15.9626  -51.1267 H         1 UNK         0.3000 
    236 H236       -7.9100  -17.8004  -51.6468 H         1 UNK         0.0600 
    237 H237       -8.2601  -15.5278  -50.7147 H         1 UNK         0.0600 
    238 H238       -8.8744  -16.7453  -49.6104 H         1 UNK         0.0600 
    239 H239       -7.3396  -15.9527  -49.2708 H         1 UNK         0.0600 
    240 H240       -6.0040  -19.5303  -51.5982 H         1 UNK         0.3000 
    241 H241       -5.5026  -20.8047  -49.0539 H         1 UNK         0.0600 
    242 H242       -7.8976  -23.5586  -49.0434 H         1 UNK         0.3800 
    243 H243       -6.2079  -23.3185  -48.7270 H         1 UNK         0.3800 
    244 H244       -4.5308  -22.6149  -50.3920 H         1 UNK         0.0800 
    245 H245       -5.2834  -22.0331  -51.8467 H         1 UNK         0.0800 
    246 H246       -3.6334  -18.9128  -49.8239 H         1 UNK         0.0800 
    247 H247       -3.1272  -20.3401  -48.9534 H         1 UNK         0.0800 
@<TRIPOS>BOND
     1    1    2 1    
     2    1  127 1    
     3    1  128 1    
     4    1  129 1    
     5    2    3 2    
     6    2    4 am   BACKBONE|DICT|INTERRES
     7    4    5 1    
     8    4  130 1    
     9    5    6 1    
    10    5   65 1    
    11    5  131 1    
    12    6    7 1    
    13    6  132 1    
    14    6  133 1    
    15    7    8 1    
    16    8    9 1    
    17    8  134 1    
    18    8  135 1    
    19    9   10 ar   
    20    9   14 ar   
    21   10   11 ar   
    22   10  136 1    
    23   11   12 ar   
    24   11  126 1    
    25   12   13 ar   
    26   12  137 1    
    27   13   14 ar   
    28   13   15 1    
    29   14  138 1    
    30   15   16 1    
    31   15  139 1    
    32   15  140 1    
    33   16   17 1    
    34   17   18 1    
    35   17  141 1    
    36   17  142 1    
    37   18   19 1    
    38   18   67 1    
    39   18  143 1    
    40   19   20 am   BACKBONE|DICT|INTERRES
    41   19  144 1    
    42   20   21 2    
    43   20   22 1    
    44   22   23 1    
    45   22   24 1    
    46   22  145 1    
    47   23  146 1    
    48   23  147 1    
    49   23  148 1    
    50   24   25 am   BACKBONE|DICT|INTERRES
    51   24  149 1    
    52   25   26 2    
    53   25   27 1    
    54   27   28 1    
    55   27   29 1    
    56   27  150 1    
    57   28  151 1    
    58   28  152 1    
    59   28  153 1    
    60   29   30 am   BACKBONE|DICT|INTERRES
    61   29  154 1    
    62   30   31 2    
    63   30   32 1    
    64   32   33 1    
    65   32   34 1    
    66   32  155 1    
    67   33  156 1    
    68   33  157 1    
    69   33  158 1    
    70   34   35 am   BACKBONE|DICT|INTERRES
    71   34  159 1    
    72   35   36 2    
    73   35   37 1    
    74   37   38 1    
    75   37   39 1    
    76   37  160 1    
    77   38  161 1    
    78   38  162 1    
    79   38  163 1    
    80   39   40 am   BACKBONE|DICT|INTERRES
    81   39  164 1    
    82   40   41 2    
    83   40   42 1    
    84   42   43 1    
    85   42   44 1    
    86   42  165 1    
    87   43  166 1    
    88   43  167 1    
    89   43  168 1    
    90   44   45 am   BACKBONE|DICT|INTERRES
    91   44  169 1    
    92   45   46 2    
    93   45   47 1    
    94   47   48 1    
    95   47   49 1    
    96   47  170 1    
    97   48  171 1    
    98   48  172 1    
    99   48  173 1    
   100   49   50 am   BACKBONE|DICT|INTERRES
   101   49  174 1    
   102   50   51 2    
   103   50   52 1    
   104   52   53 1    
   105   52   54 1    
   106   52  175 1    
   107   53  176 1    
   108   53  177 1    
   109   53  178 1    
   110   54   55 am   BACKBONE|DICT|INTERRES
   111   54  179 1    
   112   55   56 2    
   113   55   57 1    
   114   57   58 1    
   115   57   59 1    
   116   57  180 1    
   117   58  181 1    
   118   58  182 1    
   119   58  183 1    
   120   59   60 am   BACKBONE|DICT|INTERRES
   121   59  184 1    
   122   60   61 2    
   123   60   62 1    
   124   62   63 1    
   125   62   64 1    
   126   62  185 1    
   127   63  186 1    
   128   63  187 1    
   129   63  188 1    
   130   64   65 am   BACKBONE|DICT|INTERRES
   131   64  189 1    
   132   65   66 2    
   133   67   68 2    
   134   67   69 am   BACKBONE|DICT|INTERRES
   135   69   70 1    
   136   69  190 1    
   137   70   71 1    
   138   70   72 1    
   139   70  191 1    
   140   71  192 1    
   141   71  193 1    
   142   71  194 1    
   143   72   73 2    
   144   72   74 am   BACKBONE|DICT|INTERRES
   145   74   75 1    
   146   74  195 1    
   147   75   76 1    
   148   75   77 1    
   149   75  196 1    
   150   76  197 1    
   151   76  198 1    
   152   76  199 1    
   153   77   78 2    
   154   77   79 am   BACKBONE|DICT|INTERRES
   155   79   80 1    
   156   79  200 1    
   157   80   81 1    
   158   80   82 1    
   159   80  201 1    
   160   81  202 1    
   161   81  203 1    
   162   81  204 1    
   163   82   83 2    
   164   82   84 am   BACKBONE|DICT|INTERRES
   165   84   85 1    
   166   84  205 1    
   167   85   86 1    
   168   85   87 1    
   169   85  206 1    
   170   86  207 1    
   171   86  208 1    
   172   86  209 1    
   173   87   88 2    
   174   87   89 am   BACKBONE|DICT|INTERRES
   175   89   90 1    
   176   89  210 1    
   177   90   91 1    
   178   90   92 1    
   179   90  211 1    
   180   91  212 1    
   181   91  213 1    
   182   91  214 1    
   183   92   93 2    
   184   92   94 am   BACKBONE|DICT|INTERRES
   185   94   95 1    
   186   94  215 1    
   187   95   96 1    
   188   95   97 1    
   189   95  216 1    
   190   96  217 1    
   191   96  218 1    
   192   96  219 1    
   193   97   98 2    
   194   97   99 am   BACKBONE|DICT|INTERRES
   195   99  100 1    
   196   99  220 1    
   197  100  101 1    
   198  100  102 1    
   199  100  221 1    
   200  101  222 1    
   201  101  223 1    
   202  101  224 1    
   203  102  103 2    
   204  102  104 am   BACKBONE|DICT|INTERRES
   205  104  105 1    
   206  104  225 1    
   207  105  106 1    
   208  105  107 1    
   209  105  226 1    
   210  106  227 1    
   211  106  228 1    
   212  106  229 1    
   213  107  108 2    
   214  107  109 am   BACKBONE|DICT|INTERRES
   215  109  110 1    
   216  109  230 1    
   217  110  111 1    
   218  110  112 1    
   219  110  231 1    
   220  111  232 1    
   221  111  233 1    
   222  111  234 1    
   223  112  113 2    
   224  112  114 am   BACKBONE|DICT|INTERRES
   225  114  115 1    
   226  114  235 1    
   227  115  116 1    
   228  115  117 1    
   229  115  236 1    
   230  116  237 1    
   231  116  238 1    
   232  116  239 1    
   233  117  118 2    
   234  117  119 am   BACKBONE|DICT|INTERRES
   235  119  120 1    
   236  119  240 1    
   237  120  121 1    
   238  120  124 1    
   239  120  241 1    
   240  121  122 am   BACKBONE|DICT|INTERRES
   241  121  123 2    
   242  122  242 1    
   243  122  243 1    
   244  124  125 1    
   245  124  244 1    
   246  124  245 1    
   247  125  126 1    
   248  126  246 1    
   249  126  247 1    
@<TRIPOS>SUBSTRUCTURE
     1 UNK         1 GROUP             0       ****    0 ROOT    
