@<TRIPOS>MOLECULE
3R540
247   249    1
SMALL
USER_CHARGES


@<TRIPOS>ATOM
      1 CA         -1.4637  -10.0024  -45.9438 C.3       0 UNK        -0.1800 
      2 C          -1.3320  -10.7609  -47.2567 C.2       0 UNK         0.5000 
      3 O          -0.7192  -10.2573  -48.1981 O.2       0 UNK        -0.5000 
      4 N          -1.9035  -11.9700  -47.3228 N.am      1 UNK        -0.5000 
      5 CA         -1.8414  -12.8688  -48.4839 C.3       1 UNK         0.1400 
      6 C6         -3.0129  -13.8821  -48.4809 C.3       23 UNK        -0.0398 
      7 S7         -3.0321  -14.9882  -47.0227 S.3       23 UNK        -0.2404 
      8 C8         -3.9320  -16.4430  -47.6521 C.3       23 UNK        -0.0205 
      9 C9         -3.2527  -17.0841  -48.8545 C.ar      23 UNK        -0.0193 
     10 C10        -3.9078  -17.1355  -50.0892 C.ar      23 UNK        -0.1150 
     11 C11        -3.2858  -17.7115  -51.2008 C.ar      23 UNK        -0.0193 
     12 C12        -2.0055  -18.2551  -51.0652 C.ar      23 UNK        -0.1150 
     13 C13        -1.3431  -18.2155  -49.8350 C.ar      23 UNK        -0.0193 
     14 C14        -1.9696  -17.6244  -48.7345 C.ar      23 UNK        -0.1150 
     15 C15         0.0512  -18.8059  -49.7054 C.3       23 UNK        -0.0205 
     16 S16        -0.0098  -20.5539  -49.2083 S.3       23 UNK        -0.2404 
     17 C17        -0.0760  -20.3964  -47.3974 C.3       23 UNK        -0.0398 
     18 CA         -0.2767  -21.7530  -46.6826 C.3       11 UNK         0.1400 
     19 N           0.2626  -21.7297  -45.3237 N.am      11 UNK        -0.5000 
     20 C           0.4184  -22.8038  -44.5390 C.2       10 UNK         0.5000 
     21 O           0.1881  -23.9569  -44.9027 O.2       10 UNK        -0.5000 
     22 CA          0.8689  -22.5377  -43.0904 C.3       10 UNK         0.1400 
     23 CB          2.3957  -22.3923  -43.0116 C.3       10 UNK        -0.1800 
     24 N           0.2303  -21.3548  -42.5076 N.am      10 UNK        -0.5000 
     25 C          -1.0880  -21.2396  -42.2898 C.2       9 UNK         0.5000 
     26 O          -1.8977  -22.1375  -42.5201 O.2       9 UNK        -0.5000 
     27 CA         -1.5963  -19.8827  -41.7707 C.3       9 UNK         0.1400 
     28 CB         -1.3466  -19.7462  -40.2615 C.3       9 UNK        -0.1800 
     29 N          -1.0033  -18.7455  -42.4749 N.am      9 UNK        -0.5000 
     30 C          -1.1548  -18.4935  -43.7832 C.2       8 UNK         0.5000 
     31 O          -1.8384  -19.1802  -44.5407 O.2       8 UNK        -0.5000 
     32 CA         -0.3604  -17.3090  -44.3574 C.3       8 UNK         0.1400 
     33 CB         -1.0403  -15.9751  -44.0142 C.3       8 UNK        -0.1800 
     34 N           1.0283  -17.2953  -43.8970 N.am      8 UNK        -0.5000 
     35 C           1.9194  -18.2703  -44.1284 C.2       7 UNK         0.5000 
     36 O           1.6783  -19.2752  -44.7943 O.2       7 UNK        -0.5000 
     37 CA          3.2920  -18.1289  -43.4519 C.3       7 UNK         0.1400 
     38 CB          4.2059  -17.1779  -44.2411 C.3       7 UNK        -0.1800 
     39 N           3.1652  -17.6737  -42.0679 N.am      7 UNK        -0.5000 
     40 C           2.6268  -18.4044  -41.0801 C.2       6 UNK         0.5000 
     41 O           2.2246  -19.5591  -41.2224 O.2       6 UNK        -0.5000 
     42 CA          2.4714  -17.7083  -39.7160 C.3       6 UNK         0.1400 
     43 CB          3.7827  -17.7769  -38.9193 C.3       6 UNK        -0.1800 
     44 N           2.0561  -16.3113  -39.8495 N.am      6 UNK        -0.5000 
     45 C           0.8620  -15.9181  -40.3158 C.2       5 UNK         0.5000 
     46 O          -0.0368  -16.6959  -40.6334 O.2       5 UNK        -0.5000 
     47 CA          0.6618  -14.4029  -40.5089 C.3       5 UNK         0.1400 
     48 CB          0.1716  -13.7517  -39.2073 C.3       5 UNK        -0.1800 
     49 N           1.8759  -13.7219  -40.9693 N.am      5 UNK        -0.5000 
     50 C           2.4715  -13.9541  -42.1458 C.2       4 UNK         0.5000 
     51 O           2.0516  -14.7614  -42.9793 O.2       4 UNK        -0.5000 
     52 CA          3.7828  -13.2054  -42.4081 C.3       4 UNK         0.1400 
     53 CB          4.9531  -13.8817  -41.6710 C.3       4 UNK        -0.1800 
     54 N           4.0428  -13.2041  -43.8424 N.am      4 UNK        -0.5000 
     55 C           4.7630  -12.2913  -44.5020 C.2       3 UNK         0.5000 
     56 O           5.3306  -11.3470  -43.9506 O.2       3 UNK        -0.5000 
     57 CA          4.8861  -12.4501  -46.0327 C.3       3 UNK         0.1400 
     58 CB          6.2781  -12.9890  -46.3997 C.3       3 UNK        -0.1800 
     59 N           3.8745  -13.3116  -46.6554 N.am      3 UNK        -0.5000 
     60 C           2.5634  -13.0471  -46.7167 C.2       2 UNK         0.5000 
     61 O           2.0371  -12.0662  -46.1833 O.2       2 UNK        -0.5000 
     62 CA          1.7062  -14.0529  -47.5041 C.3       2 UNK         0.1400 
     63 CB          1.7080  -15.4383  -46.8364 C.3       2 UNK        -0.1800 
     64 N           0.3380  -13.5537  -47.5657 N.am      2 UNK        -0.5000 
     65 C          -0.4669  -13.5662  -48.6343 C.2       1 UNK         0.5000 
     66 O          -0.1631  -14.0819  -49.7108 O.2       1 UNK        -0.5000 
     67 C          -1.7538  -22.1954  -46.6894 C.2       11 UNK         0.5000 
     68 O          -2.1131  -23.0991  -47.4444 O.2       11 UNK        -0.5000 
     69 N          -2.5759  -21.5923  -45.8175 N.am      12 UNK        -0.5000 
     70 CA         -3.9942  -21.9093  -45.6335 C.3       12 UNK         0.1400 
     71 CB         -4.6213  -20.9249  -44.6364 C.3       12 UNK        -0.1800 
     72 C          -4.2394  -23.3645  -45.1945 C.2       12 UNK         0.5000 
     73 O          -5.1681  -23.9966  -45.6976 O.2       12 UNK        -0.5000 
     74 N          -3.3671  -23.8942  -44.3250 N.am      13 UNK        -0.5000 
     75 CA         -3.3513  -25.2980  -43.9011 C.3       13 UNK         0.1400 
     76 CB         -2.3474  -25.4703  -42.7515 C.3       13 UNK        -0.1800 
     77 C          -3.0449  -26.2879  -45.0458 C.2       13 UNK         0.5000 
     78 O          -3.4646  -27.4429  -44.9729 O.2       13 UNK        -0.5000 
     79 N          -2.3631  -25.8120  -46.0961 N.am      14 UNK        -0.5000 
     80 CA         -2.1007  -26.5279  -47.3453 C.3       14 UNK         0.1400 
     81 CB         -0.6712  -26.1974  -47.8120 C.3       14 UNK        -0.1800 
     82 C          -3.1495  -26.1960  -48.4306 C.2       14 UNK         0.5000 
     83 O          -2.8694  -26.3713  -49.6174 O.2       14 UNK        -0.5000 
     84 N          -4.3274  -25.6983  -48.0207 N.am      15 UNK        -0.5000 
     85 CA         -5.4600  -25.2835  -48.8558 C.3       15 UNK         0.1400 
     86 CB         -6.0718  -26.4928  -49.5946 C.3       15 UNK        -0.1800 
     87 C          -5.0964  -24.1193  -49.7979 C.2       15 UNK         0.5000 
     88 O          -5.4272  -24.1567  -50.9836 O.2       15 UNK        -0.5000 
     89 N          -4.3785  -23.1270  -49.2511 N.am      16 UNK        -0.5000 
     90 CA         -3.7882  -21.9746  -49.9436 C.3       16 UNK         0.1400 
     91 CB         -4.8840  -21.0634  -50.5318 C.3       16 UNK        -0.1800 
     92 C          -2.7238  -22.4129  -50.9709 C.2       16 UNK         0.5000 
     93 O          -2.6650  -21.8666  -52.0707 O.2       16 UNK        -0.5000 
     94 N          -1.9318  -23.4277  -50.5866 N.am      17 UNK        -0.5000 
     95 CA         -0.9657  -24.1669  -51.4075 C.3       17 UNK         0.1400 
     96 CB          0.2596  -23.2914  -51.7398 C.3       17 UNK        -0.1800 
     97 C          -1.6286  -24.7969  -52.6516 C.2       17 UNK         0.5000 
     98 O          -1.1435  -24.6251  -53.7713 O.2       17 UNK        -0.5000 
     99 N          -2.7474  -25.4991  -52.4137 N.am      18 UNK        -0.5000 
    100 CA        -3.6672  -26.0749  -53.4003 C.3       18 UNK         0.1400 
    101 CB        -3.0043  -27.2514  -54.1458 C.3       18 UNK        -0.1800 
    102 C         -4.2386  -24.9969  -54.3459 C.2       18 UNK         0.5000 
    103 O         -4.0580  -25.0701  -55.5636 O.2       18 UNK        -0.5000 
    104 N         -4.8825  -23.9869  -53.7455 N.am      19 UNK        -0.5000 
    105 CA        -5.4680  -22.7715  -54.3266 C.3       19 UNK         0.1400 
    106 CB        -6.5614  -23.1026  -55.3602 C.3       19 UNK        -0.1800 
    107 C         -4.4425  -21.7725  -54.8989 C.2       19 UNK         0.5000 
    108 O         -4.5776  -20.5736  -54.6530 O.2       19 UNK        -0.5000 
    109 N         -3.4598  -22.2766  -55.6606 N.am      20 UNK        -0.5000 
    110 CA        -2.3079  -21.5758  -56.2452 C.3       20 UNK         0.1400 
    111 CB        -1.3432  -21.1253  -55.1291 C.3       20 UNK        -0.1800 
    112 C         -2.6692  -20.4131  -57.1968 C.2       20 UNK         0.5000 
    113 O         -1.8413  -19.5255  -57.4127 O.2       20 UNK        -0.5000 
    114 N         -3.9025  -20.4160  -57.7261 N.am      21 UNK        -0.5000 
    115 CA        -4.5786  -19.3768  -58.5189 C.3       21 UNK         0.1400 
    116 CB        -3.8411  -19.0969  -59.8423 C.3       21 UNK        -0.1800 
    117 C         -4.8533  -18.0717  -57.7398 C.2       21 UNK         0.5000 
    118 O         -5.9701  -17.5565  -57.7986 O.2       21 UNK        -0.5000 
    119 N         -3.8463  -17.5812  -57.0085 N.am      22 UNK        -0.5000 
    120 CA        -3.8753  -16.4132  -56.1144 C.3       22 UNK         0.1400 
    121 C         -4.0021  -15.0320  -56.8300 C.2       22 UNK         0.5000 
    122 N         -3.7749  -14.9421  -58.1349 N.am      22 UNK        -0.7600 
    123 O         -4.2815  -14.0179  -56.1961 O.2       22 UNK        -0.5000 
    124 C124       -4.8736  -16.5955  -54.9307 C.3       23 UNK        -0.0398 
    125 S125       -4.1356  -16.1405  -53.3232 S.3       23 UNK        -0.2404 
    126 C126       -4.0087  -17.7775  -52.5381 C.3       23 UNK        -0.0205 
    127 H127       -0.4772   -9.8235  -45.5158 H         1 UNK         0.0600 
    128 H128       -2.0560  -10.5547  -45.2138 H         1 UNK         0.0600 
    129 H129       -1.9442   -9.0387  -46.1126 H         1 UNK         0.0600 
    130 H130       -2.3987  -12.3356  -46.5213 H         1 UNK         0.3000 
    131 H131       -1.9636  -12.2540  -49.3784 H         1 UNK         0.0600 
    132 H132       -3.9619  -13.3454  -48.5089 H         1 UNK         0.0800 
    133 H133       -2.9849  -14.4711  -49.3983 H         1 UNK         0.0800 
    134 H134       -4.0064  -17.1825  -46.8534 H         1 UNK         0.0800 
    135 H135       -4.9541  -16.1477  -47.8941 H         1 UNK         0.0800 
    136 H136       -4.9006  -16.7205  -50.1921 H         1 UNK         0.1150 
    137 H137       -1.5258  -18.7181  -51.9164 H         1 UNK         0.1150 
    138 H138       -1.4595  -17.5737  -47.7836 H         1 UNK         0.1150 
    139 H139        0.5711  -18.7339  -50.6619 H         1 UNK         0.0800 
    140 H140        0.6464  -18.2306  -48.9944 H         1 UNK         0.0800 
    141 H141       -0.8398  -19.6765  -47.1035 H         1 UNK         0.0800 
    142 H142        0.8784  -19.9595  -47.1050 H         1 UNK         0.0800 
    143 H143        0.2922  -22.5116  -47.2249 H         1 UNK         0.0600 
    144 H144        0.5395  -20.8210  -44.9626 H         1 UNK         0.3000 
    145 H145        0.5789  -23.4026  -42.4902 H         1 UNK         0.0600 
    146 H146        2.7279  -22.2839  -41.9790 H         1 UNK         0.0600 
    147 H147        2.8939  -23.2708  -43.4235 H         1 UNK         0.0600 
    148 H148        2.7472  -21.5232  -43.5682 H         1 UNK         0.0600 
    149 H149        0.8419  -20.5855  -42.2524 H         1 UNK         0.3000 
    150 H150       -2.6745  -19.8479  -41.9383 H         1 UNK         0.0600 
    151 H151       -1.7935  -20.5772  -39.7145 H         1 UNK         0.0600 
    152 H152       -1.7849  -18.8272  -39.8719 H         1 UNK         0.0600 
    153 H153       -0.2818  -19.7329  -40.0280 H         1 UNK         0.0600 
    154 H154       -0.4582  -18.0982  -41.9126 H         1 UNK         0.3000 
    155 H155       -0.3497  -17.4140  -45.4440 H         1 UNK         0.0600 
    156 H156       -2.0808  -15.9751  -44.3398 H         1 UNK         0.0600 
    157 H157       -0.5466  -15.1365  -44.5044 H         1 UNK         0.0600 
    158 H158       -1.0378  -15.7838  -42.9422 H         1 UNK         0.0600 
    159 H159        1.3281  -16.4755  -43.3768 H         1 UNK         0.3000 
    160 H160        3.7618  -19.1148  -43.4409 H         1 UNK         0.0600 
    161 H161        3.7886  -16.1749  -44.3156 H         1 UNK         0.0600 
    162 H162        4.3561  -17.5423  -45.2581 H         1 UNK         0.0600 
    163 H163        5.1888  -17.0985  -43.7766 H         1 UNK         0.0600 
    164 H164        3.4248  -16.7185  -41.8772 H         1 UNK         0.3000 
    165 H165        1.7011  -18.2415  -39.1546 H         1 UNK         0.0600 
    166 H166        3.6609  -17.3516  -37.9230 H         1 UNK         0.0600 
    167 H167        4.1079  -18.8104  -38.7927 H         1 UNK         0.0600 
    168 H168        4.5886  -17.2377  -39.4188 H         1 UNK         0.0600 
    169 H169        2.7344  -15.6057  -39.6044 H         1 UNK         0.3000 
    170 H170       -0.1090  -14.2645  -41.2696 H         1 UNK         0.0600 
    171 H171       -0.7433  -14.2288  -38.8533 H         1 UNK         0.0600 
    172 H172        0.9128  -13.8315  -38.4112 H         1 UNK         0.0600 
    173 H173       -0.0511  -12.6948  -39.3548 H         1 UNK         0.0600 
    174 H174        2.2822  -13.0481  -40.3360 H         1 UNK         0.3000 
    175 H175        3.6661  -12.1782  -42.0561 H         1 UNK         0.0600 
    176 H176        5.1019  -14.9079  -42.0092 H         1 UNK         0.0600 
    177 H177        5.8857  -13.3408  -41.8323 H         1 UNK         0.0600 
    178 H178        4.7804  -13.9099  -40.5946 H         1 UNK         0.0600 
    179 H179        3.5439  -13.9153  -44.3599 H         1 UNK         0.3000 
    180 H180        4.7828  -11.4530  -46.4656 H         1 UNK         0.0600 
    181 H181        6.4325  -13.9974  -46.0133 H         1 UNK         0.0600 
    182 H182        7.0654  -12.3561  -45.9877 H         1 UNK         0.0600 
    183 H183        6.4199  -13.0164  -47.4803 H         1 UNK         0.0600 
    184 H184        4.2239  -14.1414  -47.1125 H         1 UNK         0.3000 
    185 H185        2.1214  -14.1321  -48.5108 H         1 UNK         0.0600 
    186 H186        2.6912  -15.9059  -46.8916 H         1 UNK         0.0600 
    187 H187        1.4399  -15.3643  -45.7837 H         1 UNK         0.0600 
    188 H188        1.0008  -16.1140  -47.3179 H         1 UNK         0.0600 
    189 H189        0.0479  -13.0237  -46.7549 H         1 UNK         0.3000 
    190 H190       -2.2128  -20.8307  -45.2472 H         1 UNK         0.3000 
    191 H191       -4.4878  -21.7682  -46.5968 H         1 UNK         0.0600 
    192 H192       -4.5294  -19.8970  -44.9876 H         1 UNK         0.0600 
    193 H193       -5.6843  -21.1285  -44.5013 H         1 UNK         0.0600 
    194 H194       -4.1472  -20.9874  -43.6570 H         1 UNK         0.0600 
    195 H195       -2.6682  -23.2863  -43.9066 H         1 UNK         0.3000 
    196 H196       -4.3460  -25.5394  -43.5211 H         1 UNK         0.0600 
    197 H197       -2.3382  -26.4995  -42.3905 H         1 UNK         0.0600 
    198 H198       -2.6030  -24.8318  -41.9057 H         1 UNK         0.0600 
    199 H199       -1.3328  -25.2226  -43.0630 H         1 UNK         0.0600 
    200 H200       -2.0688  -24.8430  -46.0803 H         1 UNK         0.3000 
    201 H201       -2.1536  -27.6043  -47.1716 H         1 UNK         0.0600 
    202 H202        0.0580  -26.4262  -47.0346 H         1 UNK         0.0600 
    203 H203       -0.5606  -25.1442  -48.0698 H         1 UNK         0.0600 
    204 H204       -0.3987  -26.7815  -48.6918 H         1 UNK         0.0600 
    205 H205       -4.4492  -25.5300  -47.0295 H         1 UNK         0.3000 
    206 H206       -6.2195  -24.8971  -48.1747 H         1 UNK         0.0600 
    207 H207       -6.3321  -27.2891  -48.8975 H         1 UNK         0.0600 
    208 H208       -6.9859  -26.2081  -50.1170 H         1 UNK         0.0600 
    209 H209       -5.3891  -26.9070  -50.3369 H         1 UNK         0.0600 
    210 H210       -4.0649  -23.2504  -48.2966 H         1 UNK         0.3000 
    211 H211       -3.2570  -21.3886  -49.1929 H         1 UNK         0.0600 
    212 H212       -5.4650  -21.5628  -51.3051 H         1 UNK         0.0600 
    213 H213       -4.4447  -20.1776  -50.9843 H         1 UNK         0.0600 
    214 H214       -5.5726  -20.7250  -49.7579 H         1 UNK         0.0600 
    215 H215       -2.0649  -23.7787  -49.6470 H         1 UNK         0.3000 
    216 H216       -0.6147  -25.0002  -50.7975 H         1 UNK         0.0600 
    217 H217        0.9909  -23.8461  -52.3284 H         1 UNK         0.0600 
    218 H218        0.7626  -22.9638  -50.8307 H         1 UNK         0.0600 
    219 H219       -0.0154  -22.4035  -52.3090 H         1 UNK         0.0600 
    220 H220       -3.0191  -25.6205  -51.4421 H         1 UNK         0.3000 
    221 H221       -4.5121  -26.4751  -52.8378 H         1 UNK         0.0600 
    222 H222       -2.1572  -26.9270  -54.7509 H         1 UNK         0.0600 
    223 H223       -2.6466  -28.0076  -53.4471 H         1 UNK         0.0600 
    224 H224       -3.7156  -27.7371  -54.8147 H         1 UNK         0.0600 
    225 H225       -4.9605  -24.0329  -52.7300 H         1 UNK         0.3000 
    226 H226       -5.9586  -22.2660  -53.4944 H         1 UNK         0.0600 
    227 H227       -7.3224  -23.7551  -54.9323 H         1 UNK         0.0600 
    228 H228       -7.0636  -22.1944  -55.6959 H         1 UNK         0.0600 
    229 H229       -6.1562  -23.5942  -56.2448 H         1 UNK         0.0600 
    230 H230       -3.4770  -23.2839  -55.8002 H         1 UNK         0.3000 
    231 H231       -1.7852  -22.3129  -56.8558 H         1 UNK         0.0600 
    232 H232       -1.7865  -20.3516  -54.5009 H         1 UNK         0.0600 
    233 H233       -0.4159  -20.7256  -55.5405 H         1 UNK         0.0600 
    234 H234       -1.0744  -21.9612  -54.4843 H         1 UNK         0.0600 
    235 H235       -4.4955  -21.1858  -57.4509 H         1 UNK         0.3000 
    236 H236       -5.5532  -19.7956  -58.7748 H         1 UNK         0.0600 
    237 H237       -3.6972  -20.0137  -60.4140 H         1 UNK         0.0600 
    238 H238       -4.4150  -18.4114  -60.4670 H         1 UNK         0.0600 
    239 H239       -2.8622  -18.6451  -59.6814 H         1 UNK         0.0600 
    240 H240       -2.9660  -18.0887  -57.0488 H         1 UNK         0.3000 
    241 H241       -2.8663  -16.3979  -55.7012 H         1 UNK         0.0600 
    242 H242       -3.8484  -14.0466  -58.5921 H         1 UNK         0.3800 
    243 H243       -3.5336  -15.7612  -58.6695 H         1 UNK         0.3800 
    244 H244       -5.7852  -16.0151  -55.0822 H         1 UNK         0.0800 
    245 H245       -5.2092  -17.6319  -54.8673 H         1 UNK         0.0800 
    246 H246       -5.0093  -18.1865  -52.3906 H         1 UNK         0.0800 
    247 H247       -3.4934  -18.4624  -53.2143 H         1 UNK         0.0800 
@<TRIPOS>BOND
     1    1    2 1    
     2    1  127 1    
     3    1  128 1    
     4    1  129 1    
     5    2    3 2    
     6    2    4 am   BACKBONE|DICT|INTERRES
     7    4    5 1    
     8    4  130 1    
     9    5    6 1    
    10    5   65 1    
    11    5  131 1    
    12    6    7 1    
    13    6  132 1    
    14    6  133 1    
    15    7    8 1    
    16    8    9 1    
    17    8  134 1    
    18    8  135 1    
    19    9   10 ar   
    20    9   14 ar   
    21   10   11 ar   
    22   10  136 1    
    23   11   12 ar   
    24   11  126 1    
    25   12   13 ar   
    26   12  137 1    
    27   13   14 ar   
    28   13   15 1    
    29   14  138 1    
    30   15   16 1    
    31   15  139 1    
    32   15  140 1    
    33   16   17 1    
    34   17   18 1    
    35   17  141 1    
    36   17  142 1    
    37   18   19 1    
    38   18   67 1    
    39   18  143 1    
    40   19   20 am   BACKBONE|DICT|INTERRES
    41   19  144 1    
    42   20   21 2    
    43   20   22 1    
    44   22   23 1    
    45   22   24 1    
    46   22  145 1    
    47   23  146 1    
    48   23  147 1    
    49   23  148 1    
    50   24   25 am   BACKBONE|DICT|INTERRES
    51   24  149 1    
    52   25   26 2    
    53   25   27 1    
    54   27   28 1    
    55   27   29 1    
    56   27  150 1    
    57   28  151 1    
    58   28  152 1    
    59   28  153 1    
    60   29   30 am   BACKBONE|DICT|INTERRES
    61   29  154 1    
    62   30   31 2    
    63   30   32 1    
    64   32   33 1    
    65   32   34 1    
    66   32  155 1    
    67   33  156 1    
    68   33  157 1    
    69   33  158 1    
    70   34   35 am   BACKBONE|DICT|INTERRES
    71   34  159 1    
    72   35   36 2    
    73   35   37 1    
    74   37   38 1    
    75   37   39 1    
    76   37  160 1    
    77   38  161 1    
    78   38  162 1    
    79   38  163 1    
    80   39   40 am   BACKBONE|DICT|INTERRES
    81   39  164 1    
    82   40   41 2    
    83   40   42 1    
    84   42   43 1    
    85   42   44 1    
    86   42  165 1    
    87   43  166 1    
    88   43  167 1    
    89   43  168 1    
    90   44   45 am   BACKBONE|DICT|INTERRES
    91   44  169 1    
    92   45   46 2    
    93   45   47 1    
    94   47   48 1    
    95   47   49 1    
    96   47  170 1    
    97   48  171 1    
    98   48  172 1    
    99   48  173 1    
   100   49   50 am   BACKBONE|DICT|INTERRES
   101   49  174 1    
   102   50   51 2    
   103   50   52 1    
   104   52   53 1    
   105   52   54 1    
   106   52  175 1    
   107   53  176 1    
   108   53  177 1    
   109   53  178 1    
   110   54   55 am   BACKBONE|DICT|INTERRES
   111   54  179 1    
   112   55   56 2    
   113   55   57 1    
   114   57   58 1    
   115   57   59 1    
   116   57  180 1    
   117   58  181 1    
   118   58  182 1    
   119   58  183 1    
   120   59   60 am   BACKBONE|DICT|INTERRES
   121   59  184 1    
   122   60   61 2    
   123   60   62 1    
   124   62   63 1    
   125   62   64 1    
   126   62  185 1    
   127   63  186 1    
   128   63  187 1    
   129   63  188 1    
   130   64   65 am   BACKBONE|DICT|INTERRES
   131   64  189 1    
   132   65   66 2    
   133   67   68 2    
   134   67   69 am   BACKBONE|DICT|INTERRES
   135   69   70 1    
   136   69  190 1    
   137   70   71 1    
   138   70   72 1    
   139   70  191 1    
   140   71  192 1    
   141   71  193 1    
   142   71  194 1    
   143   72   73 2    
   144   72   74 am   BACKBONE|DICT|INTERRES
   145   74   75 1    
   146   74  195 1    
   147   75   76 1    
   148   75   77 1    
   149   75  196 1    
   150   76  197 1    
   151   76  198 1    
   152   76  199 1    
   153   77   78 2    
   154   77   79 am   BACKBONE|DICT|INTERRES
   155   79   80 1    
   156   79  200 1    
   157   80   81 1    
   158   80   82 1    
   159   80  201 1    
   160   81  202 1    
   161   81  203 1    
   162   81  204 1    
   163   82   83 2    
   164   82   84 am   BACKBONE|DICT|INTERRES
   165   84   85 1    
   166   84  205 1    
   167   85   86 1    
   168   85   87 1    
   169   85  206 1    
   170   86  207 1    
   171   86  208 1    
   172   86  209 1    
   173   87   88 2    
   174   87   89 am   BACKBONE|DICT|INTERRES
   175   89   90 1    
   176   89  210 1    
   177   90   91 1    
   178   90   92 1    
   179   90  211 1    
   180   91  212 1    
   181   91  213 1    
   182   91  214 1    
   183   92   93 2    
   184   92   94 am   BACKBONE|DICT|INTERRES
   185   94   95 1    
   186   94  215 1    
   187   95   96 1    
   188   95   97 1    
   189   95  216 1    
   190   96  217 1    
   191   96  218 1    
   192   96  219 1    
   193   97   98 2    
   194   97   99 am   BACKBONE|DICT|INTERRES
   195   99  100 1    
   196   99  220 1    
   197  100  101 1    
   198  100  102 1    
   199  100  221 1    
   200  101  222 1    
   201  101  223 1    
   202  101  224 1    
   203  102  103 2    
   204  102  104 am   BACKBONE|DICT|INTERRES
   205  104  105 1    
   206  104  225 1    
   207  105  106 1    
   208  105  107 1    
   209  105  226 1    
   210  106  227 1    
   211  106  228 1    
   212  106  229 1    
   213  107  108 2    
   214  107  109 am   BACKBONE|DICT|INTERRES
   215  109  110 1    
   216  109  230 1    
   217  110  111 1    
   218  110  112 1    
   219  110  231 1    
   220  111  232 1    
   221  111  233 1    
   222  111  234 1    
   223  112  113 2    
   224  112  114 am   BACKBONE|DICT|INTERRES
   225  114  115 1    
   226  114  235 1    
   227  115  116 1    
   228  115  117 1    
   229  115  236 1    
   230  116  237 1    
   231  116  238 1    
   232  116  239 1    
   233  117  118 2    
   234  117  119 am   BACKBONE|DICT|INTERRES
   235  119  120 1    
   236  119  240 1    
   237  120  121 1    
   238  120  124 1    
   239  120  241 1    
   240  121  122 am   BACKBONE|DICT|INTERRES
   241  121  123 2    
   242  122  242 1    
   243  122  243 1    
   244  124  125 1    
   245  124  244 1    
   246  124  245 1    
   247  125  126 1    
   248  126  246 1    
   249  126  247 1    
@<TRIPOS>SUBSTRUCTURE
     1 UNK         1 GROUP             0       ****    0 ROOT    
