@<TRIPOS>MOLECULE
3R540
247   249    1
SMALL
USER_CHARGES


@<TRIPOS>ATOM
      1 CA         -0.2494  -11.6029  -51.2546 C.3       0 UNK        -0.1800 
      2 C           1.1798  -12.0268  -50.9489 C.2       0 UNK         0.5000 
      3 O           2.0214  -11.1748  -50.6632 O.2       0 UNK        -0.5000 
      4 N           1.4587  -13.3345  -51.0087 N.am      1 UNK        -0.5000 
      5 CA          2.7777  -13.9182  -50.7292 C.3       1 UNK         0.1400 
      6 C6          2.8976  -15.3583  -51.2785 C.3       23 UNK        -0.0398 
      7 S7          2.7228  -15.4573  -53.0903 S.3       23 UNK        -0.2404 
      8 C8          3.4587  -17.0934  -53.4061 C.3       23 UNK        -0.0205 
      9 C9          2.6936  -18.2016  -52.6975 C.ar      23 UNK        -0.0193 
     10 C10         1.4819  -18.6584  -53.2209 C.ar      23 UNK        -0.1150 
     11 C11         0.7564  -19.6556  -52.5639 C.ar      23 UNK        -0.0193 
     12 C12         1.2704  -20.2235  -51.3957 C.ar      23 UNK        -0.1150 
     13 C13         2.4672  -19.7558  -50.8464 C.ar      23 UNK        -0.0193 
     14 C14         3.1809  -18.7525  -51.5079 C.ar      23 UNK        -0.1150 
     15 C15         2.9820  -20.3262  -49.5338 C.3       23 UNK        -0.0205 
     16 S16         2.4287  -19.3564  -48.0877 S.3       23 UNK        -0.2404 
     17 C17         0.6321  -19.6855  -48.0510 C.3       23 UNK        -0.0398 
     18 CA          0.3034  -21.0841  -47.4760 C.3       11 UNK         0.1400 
     19 N           0.4606  -21.1535  -46.0220 N.am      11 UNK        -0.5000 
     20 C           0.4373  -22.2880  -45.3091 C.2       10 UNK         0.5000 
     21 O           0.3030  -23.4065  -45.8072 O.2       10 UNK        -0.5000 
     22 CA          0.5366  -22.1483  -43.7795 C.3       10 UNK         0.1400 
     23 CB          1.9785  -21.8447  -43.3457 C.3       10 UNK        -0.1800 
     24 N          -0.3667  -21.1275  -43.2463 N.am      10 UNK        -0.5000 
     25 C          -1.7044  -21.1869  -43.3230 C.2       9 UNK         0.5000 
     26 O          -2.3211  -22.1237  -43.8310 O.2       9 UNK        -0.5000 
     27 CA         -2.4860  -19.9769  -42.7800 C.3       9 UNK         0.1400 
     28 CB         -2.5684  -20.0195  -41.2469 C.3       9 UNK        -0.1800 
     29 N          -1.9169  -18.6988  -43.2060 N.am      9 UNK        -0.5000 
     30 C          -1.8117  -18.3009  -44.4817 C.2       8 UNK         0.5000 
     31 O          -2.2151  -18.9538  -45.4420 O.2       8 UNK        -0.5000 
     32 CA         -1.0754  -16.9777  -44.7365 C.3       8 UNK         0.1400 
     33 CB         -1.9803  -15.7756  -44.4245 C.3       8 UNK        -0.1800 
     34 N           0.1742  -16.8817  -43.9808 N.am      8 UNK        -0.5000 
     35 C           1.2084  -17.7260  -44.1115 C.2       7 UNK         0.5000 
     36 O           1.2353  -18.6578  -44.9122 O.2       7 UNK        -0.5000 
     37 CA          2.3880  -17.5330  -43.1461 C.3       7 UNK         0.1400 
     38 CB          3.3422  -16.4394  -43.6515 C.3       7 UNK        -0.1800 
     39 N           1.9280  -17.2160  -41.7947 N.am      7 UNK        -0.5000 
     40 C           1.2901  -18.0835  -40.9948 C.2       6 UNK         0.5000 
     41 O           1.0730  -19.2586  -41.2928 O.2       6 UNK        -0.5000 
     42 CA          0.7668  -17.5265  -39.6581 C.3       6 UNK         0.1400 
     43 CB          1.8853  -17.4977  -38.6060 C.3       6 UNK        -0.1800 
     44 N           0.1964  -16.1852  -39.7988 N.am      6 UNK        -0.5000 
     45 C          -0.9199  -15.9084  -40.4879 C.2       5 UNK         0.5000 
     46 O          -1.6133  -16.7667  -41.0330 O.2       5 UNK        -0.5000 
     47 CA         -1.3009  -14.4214  -40.6309 C.3       5 UNK         0.1400 
     48 CB         -2.1988  -13.9828  -39.4648 C.3       5 UNK        -0.1800 
     49 N          -0.1469  -13.5197  -40.7207 N.am      5 UNK        -0.5000 
     50 C           0.7831  -13.5618  -41.6836 C.2       4 UNK         0.5000 
     51 O           0.7808  -14.3894  -42.5992 O.2       4 UNK        -0.5000 
     52 CA          1.9279  -12.5445  -41.5783 C.3       4 UNK         0.1400 
     53 CB          2.8510  -12.8865  -40.3920 C.3       4 UNK        -0.1800 
     54 N           2.6921  -12.5662  -42.8216 N.am      4 UNK        -0.5000 
     55 C           3.5431  -11.6240  -43.2450 C.2       3 UNK         0.5000 
     56 O           3.7519  -10.5743  -42.6353 O.2       3 UNK        -0.5000 
     57 CA          4.3095  -11.8982  -44.5552 C.3       3 UNK         0.1400 
     58 CB          5.7659  -12.2803  -44.2459 C.3       3 UNK        -0.1800 
     59 N           3.7088  -12.9694  -45.3536 N.am      3 UNK        -0.5000 
     60 C           2.7493  -12.7872  -46.2681 C.2       2 UNK         0.5000 
     61 O           2.2806  -11.6872  -46.5686 O.2       2 UNK        -0.5000 
     62 CA          2.1883  -14.0617  -46.9214 C.3       2 UNK         0.1400 
     63 CB          0.8023  -14.3826  -46.3545 C.3       2 UNK        -0.1800 
     64 N           2.0790  -13.9505  -48.3722 N.am      2 UNK        -0.5000 
     65 C           3.1131  -13.9226  -49.2221 C.2       1 UNK         0.5000 
     66 O           4.2916  -13.9414  -48.8632 O.2       1 UNK        -0.5000 
     67 C          -1.0864  -21.5628  -47.9324 C.2       11 UNK         0.5000 
     68 O          -1.1616  -22.3169  -48.9008 O.2       11 UNK        -0.5000 
     69 N          -2.1500  -21.1709  -47.2154 N.am      12 UNK        -0.5000 
     70 CA         -3.5166  -21.6287  -47.4640 C.3       12 UNK         0.1400 
     71 CB         -4.5067  -20.8735  -46.5660 C.3       12 UNK        -0.1800 
     72 C          -3.6708  -23.1462  -47.2812 C.2       12 UNK         0.5000 
     73 O          -4.2738  -23.7903  -48.1384 O.2       12 UNK        -0.5000 
     74 N          -3.0986  -23.6946  -46.2000 N.am      13 UNK        -0.5000 
     75 CA         -3.0764  -25.1302  -45.9153 C.3       13 UNK         0.1400 
     76 CB         -2.4850  -25.3754  -44.5192 C.3       13 UNK        -0.1800 
     77 C          -2.3176  -25.9352  -46.9857 C.2       13 UNK         0.5000 
     78 O          -2.8278  -26.9566  -47.4488 O.2       13 UNK        -0.5000 
     79 N          -1.1429  -25.4348  -47.3967 N.am      14 UNK        -0.5000 
     80 CA         -0.3274  -25.9993  -48.4758 C.3       14 UNK         0.1400 
     81 CB          1.0135  -25.2529  -48.5462 C.3       14 UNK        -0.1800 
     82 C          -1.0364  -25.9722  -49.8444 C.2       14 UNK         0.5000 
     83 O          -0.8945  -26.9140  -50.6244 O.2       14 UNK        -0.5000 
     84 N          -1.8181  -24.9142  -50.0887 N.am      15 UNK        -0.5000 
     85 CA         -2.6306  -24.7036  -51.2849 C.3       15 UNK         0.1400 
     86 CB         -2.6896  -23.1969  -51.5730 C.3       15 UNK        -0.1800 
     87 C          -4.0428  -25.3177  -51.1878 C.2       15 UNK         0.5000 
     88 O          -4.9270  -24.8876  -51.9288 O.2       15 UNK        -0.5000 
     89 N          -4.2406  -26.2997  -50.2947 N.am      16 UNK        -0.5000 
     90 CA         -5.4586  -27.0990  -50.1153 C.3       16 UNK         0.1400 
     91 CB         -5.6862  -28.0101  -51.3402 C.3       16 UNK        -0.1800 
     92 C          -6.6951  -26.2463  -49.7617 C.2       16 UNK         0.5000 
     93 O          -7.7245  -26.3299  -50.4338 O.2       16 UNK        -0.5000 
     94 N          -6.5458  -25.4310  -48.7095 N.am      17 UNK        -0.5000 
     95 CA         -7.4977  -24.4353  -48.2064 C.3       17 UNK         0.1400 
     96 CB         -8.8365  -25.0771  -47.7830 C.3       17 UNK        -0.1800 
     97 C          -7.6534  -23.2506  -49.1809 C.2       17 UNK         0.5000 
     98 O          -8.7700  -22.7968  -49.4373 O.2       17 UNK        -0.5000 
     99 N          -6.5060  -22.7727  -49.6858 N.am      18 UNK        -0.5000 
    100 CA        -6.3311  -21.6390  -50.5981 C.3       18 UNK         0.1400 
    101 CB        -6.6435  -20.3107  -49.8785 C.3       18 UNK        -0.1800 
    102 C         -7.1012  -21.8047  -51.9239 C.2       18 UNK         0.5000 
    103 O         -7.8510  -20.9122  -52.3256 O.2       18 UNK        -0.5000 
    104 N         -6.8997  -22.9524  -52.5863 N.am      19 UNK        -0.5000 
    105 CA        -7.4126  -23.2180  -53.9321 C.3       19 UNK         0.1400 
    106 CB        -7.3348  -24.7252  -54.2202 C.3       19 UNK        -0.1800 
    107 C         -6.6493  -22.4146  -55.0042 C.2       19 UNK         0.5000 
    108 O         -7.2381  -22.0376  -56.0185 O.2       19 UNK        -0.5000 
    109 N         -5.3616  -22.1511  -54.7463 N.am      20 UNK        -0.5000 
    110 CA        -4.5179  -21.2455  -55.5210 C.3       20 UNK         0.1400 
    111 CB        -3.0592  -21.7139  -55.4097 C.3       20 UNK        -0.1800 
    112 C         -4.6605  -19.8030  -55.0025 C.2       20 UNK         0.5000 
    113 O         -4.9874  -19.5922  -53.8314 O.2       20 UNK        -0.5000 
    114 N         -4.3808  -18.8311  -55.8782 N.am      21 UNK        -0.5000 
    115 CA        -4.4121  -17.3985  -55.5834 C.3       21 UNK         0.1400 
    116 CB        -4.6496  -16.6304  -56.8963 C.3       21 UNK        -0.1800 
    117 C         -3.1238  -16.9526  -54.8620 C.2       21 UNK         0.5000 
    118 O         -2.2620  -16.3142  -55.4688 O.2       21 UNK        -0.5000 
    119 N         -3.0040  -17.3290  -53.5843 N.am      22 UNK        -0.5000 
    120 CA        -1.8420  -17.0443  -52.7225 C.3       22 UNK         0.1400 
    121 C         -1.7129  -15.5672  -52.2419 C.2       22 UNK         0.5000 
    122 N         -2.7018  -14.7084  -52.4577 N.am      22 UNK        -0.7600 
    123 O         -0.6979  -15.1933  -51.6592 O.2       22 UNK        -0.5000 
    124 C124       -1.7656  -18.0107  -51.5113 C.3       23 UNK        -0.0398 
    125 S125       -1.9531  -19.7835  -51.9161 S.3       23 UNK        -0.2404 
    126 C126       -0.5971  -20.0968  -53.0980 C.3       23 UNK        -0.0205 
    127 H127       -0.6768  -11.0796  -50.3993 H         1 UNK         0.0600 
    128 H128       -0.8850  -12.4578  -51.4815 H         1 UNK         0.0600 
    129 H129       -0.2663  -10.9300  -52.1119 H         1 UNK         0.0600 
    130 H130        0.7283  -13.9948  -51.2703 H         1 UNK         0.3000 
    131 H131        3.5337  -13.3044  -51.2239 H         1 UNK         0.0600 
    132 H132        3.8679  -15.7828  -51.0130 H         1 UNK         0.0800 
    133 H133        2.1428  -16.0043  -50.8252 H         1 UNK         0.0800 
    134 H134        4.5052  -17.0881  -53.0972 H         1 UNK         0.0800 
    135 H135        3.4591  -17.2806  -54.4808 H         1 UNK         0.0800 
    136 H136        1.0962  -18.2172  -54.1293 H         1 UNK         0.1150 
    137 H137        0.7107  -20.9996  -50.8913 H         1 UNK         0.1150 
    138 H138        4.1082  -18.3902  -51.0867 H         1 UNK         0.1150 
    139 H139        2.6773  -21.3677  -49.4281 H         1 UNK         0.0800 
    140 H140        4.0729  -20.3364  -49.5459 H         1 UNK         0.0800 
    141 H141        0.2310  -19.5540  -49.0552 H         1 UNK         0.0800 
    142 H142        0.1523  -18.9108  -47.4507 H         1 UNK         0.0800 
    143 H143        1.0112  -21.7990  -47.8984 H         1 UNK         0.0600 
    144 H144        0.6196  -20.2686  -45.5437 H         1 UNK         0.3000 
    145 H145        0.2479  -23.1060  -43.3416 H         1 UNK         0.0600 
    146 H146        2.0661  -21.8213  -42.2594 H         1 UNK         0.0600 
    147 H147        2.6650  -22.6090  -43.7118 H         1 UNK         0.0600 
    148 H148        2.3225  -20.8839  -43.7287 H         1 UNK         0.0600 
    149 H149        0.0639  -20.3311  -42.7893 H         1 UNK         0.3000 
    150 H150       -3.5019  -20.0347  -43.1759 H         1 UNK         0.0600 
    151 H151       -3.0028  -20.9595  -40.9046 H         1 UNK         0.0600 
    152 H152       -3.1942  -19.2129  -40.8644 H         1 UNK         0.0600 
    153 H153       -1.5844  -19.9240  -40.7869 H         1 UNK         0.0600 
    154 H154       -1.5957  -18.0749  -42.4711 H         1 UNK         0.3000 
    155 H155       -0.8229  -16.9487  -45.7972 H         1 UNK         0.0600 
    156 H156       -2.3401  -15.7953  -43.3969 H         1 UNK         0.0600 
    157 H157       -2.8564  -15.7746  -45.0738 H         1 UNK         0.0600 
    158 H158       -1.4617  -14.8297  -44.5771 H         1 UNK         0.0600 
    159 H159        0.2565  -16.1125  -43.3232 H         1 UNK         0.3000 
    160 H160        2.9439  -18.4721  -43.1040 H         1 UNK         0.0600 
    161 H161        2.8434  -15.4769  -43.7482 H         1 UNK         0.0600 
    162 H162        3.7414  -16.6999  -44.6326 H         1 UNK         0.0600 
    163 H163        4.1902  -16.3130  -42.9783 H         1 UNK         0.0600 
    164 H164        2.0117  -16.2549  -41.4996 H         1 UNK         0.3000 
    165 H165       -0.0197  -18.1962  -39.3033 H         1 UNK         0.0600 
    166 H166        1.5053  -17.1766  -37.6360 H         1 UNK         0.0600 
    167 H167        2.3195  -18.4894  -38.4716 H         1 UNK         0.0600 
    168 H168        2.6923  -16.8216  -38.8914 H         1 UNK         0.0600 
    169 H169        0.7037  -15.4225  -39.3756 H         1 UNK         0.3000 
    170 H170       -1.8716  -14.3167  -41.5553 H         1 UNK         0.0600 
    171 H171       -3.0788  -14.6230  -39.3875 H         1 UNK         0.0600 
    172 H172       -1.6728  -14.0309  -38.5106 H         1 UNK         0.0600 
    173 H173       -2.5538  -12.9613  -39.6025 H         1 UNK         0.0600 
    174 H174       -0.0717  -12.8168  -39.9995 H         1 UNK         0.3000 
    175 H175        1.4932  -11.5526  -41.4397 H         1 UNK         0.0600 
    176 H176        3.3020  -13.8730  -40.5070 H         1 UNK         0.0600 
    177 H177        3.6592  -12.1615  -40.2948 H         1 UNK         0.0600 
    178 H178        2.3052  -12.8814  -39.4480 H         1 UNK         0.0600 
    179 H179        2.5059  -13.3720  -43.4026 H         1 UNK         0.3000 
    180 H180        4.3182  -10.9714  -45.1330 H         1 UNK         0.0600 
    181 H181        5.8264  -13.1977  -43.6588 H         1 UNK         0.0600 
    182 H182        6.2649  -11.4939  -43.6780 H         1 UNK         0.0600 
    183 H183        6.3375  -12.4290  -45.1623 H         1 UNK         0.0600 
    184 H184        4.0599  -13.9007  -45.1851 H         1 UNK         0.3000 
    185 H185        2.8507  -14.9009  -46.6972 H         1 UNK         0.0600 
    186 H186        0.8481  -14.5074  -45.2736 H         1 UNK         0.0600 
    187 H187        0.0841  -13.5884  -46.5627 H         1 UNK         0.0600 
    188 H188        0.4144  -15.3065  -46.7807 H         1 UNK         0.0600 
    189 H189        1.1473  -13.8893  -48.7553 H         1 UNK         0.3000 
    190 H190       -2.0266  -20.5102  -46.4514 H         1 UNK         0.3000 
    191 H191       -3.7579  -21.3957  -48.5032 H         1 UNK         0.0600 
    192 H192       -4.2771  -21.0093  -45.5089 H         1 UNK         0.0600 
    193 H193       -5.5277  -21.2217  -46.7279 H         1 UNK         0.0600 
    194 H194       -4.4911  -19.8042  -46.7770 H         1 UNK         0.0600 
    195 H195       -2.6498  -23.0892  -45.5183 H         1 UNK         0.3000 
    196 H196       -4.1102  -25.4816  -45.9095 H         1 UNK         0.0600 
    197 H197       -2.4662  -26.4401  -44.2834 H         1 UNK         0.0600 
    198 H198       -3.0785  -24.8822  -43.7492 H         1 UNK         0.0600 
    199 H199       -1.4634  -25.0026  -44.4416 H         1 UNK         0.0600 
    200 H200       -0.7775  -24.6049  -46.9374 H         1 UNK         0.3000 
    201 H201       -0.1247  -27.0432  -48.2280 H         1 UNK         0.0600 
    202 H202        1.5539  -25.3228  -47.6020 H         1 UNK         0.0600 
    203 H203        0.8738  -24.1957  -48.7735 H         1 UNK         0.0600 
    204 H204        1.6553  -25.6737  -49.3211 H         1 UNK         0.0600 
    205 H205       -1.8325  -24.1601  -49.4090 H         1 UNK         0.3000 
    206 H206       -2.1420  -25.1820  -52.1358 H         1 UNK         0.0600 
    207 H207       -1.6874  -22.7912  -51.7092 H         1 UNK         0.0600 
    208 H208       -3.2518  -22.9813  -52.4808 H         1 UNK         0.0600 
    209 H209       -3.1587  -22.6526  -50.7538 H         1 UNK         0.0600 
    210 H210       -3.4707  -26.5382  -49.6832 H         1 UNK         0.3000 
    211 H211       -5.2762  -27.7456  -49.2556 H         1 UNK         0.0600 
    212 H212       -5.9028  -27.4340  -52.2407 H         1 UNK         0.0600 
    213 H213       -6.5270  -28.6844  -51.1740 H         1 UNK         0.0600 
    214 H214       -4.8104  -28.6274  -51.5400 H         1 UNK         0.0600 
    215 H215       -5.6184  -25.3641  -48.3052 H         1 UNK         0.3000 
    216 H216       -7.0443  -24.0207  -47.3048 H         1 UNK         0.0600 
    217 H217       -9.4646  -24.3530  -47.2631 H         1 UNK         0.0600 
    218 H218       -8.6755  -25.9137  -47.1033 H         1 UNK         0.0600 
    219 H219       -9.4057  -25.4422  -48.6379 H         1 UNK         0.0600 
    220 H220       -5.6524  -23.2366  -49.3896 H         1 UNK         0.3000 
    221 H221       -5.2748  -21.6174  -50.8668 H         1 UNK         0.0600 
    222 H222       -7.6918  -20.2438  -49.5863 H         1 UNK         0.0600 
    223 H223       -6.0370  -20.1938  -48.9818 H         1 UNK         0.0600 
    224 H224       -6.4280  -19.4589  -50.5250 H         1 UNK         0.0600 
    225 H225       -6.2749  -23.6565  -52.1970 H         1 UNK         0.3000 
    226 H226       -8.4623  -22.9189  -53.9687 H         1 UNK         0.0600 
    227 H227       -7.8645  -25.3005  -53.4603 H         1 UNK         0.0600 
    228 H228       -7.7871  -24.9607  -55.1842 H         1 UNK         0.0600 
    229 H229       -6.3034  -25.0785  -54.2474 H         1 UNK         0.0600 
    230 H230       -4.9886  -22.4625  -53.8624 H         1 UNK         0.3000 
    231 H231       -4.8151  -21.2760  -56.5715 H         1 UNK         0.0600 
    232 H232       -2.9429  -22.7342  -55.7755 H         1 UNK         0.0600 
    233 H233       -2.7083  -21.6858  -54.3789 H         1 UNK         0.0600 
    234 H234       -2.3958  -21.0794  -55.9986 H         1 UNK         0.0600 
    235 H235       -4.0807  -19.0840  -56.8087 H         1 UNK         0.3000 
    236 H236       -5.2542  -17.1858  -54.9210 H         1 UNK         0.0600 
    237 H237       -4.6816  -15.5546  -56.7188 H         1 UNK         0.0600 
    238 H238       -3.8615  -16.8202  -57.6262 H         1 UNK         0.0600 
    239 H239       -5.6002  -16.9115  -57.3499 H         1 UNK         0.0600 
    240 H240       -3.7229  -17.9242  -53.1896 H         1 UNK         0.3000 
    241 H241       -0.9537  -17.2151  -53.3302 H         1 UNK         0.0600 
    242 H242       -2.6138  -13.7566  -52.1422 H         1 UNK         0.3800 
    243 H243       -3.5401  -15.0033  -52.9310 H         1 UNK         0.3800 
    244 H244       -0.8190  -17.8823  -50.9829 H         1 UNK         0.0800 
    245 H245       -2.5456  -17.7640  -50.7890 H         1 UNK         0.0800 
    246 H246       -0.8278  -19.6001  -54.0416 H         1 UNK         0.0800 
    247 H247       -0.5572  -21.1644  -53.3159 H         1 UNK         0.0800 
@<TRIPOS>BOND
     1    1    2 1    
     2    1  127 1    
     3    1  128 1    
     4    1  129 1    
     5    2    3 2    
     6    2    4 am   BACKBONE|DICT|INTERRES
     7    4    5 1    
     8    4  130 1    
     9    5    6 1    
    10    5   65 1    
    11    5  131 1    
    12    6    7 1    
    13    6  132 1    
    14    6  133 1    
    15    7    8 1    
    16    8    9 1    
    17    8  134 1    
    18    8  135 1    
    19    9   10 ar   
    20    9   14 ar   
    21   10   11 ar   
    22   10  136 1    
    23   11   12 ar   
    24   11  126 1    
    25   12   13 ar   
    26   12  137 1    
    27   13   14 ar   
    28   13   15 1    
    29   14  138 1    
    30   15   16 1    
    31   15  139 1    
    32   15  140 1    
    33   16   17 1    
    34   17   18 1    
    35   17  141 1    
    36   17  142 1    
    37   18   19 1    
    38   18   67 1    
    39   18  143 1    
    40   19   20 am   BACKBONE|DICT|INTERRES
    41   19  144 1    
    42   20   21 2    
    43   20   22 1    
    44   22   23 1    
    45   22   24 1    
    46   22  145 1    
    47   23  146 1    
    48   23  147 1    
    49   23  148 1    
    50   24   25 am   BACKBONE|DICT|INTERRES
    51   24  149 1    
    52   25   26 2    
    53   25   27 1    
    54   27   28 1    
    55   27   29 1    
    56   27  150 1    
    57   28  151 1    
    58   28  152 1    
    59   28  153 1    
    60   29   30 am   BACKBONE|DICT|INTERRES
    61   29  154 1    
    62   30   31 2    
    63   30   32 1    
    64   32   33 1    
    65   32   34 1    
    66   32  155 1    
    67   33  156 1    
    68   33  157 1    
    69   33  158 1    
    70   34   35 am   BACKBONE|DICT|INTERRES
    71   34  159 1    
    72   35   36 2    
    73   35   37 1    
    74   37   38 1    
    75   37   39 1    
    76   37  160 1    
    77   38  161 1    
    78   38  162 1    
    79   38  163 1    
    80   39   40 am   BACKBONE|DICT|INTERRES
    81   39  164 1    
    82   40   41 2    
    83   40   42 1    
    84   42   43 1    
    85   42   44 1    
    86   42  165 1    
    87   43  166 1    
    88   43  167 1    
    89   43  168 1    
    90   44   45 am   BACKBONE|DICT|INTERRES
    91   44  169 1    
    92   45   46 2    
    93   45   47 1    
    94   47   48 1    
    95   47   49 1    
    96   47  170 1    
    97   48  171 1    
    98   48  172 1    
    99   48  173 1    
   100   49   50 am   BACKBONE|DICT|INTERRES
   101   49  174 1    
   102   50   51 2    
   103   50   52 1    
   104   52   53 1    
   105   52   54 1    
   106   52  175 1    
   107   53  176 1    
   108   53  177 1    
   109   53  178 1    
   110   54   55 am   BACKBONE|DICT|INTERRES
   111   54  179 1    
   112   55   56 2    
   113   55   57 1    
   114   57   58 1    
   115   57   59 1    
   116   57  180 1    
   117   58  181 1    
   118   58  182 1    
   119   58  183 1    
   120   59   60 am   BACKBONE|DICT|INTERRES
   121   59  184 1    
   122   60   61 2    
   123   60   62 1    
   124   62   63 1    
   125   62   64 1    
   126   62  185 1    
   127   63  186 1    
   128   63  187 1    
   129   63  188 1    
   130   64   65 am   BACKBONE|DICT|INTERRES
   131   64  189 1    
   132   65   66 2    
   133   67   68 2    
   134   67   69 am   BACKBONE|DICT|INTERRES
   135   69   70 1    
   136   69  190 1    
   137   70   71 1    
   138   70   72 1    
   139   70  191 1    
   140   71  192 1    
   141   71  193 1    
   142   71  194 1    
   143   72   73 2    
   144   72   74 am   BACKBONE|DICT|INTERRES
   145   74   75 1    
   146   74  195 1    
   147   75   76 1    
   148   75   77 1    
   149   75  196 1    
   150   76  197 1    
   151   76  198 1    
   152   76  199 1    
   153   77   78 2    
   154   77   79 am   BACKBONE|DICT|INTERRES
   155   79   80 1    
   156   79  200 1    
   157   80   81 1    
   158   80   82 1    
   159   80  201 1    
   160   81  202 1    
   161   81  203 1    
   162   81  204 1    
   163   82   83 2    
   164   82   84 am   BACKBONE|DICT|INTERRES
   165   84   85 1    
   166   84  205 1    
   167   85   86 1    
   168   85   87 1    
   169   85  206 1    
   170   86  207 1    
   171   86  208 1    
   172   86  209 1    
   173   87   88 2    
   174   87   89 am   BACKBONE|DICT|INTERRES
   175   89   90 1    
   176   89  210 1    
   177   90   91 1    
   178   90   92 1    
   179   90  211 1    
   180   91  212 1    
   181   91  213 1    
   182   91  214 1    
   183   92   93 2    
   184   92   94 am   BACKBONE|DICT|INTERRES
   185   94   95 1    
   186   94  215 1    
   187   95   96 1    
   188   95   97 1    
   189   95  216 1    
   190   96  217 1    
   191   96  218 1    
   192   96  219 1    
   193   97   98 2    
   194   97   99 am   BACKBONE|DICT|INTERRES
   195   99  100 1    
   196   99  220 1    
   197  100  101 1    
   198  100  102 1    
   199  100  221 1    
   200  101  222 1    
   201  101  223 1    
   202  101  224 1    
   203  102  103 2    
   204  102  104 am   BACKBONE|DICT|INTERRES
   205  104  105 1    
   206  104  225 1    
   207  105  106 1    
   208  105  107 1    
   209  105  226 1    
   210  106  227 1    
   211  106  228 1    
   212  106  229 1    
   213  107  108 2    
   214  107  109 am   BACKBONE|DICT|INTERRES
   215  109  110 1    
   216  109  230 1    
   217  110  111 1    
   218  110  112 1    
   219  110  231 1    
   220  111  232 1    
   221  111  233 1    
   222  111  234 1    
   223  112  113 2    
   224  112  114 am   BACKBONE|DICT|INTERRES
   225  114  115 1    
   226  114  235 1    
   227  115  116 1    
   228  115  117 1    
   229  115  236 1    
   230  116  237 1    
   231  116  238 1    
   232  116  239 1    
   233  117  118 2    
   234  117  119 am   BACKBONE|DICT|INTERRES
   235  119  120 1    
   236  119  240 1    
   237  120  121 1    
   238  120  124 1    
   239  120  241 1    
   240  121  122 am   BACKBONE|DICT|INTERRES
   241  121  123 2    
   242  122  242 1    
   243  122  243 1    
   244  124  125 1    
   245  124  244 1    
   246  124  245 1    
   247  125  126 1    
   248  126  246 1    
   249  126  247 1    
@<TRIPOS>SUBSTRUCTURE
     1 UNK         1 GROUP             0       ****    0 ROOT    
