@<TRIPOS>MOLECULE
3R540
247   249    1
SMALL
USER_CHARGES


@<TRIPOS>ATOM
      1 CA          6.8797  -15.7320  -49.7954 C.3       0 UNK        -0.1800 
      2 C           5.3627  -15.8048  -49.7078 C.2       0 UNK         0.5000 
      3 O           4.8305  -16.6002  -48.9368 O.2       0 UNK        -0.5000 
      4 N           4.6601  -14.9657  -50.4782 N.am      1 UNK        -0.5000 
      5 CA          3.1920  -14.9169  -50.5633 C.3       1 UNK         0.1400 
      6 C6          2.7183  -13.9947  -51.7137 C.3       23 UNK        -0.0398 
      7 S7          3.3803  -14.5520  -53.3274 S.3       23 UNK        -0.2404 
      8 C8          1.8864  -14.8697  -54.3248 C.3       23 UNK        -0.0205 
      9 C9          0.8866  -15.7945  -53.6435 C.ar      23 UNK        -0.0193 
     10 C10        -0.4023  -15.3321  -53.3634 C.ar      23 UNK        -0.1150 
     11 C11        -1.3326  -16.1579  -52.7288 C.ar      23 UNK        -0.0193 
     12 C12        -0.9602  -17.4516  -52.3610 C.ar      23 UNK        -0.1150 
     13 C13         0.3239  -17.9306  -52.6376 C.ar      23 UNK        -0.0193 
     14 C14         1.2399  -17.1019  -53.2931 C.ar      23 UNK        -0.1150 
     15 C15         0.7234  -19.3301  -52.1899 C.3       23 UNK        -0.0205 
     16 S16         1.9537  -19.3408  -50.8398 S.3       23 UNK        -0.2404 
     17 C17         1.3506  -18.0535  -49.6935 C.3       23 UNK        -0.0398 
     18 CA          0.4918  -18.5294  -48.5043 C.3       11 UNK         0.1400 
     19 N           0.3556  -17.4381  -47.5307 N.am      11 UNK        -0.5000 
     20 C          -0.2073  -17.5292  -46.3189 C.2       10 UNK         0.5000 
     21 O          -0.7179  -18.5659  -45.8891 O.2       10 UNK        -0.5000 
     22 CA         -0.2107  -16.2281  -45.4895 C.3       10 UNK         0.1400 
     23 CB         -1.1007  -15.1492  -46.1408 C.3       10 UNK        -0.1800 
     24 N          -0.5646  -16.4145  -44.0769 N.am      10 UNK        -0.5000 
     25 C          -1.7300  -16.8304  -43.5604 C.2       9 UNK         0.5000 
     26 O          -2.7455  -17.0701  -44.2171 O.2       9 UNK        -0.5000 
     27 CA         -1.7764  -16.9596  -42.0271 C.3       9 UNK         0.1400 
     28 CB         -2.6926  -15.8885  -41.4158 C.3       9 UNK        -0.1800 
     29 N          -2.2363  -18.2791  -41.6031 N.am      9 UNK        -0.5000 
     30 C          -1.5432  -19.4161  -41.7331 C.2       8 UNK         0.5000 
     31 O          -0.4022  -19.4811  -42.1939 O.2       8 UNK        -0.5000 
     32 CA         -2.2248  -20.6833  -41.1901 C.3       8 UNK         0.1400 
     33 CB         -1.8031  -21.9513  -41.9486 C.3       8 UNK        -0.1800 
     34 N          -1.8920  -20.8392  -39.7776 N.am      8 UNK        -0.5000 
     35 C          -2.5144  -20.1986  -38.7782 C.2       7 UNK         0.5000 
     36 O          -3.5003  -19.4786  -38.9445 O.2       7 UNK        -0.5000 
     37 CA         -1.9490  -20.3800  -37.3553 C.3       7 UNK         0.1400 
     38 CB         -2.7484  -21.4472  -36.5921 C.3       7 UNK        -0.1800 
     39 N          -0.5301  -20.7392  -37.3247 N.am      7 UNK        -0.5000 
     40 C           0.4773  -19.9345  -37.6886 C.2       6 UNK         0.5000 
     41 O           0.3206  -18.7770  -38.0797 O.2       6 UNK        -0.5000 
     42 CA          1.9048  -20.5158  -37.6230 C.3       6 UNK         0.1400 
     43 CB          2.0294  -21.8030  -36.7757 C.3       6 UNK        -0.1800 
     44 N           2.4566  -20.7225  -38.9648 N.am      6 UNK        -0.5000 
     45 C           1.9552  -21.5024  -39.9332 C.2       5 UNK         0.5000 
     46 O           0.9340  -22.1826  -39.8140 O.2       5 UNK        -0.5000 
     47 CA          2.7010  -21.4443  -41.2739 C.3       5 UNK         0.1400 
     48 CB          2.3688  -22.6211  -42.2075 C.3       5 UNK        -0.1800 
     49 N           2.3325  -20.1871  -41.9141 N.am      5 UNK        -0.5000 
     50 C           3.1681  -19.1817  -42.1823 C.2       4 UNK         0.5000 
     51 O           4.3927  -19.2427  -42.0456 O.2       4 UNK        -0.5000 
     52 CA          2.5018  -17.8602  -42.5952 C.3       4 UNK         0.1400 
     53 CB          2.0418  -17.0971  -41.3417 C.3       4 UNK        -0.1800 
     54 N           3.4271  -17.0073  -43.3343 N.am      4 UNK        -0.5000 
     55 C           3.5920  -17.0319  -44.6598 C.2       3 UNK         0.5000 
     56 O           2.9446  -17.7502  -45.4226 O.2       3 UNK        -0.5000 
     57 CA          4.6580  -16.0800  -45.2287 C.3       3 UNK         0.1400 
     58 CB          5.8337  -16.8681  -45.8263 C.3       3 UNK        -0.1800 
     59 N           4.0924  -15.1822  -46.2384 N.am      3 UNK        -0.5000 
     60 C           3.2520  -14.1738  -45.9562 C.2       2 UNK         0.5000 
     61 O           2.8507  -13.9350  -44.8165 O.2       2 UNK        -0.5000 
     62 CA          2.7927  -13.2517  -47.1047 C.3       2 UNK         0.1400 
     63 CB          3.3195  -11.8234  -46.8886 C.3       2 UNK        -0.1800 
     64 N           3.2257  -13.7040  -48.4260 N.am      2 UNK        -0.5000 
     65 C           2.5298  -14.5276  -49.2195 C.2       1 UNK         0.5000 
     66 O           1.4356  -15.0024  -48.9097 O.2       1 UNK        -0.5000 
     67 C          -0.8740  -19.1073  -48.9408 C.2       11 UNK         0.5000 
     68 O          -0.9654  -20.2997  -49.2355 O.2       11 UNK        -0.5000 
     69 N          -1.9237  -18.2713  -48.8931 N.am      12 UNK        -0.5000 
     70 CA         -3.3282  -18.6358  -49.0867 C.3       12 UNK         0.1400 
     71 CB         -4.2051  -17.4035  -48.8177 C.3       12 UNK        -0.1800 
     72 C          -3.7830  -19.8115  -48.2019 C.2       12 UNK         0.5000 
     73 O          -4.4640  -20.7095  -48.6970 O.2       12 UNK        -0.5000 
     74 N          -3.3687  -19.8004  -46.9290 N.am      13 UNK        -0.5000 
     75 CA         -3.6428  -20.8699  -45.9763 C.3       13 UNK         0.1400 
     76 CB         -3.9360  -20.2600  -44.5991 C.3       13 UNK        -0.1800 
     77 C          -2.4676  -21.8553  -45.8950 C.2       13 UNK         0.5000 
     78 O          -2.7013  -23.0629  -45.8880 O.2       13 UNK        -0.5000 
     79 N          -1.2309  -21.3381  -45.8367 N.am      14 UNK        -0.5000 
     80 CA         -0.0144  -22.1188  -45.5938 C.3       14 UNK         0.1400 
     81 CB          1.1624  -21.1711  -45.3198 C.3       14 UNK        -0.1800 
     82 C           0.3311  -23.1191  -46.7123 C.2       14 UNK         0.5000 
     83 O           0.8057  -24.2137  -46.4072 O.2       14 UNK        -0.5000 
     84 N           0.0635  -22.7497  -47.9724 N.am      15 UNK        -0.5000 
     85 CA          0.1965  -23.6302  -49.1380 C.3       15 UNK         0.1400 
     86 CB          0.9190  -22.8701  -50.2625 C.3       15 UNK        -0.1800 
     87 C          -1.1731  -24.1500  -49.6197 C.2       15 UNK         0.5000 
     88 O          -1.2249  -24.8685  -50.6183 O.2       15 UNK        -0.5000 
     89 N          -2.2529  -23.7676  -48.9188 N.am      16 UNK        -0.5000 
     90 CA         -3.6621  -24.0755  -49.1891 C.3       16 UNK         0.1400 
     91 CB         -3.9388  -25.5815  -49.0057 C.3       16 UNK        -0.1800 
     92 C          -4.1722  -23.5382  -50.5439 C.2       16 UNK         0.5000 
     93 O          -5.1503  -24.0593  -51.0823 O.2       16 UNK        -0.5000 
     94 N          -3.5279  -22.4834  -51.0644 N.am      17 UNK        -0.5000 
     95 CA         -3.8528  -21.8450  -52.3416 C.3       17 UNK         0.1400 
     96 CB         -2.7643  -20.8237  -52.6911 C.3       17 UNK        -0.1800 
     97 C          -5.2543  -21.2068  -52.3936 C.2       17 UNK         0.5000 
     98 O          -5.7918  -21.0446  -53.4866 O.2       17 UNK        -0.5000 
     99 N          -5.8580  -20.9184  -51.2312 N.am      18 UNK        -0.5000 
    100 CA        -7.2509  -20.4816  -51.0983 C.3       18 UNK         0.1400 
    101 CB        -7.5298  -20.1221  -49.6313 C.3       18 UNK        -0.1800 
    102 C         -8.2822  -21.5173  -51.5973 C.2       18 UNK         0.5000 
    103 O         -9.3886  -21.1276  -51.9718 O.2       18 UNK        -0.5000 
    104 N         -7.9082  -22.8061  -51.6145 N.am      19 UNK        -0.5000 
    105 CA        -8.7187  -23.8965  -52.1636 C.3       19 UNK         0.1400 
    106 CB        -8.3108  -25.2125  -51.4819 C.3       19 UNK        -0.1800 
    107 C         -8.6013  -24.0207  -53.6982 C.2       19 UNK         0.5000 
    108 O         -9.3764  -24.7666  -54.2988 O.2       19 UNK        -0.5000 
    109 N         -7.6425  -23.3079  -54.3020 N.am      20 UNK        -0.5000 
    110 CA        -7.3914  -23.2474  -55.7366 C.3       20 UNK         0.1400 
    111 CB        -6.0056  -23.8624  -56.0222 C.3       20 UNK        -0.1800 
    112 C         -7.5354  -21.7772  -56.1658 C.2       20 UNK         0.5000 
    113 O         -8.6474  -21.2471  -56.1221 O.2       20 UNK        -0.5000 
    114 N         -6.4257  -21.1345  -56.5410 N.am      21 UNK        -0.5000 
    115 CA        -6.3214  -19.7047  -56.7964 C.3       21 UNK         0.1400 
    116 CB        -6.7230  -19.4000  -58.2506 C.3       21 UNK        -0.1800 
    117 C         -4.8789  -19.2614  -56.5134 C.2       21 UNK         0.5000 
    118 O         -3.9570  -20.0775  -56.6003 O.2       21 UNK        -0.5000 
    119 N         -4.7124  -17.9698  -56.2124 N.am      22 UNK        -0.5000 
    120 CA        -3.4113  -17.3110  -55.9977 C.3       22 UNK         0.1400 
    121 C         -2.6460  -16.9628  -57.3106 C.2       22 UNK         0.5000 
    122 N         -3.2322  -17.1185  -58.4919 N.am      22 UNK        -0.7600 
    123 O         -1.4913  -16.5495  -57.2585 O.2       22 UNK        -0.5000 
    124 C124       -3.5676  -16.0582  -55.0977 C.3       23 UNK        -0.0398 
    125 S125       -4.0225  -16.5016  -53.3843 S.3       23 UNK        -0.2404 
    126 C126       -2.7322  -15.6447  -52.4224 C.3       23 UNK        -0.0205 
    127 H127        7.2089  -14.9789  -50.5117 H         1 UNK         0.0600 
    128 H128        7.2997  -15.4830  -48.8210 H         1 UNK         0.0600 
    129 H129        7.2829  -16.6961  -50.1052 H         1 UNK         0.0600 
    130 H130        5.1506  -14.3454  -51.1070 H         1 UNK         0.3000 
    131 H131        2.8569  -15.9266  -50.8023 H         1 UNK         0.0600 
    132 H132        3.0481  -12.9685  -51.5438 H         1 UNK         0.0800 
    133 H133        1.6288  -13.9576  -51.7534 H         1 UNK         0.0800 
    134 H134        2.1857  -15.3142  -55.2748 H         1 UNK         0.0800 
    135 H135        1.4240  -13.9123  -54.5697 H         1 UNK         0.0800 
    136 H136       -0.6824  -14.3250  -53.6386 H         1 UNK         0.1150 
    137 H137       -1.6744  -18.0775  -51.8489 H         1 UNK         0.1150 
    138 H138        2.2372  -17.4634  -53.5015 H         1 UNK         0.1150 
    139 H139       -0.1510  -19.8878  -51.8574 H         1 UNK         0.0800 
    140 H140        1.1269  -19.8796  -53.0412 H         1 UNK         0.0800 
    141 H141        0.8488  -17.2481  -50.2267 H         1 UNK         0.0800 
    142 H142        2.2581  -17.6058  -49.2873 H         1 UNK         0.0800 
    143 H143        1.0342  -19.3351  -48.0108 H         1 UNK         0.0600 
    144 H144        0.7371  -16.5450  -47.8282 H         1 UNK         0.3000 
    145 H145        0.8143  -15.8581  -45.4875 H         1 UNK         0.0600 
    146 H146       -1.1109  -14.2362  -45.5454 H         1 UNK         0.0600 
    147 H147       -0.7351  -14.8793  -47.1320 H         1 UNK         0.0600 
    148 H148       -2.1314  -15.4855  -46.2565 H         1 UNK         0.0600 
    149 H149        0.1957  -16.2496  -43.4350 H         1 UNK         0.3000 
    150 H150       -0.7752  -16.8092  -41.6236 H         1 UNK         0.0600 
    151 H151       -2.3633  -14.8872  -41.6964 H         1 UNK         0.0600 
    152 H152       -2.6868  -15.9393  -40.3267 H         1 UNK         0.0600 
    153 H153       -3.7242  -16.0011  -41.7520 H         1 UNK         0.0600 
    154 H154       -3.1524  -18.3187  -41.1787 H         1 UNK         0.3000 
    155 H155       -3.3053  -20.5751  -41.3073 H         1 UNK         0.0600 
    156 H156       -2.3555  -22.8224  -41.5967 H         1 UNK         0.0600 
    157 H157       -1.9956  -21.8521  -43.0149 H         1 UNK         0.0600 
    158 H158       -0.7428  -22.1603  -41.8290 H         1 UNK         0.0600 
    159 H159       -1.0533  -21.3710  -39.5720 H         1 UNK         0.3000 
    160 H160       -2.0670  -19.4277  -36.8341 H         1 UNK         0.0600 
    161 H161       -2.6527  -22.4297  -37.0563 H         1 UNK         0.0600 
    162 H162       -3.8101  -21.1976  -36.5680 H         1 UNK         0.0600 
    163 H163       -2.4121  -21.5288  -35.5584 H         1 UNK         0.0600 
    164 H164       -0.3091  -21.6839  -37.0449 H         1 UNK         0.3000 
    165 H165        2.5215  -19.7516  -37.1476 H         1 UNK         0.0600 
    166 H166        1.4793  -22.6415  -37.2037 H         1 UNK         0.0600 
    167 H167        3.0722  -22.1081  -36.6885 H         1 UNK         0.0600 
    168 H168        1.6584  -21.6433  -35.7625 H         1 UNK         0.0600 
    169 H169        3.2665  -20.1606  -39.1867 H         1 UNK         0.3000 
    170 H170        3.7704  -21.4830  -41.0564 H         1 UNK         0.0600 
    171 H171        2.5109  -23.5761  -41.7005 H         1 UNK         0.0600 
    172 H172        1.3408  -22.5852  -42.5638 H         1 UNK         0.0600 
    173 H173        3.0227  -22.6188  -43.0790 H         1 UNK         0.0600 
    174 H174        1.3308  -20.0197  -42.0127 H         1 UNK         0.3000 
    175 H175        1.6327  -18.0844  -43.2172 H         1 UNK         0.0600 
    176 H176        2.8774  -16.8792  -40.6751 H         1 UNK         0.0600 
    177 H177        1.5719  -16.1491  -41.6025 H         1 UNK         0.0600 
    178 H178        1.3169  -17.6787  -40.7702 H         1 UNK         0.0600 
    179 H179        4.0293  -16.4197  -42.7762 H         1 UNK         0.3000 
    180 H180        5.0538  -15.4627  -44.4192 H         1 UNK         0.0600 
    181 H181        5.5033  -17.5637  -46.5981 H         1 UNK         0.0600 
    182 H182        6.3359  -17.4550  -45.0564 H         1 UNK         0.0600 
    183 H183        6.5765  -16.2029  -46.2666 H         1 UNK         0.0600 
    184 H184        4.3174  -15.3920  -47.2029 H         1 UNK         0.3000 
    185 H185        1.7016  -13.2150  -47.0714 H         1 UNK         0.0600 
    186 H186        2.9833  -11.4201  -45.9324 H         1 UNK         0.0600 
    187 H187        4.4097  -11.7912  -46.8934 H         1 UNK         0.0600 
    188 H188        2.9600  -11.1490  -47.6661 H         1 UNK         0.0600 
    189 H189        4.1289  -13.3810  -48.7423 H         1 UNK         0.3000 
    190 H190       -1.7455  -17.3163  -48.6211 H         1 UNK         0.3000 
    191 H191       -3.4598  -18.9278  -50.1285 H         1 UNK         0.0600 
    192 H192       -5.2582  -17.6259  -48.9896 H         1 UNK         0.0600 
    193 H193       -3.9429  -16.5751  -49.4732 H         1 UNK         0.0600 
    194 H194       -4.1073  -17.0561  -47.7881 H         1 UNK         0.0600 
    195 H195       -2.7632  -19.0536  -46.6100 H         1 UNK         0.3000 
    196 H196       -4.5298  -21.4285  -46.2837 H         1 UNK         0.0600 
    197 H197       -4.1981  -21.0328  -43.8758 H         1 UNK         0.0600 
    198 H198       -4.7709  -19.5607  -44.6463 H         1 UNK         0.0600 
    199 H199       -3.0723  -19.7205  -44.2127 H         1 UNK         0.0600 
    200 H200       -1.1141  -20.3258  -45.8482 H         1 UNK         0.3000 
    201 H201       -0.1832  -22.7016  -44.6860 H         1 UNK         0.0600 
    202 H202        0.9562  -20.5239  -44.4674 H         1 UNK         0.0600 
    203 H203        1.3789  -20.5333  -46.1739 H         1 UNK         0.0600 
    204 H204        2.0718  -21.7284  -45.0957 H         1 UNK         0.0600 
    205 H205       -0.3210  -21.8281  -48.1592 H         1 UNK         0.3000 
    206 H206        0.8006  -24.5046  -48.8890 H         1 UNK         0.0600 
    207 H207        1.8586  -22.4426  -49.9123 H         1 UNK         0.0600 
    208 H208        1.1553  -23.5353  -51.0936 H         1 UNK         0.0600 
    209 H209        0.3088  -22.0605  -50.6611 H         1 UNK         0.0600 
    210 H210       -2.0893  -23.2184  -48.0858 H         1 UNK         0.3000 
    211 H211       -4.2340  -23.5440  -48.4272 H         1 UNK         0.0600 
    212 H212       -3.4517  -26.1798  -49.7761 H         1 UNK         0.0600 
    213 H213       -5.0076  -25.7929  -49.0559 H         1 UNK         0.0600 
    214 H214       -3.5864  -25.9307  -48.0351 H         1 UNK         0.0600 
    215 H215       -2.7598  -22.0902  -50.5394 H         1 UNK         0.3000 
    216 H216       -3.8377  -22.6225  -53.1081 H         1 UNK         0.0600 
    217 H217       -3.0080  -20.2767  -53.6036 H         1 UNK         0.0600 
    218 H218       -1.8069  -21.3179  -52.8550 H         1 UNK         0.0600 
    219 H219       -2.6357  -20.0971  -51.8927 H         1 UNK         0.0600 
    220 H220       -5.3438  -21.0566  -50.3651 H         1 UNK         0.3000 
    221 H221       -7.3754  -19.5805  -51.7022 H         1 UNK         0.0600 
    222 H222       -7.3690  -20.9759  -48.9717 H         1 UNK         0.0600 
    223 H223       -6.8844  -19.3127  -49.2937 H         1 UNK         0.0600 
    224 H224       -8.5601  -19.7905  -49.4964 H         1 UNK         0.0600 
    225 H225       -6.9738  -23.0561  -51.3076 H         1 UNK         0.3000 
    226 H226       -9.7689  -23.7100  -51.9297 H         1 UNK         0.0600 
    227 H227       -8.3801  -25.1355  -50.3968 H         1 UNK         0.0600 
    228 H228       -8.9628  -26.0302  -51.7917 H         1 UNK         0.0600 
    229 H229       -7.2892  -25.4978  -51.7346 H         1 UNK         0.0600 
    230 H230       -7.0973  -22.6595  -53.7455 H         1 UNK         0.3000 
    231 H231       -8.1409  -23.8153  -56.2912 H         1 UNK         0.0600 
    232 H232       -5.9863  -24.9158  -55.7424 H         1 UNK         0.0600 
    233 H233       -5.2120  -23.3622  -55.4652 H         1 UNK         0.0600 
    234 H234       -5.7604  -23.8087  -57.0837 H         1 UNK         0.0600 
    235 H235       -5.5320  -21.6081  -56.4976 H         1 UNK         0.3000 
    236 H236       -6.9830  -19.1686  -56.1122 H         1 UNK         0.0600 
    237 H237       -6.6566  -18.3321  -58.4614 H         1 UNK         0.0600 
    238 H238       -6.0779  -19.9183  -58.9612 H         1 UNK         0.0600 
    239 H239       -7.7508  -19.7040  -58.4494 H         1 UNK         0.0600 
    240 H240       -5.5223  -17.3696  -56.1585 H         1 UNK         0.3000 
    241 H241       -2.7632  -18.0135  -55.4690 H         1 UNK         0.0600 
    242 H242       -2.7211  -16.8930  -59.3312 H         1 UNK         0.3800 
    243 H243       -4.1768  -17.4600  -58.5578 H         1 UNK         0.3800 
    244 H244       -4.3296  -15.3895  -55.5007 H         1 UNK         0.0800 
    245 H245       -2.6463  -15.4752  -55.0809 H         1 UNK         0.0800 
    246 H246       -2.8034  -14.5721  -52.6097 H         1 UNK         0.0800 
    247 H247       -2.9314  -15.7794  -51.3603 H         1 UNK         0.0800 
@<TRIPOS>BOND
     1    1    2 1    
     2    1  127 1    
     3    1  128 1    
     4    1  129 1    
     5    2    3 2    
     6    2    4 am   BACKBONE|DICT|INTERRES
     7    4    5 1    
     8    4  130 1    
     9    5    6 1    
    10    5   65 1    
    11    5  131 1    
    12    6    7 1    
    13    6  132 1    
    14    6  133 1    
    15    7    8 1    
    16    8    9 1    
    17    8  134 1    
    18    8  135 1    
    19    9   10 ar   
    20    9   14 ar   
    21   10   11 ar   
    22   10  136 1    
    23   11   12 ar   
    24   11  126 1    
    25   12   13 ar   
    26   12  137 1    
    27   13   14 ar   
    28   13   15 1    
    29   14  138 1    
    30   15   16 1    
    31   15  139 1    
    32   15  140 1    
    33   16   17 1    
    34   17   18 1    
    35   17  141 1    
    36   17  142 1    
    37   18   19 1    
    38   18   67 1    
    39   18  143 1    
    40   19   20 am   BACKBONE|DICT|INTERRES
    41   19  144 1    
    42   20   21 2    
    43   20   22 1    
    44   22   23 1    
    45   22   24 1    
    46   22  145 1    
    47   23  146 1    
    48   23  147 1    
    49   23  148 1    
    50   24   25 am   BACKBONE|DICT|INTERRES
    51   24  149 1    
    52   25   26 2    
    53   25   27 1    
    54   27   28 1    
    55   27   29 1    
    56   27  150 1    
    57   28  151 1    
    58   28  152 1    
    59   28  153 1    
    60   29   30 am   BACKBONE|DICT|INTERRES
    61   29  154 1    
    62   30   31 2    
    63   30   32 1    
    64   32   33 1    
    65   32   34 1    
    66   32  155 1    
    67   33  156 1    
    68   33  157 1    
    69   33  158 1    
    70   34   35 am   BACKBONE|DICT|INTERRES
    71   34  159 1    
    72   35   36 2    
    73   35   37 1    
    74   37   38 1    
    75   37   39 1    
    76   37  160 1    
    77   38  161 1    
    78   38  162 1    
    79   38  163 1    
    80   39   40 am   BACKBONE|DICT|INTERRES
    81   39  164 1    
    82   40   41 2    
    83   40   42 1    
    84   42   43 1    
    85   42   44 1    
    86   42  165 1    
    87   43  166 1    
    88   43  167 1    
    89   43  168 1    
    90   44   45 am   BACKBONE|DICT|INTERRES
    91   44  169 1    
    92   45   46 2    
    93   45   47 1    
    94   47   48 1    
    95   47   49 1    
    96   47  170 1    
    97   48  171 1    
    98   48  172 1    
    99   48  173 1    
   100   49   50 am   BACKBONE|DICT|INTERRES
   101   49  174 1    
   102   50   51 2    
   103   50   52 1    
   104   52   53 1    
   105   52   54 1    
   106   52  175 1    
   107   53  176 1    
   108   53  177 1    
   109   53  178 1    
   110   54   55 am   BACKBONE|DICT|INTERRES
   111   54  179 1    
   112   55   56 2    
   113   55   57 1    
   114   57   58 1    
   115   57   59 1    
   116   57  180 1    
   117   58  181 1    
   118   58  182 1    
   119   58  183 1    
   120   59   60 am   BACKBONE|DICT|INTERRES
   121   59  184 1    
   122   60   61 2    
   123   60   62 1    
   124   62   63 1    
   125   62   64 1    
   126   62  185 1    
   127   63  186 1    
   128   63  187 1    
   129   63  188 1    
   130   64   65 am   BACKBONE|DICT|INTERRES
   131   64  189 1    
   132   65   66 2    
   133   67   68 2    
   134   67   69 am   BACKBONE|DICT|INTERRES
   135   69   70 1    
   136   69  190 1    
   137   70   71 1    
   138   70   72 1    
   139   70  191 1    
   140   71  192 1    
   141   71  193 1    
   142   71  194 1    
   143   72   73 2    
   144   72   74 am   BACKBONE|DICT|INTERRES
   145   74   75 1    
   146   74  195 1    
   147   75   76 1    
   148   75   77 1    
   149   75  196 1    
   150   76  197 1    
   151   76  198 1    
   152   76  199 1    
   153   77   78 2    
   154   77   79 am   BACKBONE|DICT|INTERRES
   155   79   80 1    
   156   79  200 1    
   157   80   81 1    
   158   80   82 1    
   159   80  201 1    
   160   81  202 1    
   161   81  203 1    
   162   81  204 1    
   163   82   83 2    
   164   82   84 am   BACKBONE|DICT|INTERRES
   165   84   85 1    
   166   84  205 1    
   167   85   86 1    
   168   85   87 1    
   169   85  206 1    
   170   86  207 1    
   171   86  208 1    
   172   86  209 1    
   173   87   88 2    
   174   87   89 am   BACKBONE|DICT|INTERRES
   175   89   90 1    
   176   89  210 1    
   177   90   91 1    
   178   90   92 1    
   179   90  211 1    
   180   91  212 1    
   181   91  213 1    
   182   91  214 1    
   183   92   93 2    
   184   92   94 am   BACKBONE|DICT|INTERRES
   185   94   95 1    
   186   94  215 1    
   187   95   96 1    
   188   95   97 1    
   189   95  216 1    
   190   96  217 1    
   191   96  218 1    
   192   96  219 1    
   193   97   98 2    
   194   97   99 am   BACKBONE|DICT|INTERRES
   195   99  100 1    
   196   99  220 1    
   197  100  101 1    
   198  100  102 1    
   199  100  221 1    
   200  101  222 1    
   201  101  223 1    
   202  101  224 1    
   203  102  103 2    
   204  102  104 am   BACKBONE|DICT|INTERRES
   205  104  105 1    
   206  104  225 1    
   207  105  106 1    
   208  105  107 1    
   209  105  226 1    
   210  106  227 1    
   211  106  228 1    
   212  106  229 1    
   213  107  108 2    
   214  107  109 am   BACKBONE|DICT|INTERRES
   215  109  110 1    
   216  109  230 1    
   217  110  111 1    
   218  110  112 1    
   219  110  231 1    
   220  111  232 1    
   221  111  233 1    
   222  111  234 1    
   223  112  113 2    
   224  112  114 am   BACKBONE|DICT|INTERRES
   225  114  115 1    
   226  114  235 1    
   227  115  116 1    
   228  115  117 1    
   229  115  236 1    
   230  116  237 1    
   231  116  238 1    
   232  116  239 1    
   233  117  118 2    
   234  117  119 am   BACKBONE|DICT|INTERRES
   235  119  120 1    
   236  119  240 1    
   237  120  121 1    
   238  120  124 1    
   239  120  241 1    
   240  121  122 am   BACKBONE|DICT|INTERRES
   241  121  123 2    
   242  122  242 1    
   243  122  243 1    
   244  124  125 1    
   245  124  244 1    
   246  124  245 1    
   247  125  126 1    
   248  126  246 1    
   249  126  247 1    
@<TRIPOS>SUBSTRUCTURE
     1 UNK         1 GROUP             0       ****    0 ROOT    
