@<TRIPOS>MOLECULE
3R540
247   249    1
SMALL
USER_CHARGES


@<TRIPOS>ATOM
      1 CA          6.0137  -12.1477  -46.9512 C.3       0 UNK        -0.1800 
      2 C           4.5262  -12.3594  -46.6765 C.2       0 UNK         0.5000 
      3 O           3.9050  -11.5058  -46.0491 O.2       0 UNK        -0.5000 
      4 N           3.9068  -13.4707  -47.1035 N.am      1 UNK        -0.5000 
      5 CA          4.5053  -14.6308  -47.7819 C.3       1 UNK         0.1400 
      6 C6          3.4012  -15.5509  -48.3602 C.3       23 UNK        -0.0398 
      7 S7          3.9998  -16.6730  -49.6694 S.3       23 UNK        -0.2404 
      8 C8          2.6750  -17.9217  -49.7084 C.3       23 UNK        -0.0205 
      9 C9          1.4614  -17.4568  -50.5006 C.ar      23 UNK        -0.0193 
     10 C10         1.2621  -17.9011  -51.8119 C.ar      23 UNK        -0.1150 
     11 C11         0.1156  -17.5297  -52.5218 C.ar      23 UNK        -0.0193 
     12 C12        -0.8294  -16.6996  -51.9141 C.ar      23 UNK        -0.1150 
     13 C13        -0.6425  -16.2503  -50.6048 C.ar      23 UNK        -0.0193 
     14 C14         0.5108  -16.6211  -49.9079 C.ar      23 UNK        -0.1150 
     15 C15        -1.7071  -15.3964  -49.9354 C.3       23 UNK        -0.0205 
     16 S16        -3.0097  -16.4293  -49.1890 S.3       23 UNK        -0.2404 
     17 C17        -2.1556  -17.0982  -47.7212 C.3       23 UNK        -0.0398 
     18 CA         -1.5323  -18.4991  -47.9442 C.3       11 UNK         0.1400 
     19 N          -0.5075  -18.8065  -46.9438 N.am      11 UNK        -0.5000 
     20 C           0.3159  -19.8636  -46.9856 C.2       10 UNK         0.5000 
     21 O           0.3456  -20.6719  -47.9104 O.2       10 UNK        -0.5000 
     22 CA          1.2234  -20.0918  -45.7645 C.3       10 UNK         0.1400 
     23 CB          2.4815  -19.2128  -45.8386 C.3       10 UNK        -0.1800 
     24 N           0.5260  -19.8533  -44.5019 N.am      10 UNK        -0.5000 
     25 C          -0.5353  -20.5491  -44.0693 C.2       9 UNK         0.5000 
     26 O          -1.0116  -21.5141  -44.6669 O.2       9 UNK        -0.5000 
     27 CA         -1.2142  -20.0415  -42.7845 C.3       9 UNK         0.1400 
     28 CB         -0.4496  -20.4999  -41.5336 C.3       9 UNK        -0.1800 
     29 N          -1.3520  -18.5842  -42.7747 N.am      9 UNK        -0.5000 
     30 C          -2.1224  -17.8928  -43.6269 C.2       8 UNK         0.5000 
     31 O          -2.8383  -18.4146  -44.4820 O.2       8 UNK        -0.5000 
     32 CA         -2.0364  -16.3594  -43.5445 C.3       8 UNK         0.1400 
     33 CB         -2.9403  -15.8165  -42.4281 C.3       8 UNK        -0.1800 
     34 N          -0.6632  -15.8973  -43.3392 N.am      8 UNK        -0.5000 
     35 C           0.3006  -15.9786  -44.2675 C.2       7 UNK         0.5000 
     36 O           0.1257  -16.4301  -45.3977 O.2       7 UNK        -0.5000 
     37 CA          1.7092  -15.5172  -43.8572 C.3       7 UNK         0.1400 
     38 CB          1.8351  -13.9963  -44.0236 C.3       7 UNK        -0.1800 
     39 N           2.0662  -15.8975  -42.4904 N.am      7 UNK        -0.5000 
     40 C           2.1076  -17.1570  -42.0313 C.2       6 UNK         0.5000 
     41 O           1.9129  -18.1433  -42.7385 O.2       6 UNK        -0.5000 
     42 CA          2.3518  -17.3545  -40.5256 C.3       6 UNK         0.1400 
     43 CB          3.8362  -17.6271  -40.2409 C.3       6 UNK        -0.1800 
     44 N           1.8831  -16.2247  -39.7203 N.am      6 UNK        -0.5000 
     45 C           0.5941  -15.8762  -39.5831 C.2       5 UNK         0.5000 
     46 O          -0.3318  -16.4863  -40.1197 O.2       5 UNK        -0.5000 
     47 CA          0.2833  -14.6333  -38.7259 C.3       5 UNK         0.1400 
     48 CB         -0.1376  -15.0521  -37.3093 C.3       5 UNK        -0.1800 
     49 N           1.4133  -13.7063  -38.6335 N.am      5 UNK        -0.5000 
     50 C           1.8235  -12.9043  -39.6253 C.2       4 UNK         0.5000 
     51 O           1.2310  -12.8051  -40.7017 O.2       4 UNK        -0.5000 
     52 CA          3.1166  -12.0868  -39.3886 C.3       4 UNK         0.1400 
     53 CB          3.9194  -12.5339  -38.1455 C.3       4 UNK        -0.1800 
     54 N           4.0029  -12.0589  -40.5601 N.am      4 UNK        -0.5000 
     55 C           4.4633  -13.1149  -41.2472 C.2       3 UNK         0.5000 
     56 O           4.1392  -14.2777  -41.0019 O.2       3 UNK        -0.5000 
     57 CA          5.4392  -12.7906  -42.3989 C.3       3 UNK         0.1400 
     58 CB          6.8218  -12.3708  -41.8608 C.3       3 UNK        -0.1800 
     59 N           5.5628  -13.8605  -43.3994 N.am      3 UNK        -0.5000 
     60 C           6.0911  -15.0900  -43.2700 C.2       2 UNK         0.5000 
     61 O           6.6557  -15.4993  -42.2552 O.2       2 UNK        -0.5000 
     62 CA          5.9898  -16.0213  -44.4977 C.3       2 UNK         0.1400 
     63 CB          5.4437  -17.4112  -44.1266 C.3       2 UNK        -0.1800 
     64 N           5.1568  -15.4468  -45.5599 N.am      2 UNK        -0.5000 
     65 C           5.4795  -15.4016  -46.8595 C.2       1 UNK         0.5000 
     66 O           6.5133  -15.8797  -47.3263 O.2       1 UNK        -0.5000 
     67 C          -2.5967  -19.6067  -48.0376 C.2       11 UNK         0.5000 
     68 O          -2.8735  -20.0808  -49.1381 O.2       11 UNK        -0.5000 
     69 N          -3.1292  -20.0433  -46.8870 N.am      12 UNK        -0.5000 
     70 CA         -4.0938  -21.1407  -46.7930 C.3       12 UNK         0.1400 
     71 CB         -4.5766  -21.2818  -45.3423 C.3       12 UNK        -0.1800 
     72 C          -3.5394  -22.4773  -47.3207 C.2       12 UNK         0.5000 
     73 O          -4.2610  -23.1975  -48.0124 O.2       12 UNK        -0.5000 
     74 N          -2.2655  -22.7622  -47.0168 N.am      13 UNK        -0.5000 
     75 CA         -1.5324  -23.9279  -47.5055 C.3       13 UNK         0.1400 
     76 CB         -0.2190  -24.0787  -46.7230 C.3       13 UNK        -0.1800 
     77 C          -1.2692  -23.8717  -49.0213 C.2       13 UNK         0.5000 
     78 O          -1.5424  -24.8523  -49.7130 O.2       13 UNK        -0.5000 
     79 N          -0.7721  -22.7285  -49.5162 N.am      14 UNK        -0.5000 
     80 CA         -0.4711  -22.4887  -50.9314 C.3       14 UNK         0.1400 
     81 CB          0.2876  -21.1619  -51.0803 C.3       14 UNK        -0.1800 
     82 C          -1.7254  -22.4958  -51.8219 C.2       14 UNK         0.5000 
     83 O          -1.6919  -23.0455  -52.9240 O.2       14 UNK        -0.5000 
     84 N          -2.8219  -21.9211  -51.3115 N.am      15 UNK        -0.5000 
     85 CA         -4.1336  -21.9377  -51.9509 C.3       15 UNK         0.1400 
     86 CB         -5.0042  -20.8269  -51.3463 C.3       15 UNK        -0.1800 
     87 C          -4.8461  -23.2972  -51.8350 C.2       15 UNK         0.5000 
     88 O          -5.8253  -23.5118  -52.5513 O.2       15 UNK        -0.5000 
     89 N          -4.3751  -24.1664  -50.9291 N.am      16 UNK        -0.5000 
     90 CA         -4.9351  -25.4683  -50.5548 C.3       16 UNK         0.1400 
     91 CB         -4.7729  -26.4807  -51.7062 C.3       16 UNK        -0.1800 
     92 C          -6.3910  -25.3367  -50.0685 C.2       16 UNK         0.5000 
     93 O          -7.2805  -26.0161  -50.5797 O.2       16 UNK        -0.5000 
     94 N          -6.6163  -24.3922  -49.1429 N.am      17 UNK        -0.5000 
     95 CA         -7.9267  -23.9589  -48.6365 C.3       17 UNK         0.1400 
     96 CB         -8.5722  -25.0653  -47.7770 C.3       17 UNK        -0.1800 
     97 C          -8.8596  -23.4408  -49.7576 C.2       17 UNK         0.5000 
     98 O         -10.0698  -23.6659  -49.7170 O.2       17 UNK        -0.5000 
     99 N          -8.2509  -22.7706  -50.7473 N.am      18 UNK        -0.5000 
    100 CA        -8.8318  -22.2204  -51.9770 C.3       18 UNK         0.1400 
    101 CB        -9.9614  -21.2144  -51.6732 C.3       18 UNK        -0.1800 
    102 C         -9.2385  -23.2766  -53.0271 C.2       18 UNK         0.5000 
    103 O         -9.8848  -22.9151  -54.0118 O.2       18 UNK        -0.5000 
    104 N         -8.8379  -24.5446  -52.8451 N.am      19 UNK        -0.5000 
    105 CA        -9.0670  -25.6128  -53.8214 C.3       19 UNK         0.1400 
    106 CB        -8.9572  -26.9820  -53.1347 C.3       19 UNK        -0.1800 
    107 C         -8.0997  -25.5354  -55.0175 C.2       19 UNK         0.5000 
    108 O         -8.4962  -25.8771  -56.1326 O.2       19 UNK        -0.5000 
    109 N         -6.8592  -25.0926  -54.7699 N.am      20 UNK        -0.5000 
    110 CA        -5.8218  -24.9179  -55.7885 C.3       20 UNK         0.1400 
    111 CB        -4.4815  -25.4434  -55.2499 C.3       20 UNK        -0.1800 
    112 C         -5.6824  -23.4448  -56.2007 C.2       20 UNK         0.5000 
    113 O         -5.3754  -23.1695  -57.3612 O.2       20 UNK        -0.5000 
    114 N         -5.8856  -22.5284  -55.2401 N.am      21 UNK        -0.5000 
    115 CA        -5.8349  -21.0661  -55.3775 C.3       21 UNK         0.1400 
    116 CB        -7.0631  -20.5699  -56.1666 C.3       21 UNK        -0.1800 
    117 C         -4.4978  -20.5367  -55.9492 C.2       21 UNK         0.5000 
    118 O         -4.4880  -19.5308  -56.6603 O.2       21 UNK        -0.5000 
    119 N         -3.4010  -21.2446  -55.6415 N.am      22 UNK        -0.5000 
    120 CA        -2.0381  -21.0321  -56.1618 C.3       22 UNK         0.1400 
    121 C         -1.8666  -21.3758  -57.6756 C.2       22 UNK         0.5000 
    122 N         -2.8107  -22.0476  -58.3258 N.am      22 UNK        -0.7600 
    123 O         -0.8407  -21.0593  -58.2721 O.2       22 UNK        -0.5000 
    124 C124       -1.4363  -19.6434  -55.7974 C.3       23 UNK        -0.0398 
    125 S125       -1.3764  -19.3339  -54.0001 S.3       23 UNK        -0.2404 
    126 C126       -0.1122  -18.0251  -53.9415 C.3       23 UNK        -0.0205 
    127 H127        6.2804  -12.4214  -47.9712 H         1 UNK         0.0600 
    128 H128        6.6209  -12.7305  -46.2589 H         1 UNK         0.0600 
    129 H129        6.2751  -11.0977  -46.8186 H         1 UNK         0.0600 
    130 H130        2.9120  -13.5358  -46.9460 H         1 UNK         0.3000 
    131 H131        5.0845  -14.2483  -48.6243 H         1 UNK         0.0600 
    132 H132        2.9149  -16.1242  -47.5685 H         1 UNK         0.0800 
    133 H133        2.6215  -14.9375  -48.8138 H         1 UNK         0.0800 
    134 H134        2.3749  -18.1831  -48.6938 H         1 UNK         0.0800 
    135 H135        3.0745  -18.8381  -50.1457 H         1 UNK         0.0800 
    136 H136        1.9903  -18.5531  -52.2733 H         1 UNK         0.1150 
    137 H137       -1.7246  -16.4239  -52.4540 H         1 UNK         0.1150 
    138 H138        0.6464  -16.2936  -48.8873 H         1 UNK         0.1150 
    139 H139       -1.2639  -14.7452  -49.1805 H         1 UNK         0.0800 
    140 H140       -2.1631  -14.7359  -50.6744 H         1 UNK         0.0800 
    141 H141       -2.8562  -17.1110  -46.8852 H         1 UNK         0.0800 
    142 H142       -1.3818  -16.3853  -47.4402 H         1 UNK         0.0800 
    143 H143       -1.0228  -18.5004  -48.9072 H         1 UNK         0.0600 
    144 H144       -0.4224  -18.1544  -46.1707 H         1 UNK         0.3000 
    145 H145        1.5392  -21.1369  -45.7743 H         1 UNK         0.0600 
    146 H146        3.1355  -19.3918  -44.9852 H         1 UNK         0.0600 
    147 H147        3.0582  -19.4318  -46.7376 H         1 UNK         0.0600 
    148 H148        2.2352  -18.1513  -45.8533 H         1 UNK         0.0600 
    149 H149        0.8957  -19.1102  -43.9128 H         1 UNK         0.3000 
    150 H150       -2.2167  -20.4728  -42.7453 H         1 UNK         0.0600 
    151 H151       -0.3856  -21.5880  -41.4958 H         1 UNK         0.0600 
    152 H152       -0.9503  -20.1715  -40.6226 H         1 UNK         0.0600 
    153 H153        0.5690  -20.1127  -41.5142 H         1 UNK         0.0600 
    154 H154       -0.7861  -18.0732  -42.1113 H         1 UNK         0.3000 
    155 H155       -2.3931  -15.9542  -44.4939 H         1 UNK         0.0600 
    156 H156       -2.6462  -16.1926  -41.4480 H         1 UNK         0.0600 
    157 H157       -3.9781  -16.1093  -42.5923 H         1 UNK         0.0600 
    158 H158       -2.9119  -14.7273  -42.3919 H         1 UNK         0.0600 
    159 H159       -0.4275  -15.5566  -42.4175 H         1 UNK         0.3000 
    160 H160        2.4193  -15.9999  -44.5302 H         1 UNK         0.0600 
    161 H161        1.1590  -13.4632  -43.3544 H         1 UNK         0.0600 
    162 H162        1.5909  -13.6906  -45.0415 H         1 UNK         0.0600 
    163 H163        2.8450  -13.6509  -43.8143 H         1 UNK         0.0600 
    164 H164        2.3016  -15.1507  -41.8472 H         1 UNK         0.3000 
    165 H165        1.7858  -18.2364  -40.2188 H         1 UNK         0.0600 
    166 H166        4.0072  -17.8176  -39.1815 H         1 UNK         0.0600 
    167 H167        4.1803  -18.5054  -40.7887 H         1 UNK         0.0600 
    168 H168        4.4703  -16.7926  -40.5392 H         1 UNK         0.0600 
    169 H169        2.5936  -15.6431  -39.2999 H         1 UNK         0.3000 
    170 H170       -0.5569  -14.1139  -39.1918 H         1 UNK         0.0600 
    171 H171       -0.9965  -15.7240  -37.3400 H         1 UNK         0.0600 
    172 H172        0.6666  -15.5711  -36.7863 H         1 UNK         0.0600 
    173 H173       -0.4250  -14.1871  -36.7112 H         1 UNK         0.0600 
    174 H174        1.9475  -13.7279  -37.7768 H         1 UNK         0.3000 
    175 H175        2.7942  -11.0580  -39.2228 H         1 UNK         0.0600 
    176 H176        4.2340  -13.5759  -38.2174 H         1 UNK         0.0600 
    177 H177        4.8181  -11.9285  -38.0256 H         1 UNK         0.0600 
    178 H178        3.3389  -12.4179  -37.2295 H         1 UNK         0.0600 
    179 H179        4.2853  -11.1365  -40.8597 H         1 UNK         0.3000 
    180 H180        5.0196  -11.9393  -42.9376 H         1 UNK         0.0600 
    181 H181        7.2710  -13.1468  -41.2405 H         1 UNK         0.0600 
    182 H182        6.7478  -11.4722  -41.2476 H         1 UNK         0.0600 
    183 H183        7.5119  -12.1499  -42.6751 H         1 UNK         0.0600 
    184 H184        5.1690  -13.6305  -44.2969 H         1 UNK         0.3000 
    185 H185        7.0139  -16.1454  -44.8554 H         1 UNK         0.0600 
    186 H186        6.0448  -17.8801  -43.3469 H         1 UNK         0.0600 
    187 H187        4.4198  -17.3543  -43.7623 H         1 UNK         0.0600 
    188 H188        5.4540  -18.0791  -44.9880 H         1 UNK         0.0600 
    189 H189        4.2836  -15.0356  -45.2695 H         1 UNK         0.3000 
    190 H190       -2.8692  -19.5872  -46.0165 H         1 UNK         0.3000 
    191 H191       -4.9534  -20.8757  -47.4119 H         1 UNK         0.0600 
    192 H192       -3.7563  -21.5223  -44.6656 H         1 UNK         0.0600 
    193 H193       -5.3201  -22.0749  -45.2534 H         1 UNK         0.0600 
    194 H194       -5.0396  -20.3598  -44.9900 H         1 UNK         0.0600 
    195 H195       -1.7635  -22.1372  -46.3931 H         1 UNK         0.3000 
    196 H196       -2.1429  -24.8116  -47.3079 H         1 UNK         0.0600 
    197 H197        0.3359  -24.9565  -47.0562 H         1 UNK         0.0600 
    198 H198       -0.4086  -24.1985  -45.6562 H         1 UNK         0.0600 
    199 H199        0.4297  -23.2119  -46.8501 H         1 UNK         0.0600 
    200 H200       -0.5419  -21.9709  -48.8761 H         1 UNK         0.3000 
    201 H201        0.1824  -23.2934  -51.2738 H         1 UNK         0.0600 
    202 H202        1.2190  -21.1711  -50.5143 H         1 UNK         0.0600 
    203 H203       -0.3081  -20.3173  -50.7304 H         1 UNK         0.0600 
    204 H204        0.5435  -20.9726  -52.1234 H         1 UNK         0.0600 
    205 H205       -2.7555  -21.4222  -50.4260 H         1 UNK         0.3000 
    206 H206       -3.9992  -21.7230  -53.0100 H         1 UNK         0.0600 
    207 H207       -4.5160  -19.8557  -51.4331 H         1 UNK         0.0600 
    208 H208       -5.9622  -20.7497  -51.8585 H         1 UNK         0.0600 
    209 H209       -5.2072  -21.0053  -50.2894 H         1 UNK         0.0600 
    210 H210       -3.5684  -23.8817  -50.3894 H         1 UNK         0.3000 
    211 H211       -4.3503  -25.8271  -49.7066 H         1 UNK         0.0600 
    212 H212       -5.3963  -26.2253  -52.5619 H         1 UNK         0.0600 
    213 H213       -5.0589  -27.4827  -51.3849 H         1 UNK         0.0600 
    214 H214       -3.7383  -26.5295  -52.0458 H         1 UNK         0.0600 
    215 H215       -5.8076  -23.8943  -48.7731 H         1 UNK         0.3000 
    216 H216       -7.7342  -23.1059  -47.9843 H         1 UNK         0.0600 
    217 H217       -9.4773  -24.7030  -47.2883 H         1 UNK         0.0600 
    218 H218       -7.8935  -25.4006  -46.9927 H         1 UNK         0.0600 
    219 H219       -8.8495  -25.9340  -48.3748 H         1 UNK         0.0600 
    220 H220       -7.2453  -22.7052  -50.6932 H         1 UNK         0.3000 
    221 H221       -8.0282  -21.6558  -52.4493 H         1 UNK         0.0600 
    222 H222      -10.8557  -21.7083  -51.2930 H         1 UNK         0.0600 
    223 H223       -9.6451  -20.4753  -50.9372 H         1 UNK         0.0600 
    224 H224      -10.2514  -20.6696  -52.5723 H         1 UNK         0.0600 
    225 H225       -8.3071  -24.7889  -52.0169 H         1 UNK         0.3000 
    226 H226      -10.0847  -25.5170  -54.2061 H         1 UNK         0.0600 
    227 H227       -9.6002  -27.0391  -52.2562 H         1 UNK         0.0600 
    228 H228       -9.2595  -27.7804  -53.8133 H         1 UNK         0.0600 
    229 H229       -7.9355  -27.1954  -52.8195 H         1 UNK         0.0600 
    230 H230       -6.6283  -24.7883  -53.8299 H         1 UNK         0.3000 
    231 H231       -6.0686  -25.4914  -56.6844 H         1 UNK         0.0600 
    232 H232       -4.5514  -26.4982  -54.9841 H         1 UNK         0.0600 
    233 H233       -4.1524  -24.8961  -54.3662 H         1 UNK         0.0600 
    234 H234       -3.6965  -25.3504  -56.0016 H         1 UNK         0.0600 
    235 H235       -6.0806  -22.8737  -54.3054 H         1 UNK         0.3000 
    236 H236       -5.9109  -20.6598  -54.3686 H         1 UNK         0.0600 
    237 H237       -7.0326  -20.8971  -57.2064 H         1 UNK         0.0600 
    238 H238       -7.9891  -20.9403  -55.7260 H         1 UNK         0.0600 
    239 H239       -7.1183  -19.4808  -56.1661 H         1 UNK         0.0600 
    240 H240       -3.5111  -22.0671  -55.0684 H         1 UNK         0.3000 
    241 H241       -1.4282  -21.7792  -55.6527 H         1 UNK         0.0600 
    242 H242       -2.6717  -22.2678  -59.2991 H         1 UNK         0.3800 
    243 H243       -3.6730  -22.3321  -57.8719 H         1 UNK         0.3800 
    244 H244       -1.9933  -18.8373  -56.2759 H         1 UNK         0.0800 
    245 H245       -0.4160  -19.5695  -56.1769 H         1 UNK         0.0800 
    246 H246       -0.4252  -17.1904  -54.5707 H         1 UNK         0.0800 
    247 H247        0.8194  -18.4023  -54.3662 H         1 UNK         0.0800 
@<TRIPOS>BOND
     1    1    2 1    
     2    1  127 1    
     3    1  128 1    
     4    1  129 1    
     5    2    3 2    
     6    2    4 am   BACKBONE|DICT|INTERRES
     7    4    5 1    
     8    4  130 1    
     9    5    6 1    
    10    5   65 1    
    11    5  131 1    
    12    6    7 1    
    13    6  132 1    
    14    6  133 1    
    15    7    8 1    
    16    8    9 1    
    17    8  134 1    
    18    8  135 1    
    19    9   10 ar   
    20    9   14 ar   
    21   10   11 ar   
    22   10  136 1    
    23   11   12 ar   
    24   11  126 1    
    25   12   13 ar   
    26   12  137 1    
    27   13   14 ar   
    28   13   15 1    
    29   14  138 1    
    30   15   16 1    
    31   15  139 1    
    32   15  140 1    
    33   16   17 1    
    34   17   18 1    
    35   17  141 1    
    36   17  142 1    
    37   18   19 1    
    38   18   67 1    
    39   18  143 1    
    40   19   20 am   BACKBONE|DICT|INTERRES
    41   19  144 1    
    42   20   21 2    
    43   20   22 1    
    44   22   23 1    
    45   22   24 1    
    46   22  145 1    
    47   23  146 1    
    48   23  147 1    
    49   23  148 1    
    50   24   25 am   BACKBONE|DICT|INTERRES
    51   24  149 1    
    52   25   26 2    
    53   25   27 1    
    54   27   28 1    
    55   27   29 1    
    56   27  150 1    
    57   28  151 1    
    58   28  152 1    
    59   28  153 1    
    60   29   30 am   BACKBONE|DICT|INTERRES
    61   29  154 1    
    62   30   31 2    
    63   30   32 1    
    64   32   33 1    
    65   32   34 1    
    66   32  155 1    
    67   33  156 1    
    68   33  157 1    
    69   33  158 1    
    70   34   35 am   BACKBONE|DICT|INTERRES
    71   34  159 1    
    72   35   36 2    
    73   35   37 1    
    74   37   38 1    
    75   37   39 1    
    76   37  160 1    
    77   38  161 1    
    78   38  162 1    
    79   38  163 1    
    80   39   40 am   BACKBONE|DICT|INTERRES
    81   39  164 1    
    82   40   41 2    
    83   40   42 1    
    84   42   43 1    
    85   42   44 1    
    86   42  165 1    
    87   43  166 1    
    88   43  167 1    
    89   43  168 1    
    90   44   45 am   BACKBONE|DICT|INTERRES
    91   44  169 1    
    92   45   46 2    
    93   45   47 1    
    94   47   48 1    
    95   47   49 1    
    96   47  170 1    
    97   48  171 1    
    98   48  172 1    
    99   48  173 1    
   100   49   50 am   BACKBONE|DICT|INTERRES
   101   49  174 1    
   102   50   51 2    
   103   50   52 1    
   104   52   53 1    
   105   52   54 1    
   106   52  175 1    
   107   53  176 1    
   108   53  177 1    
   109   53  178 1    
   110   54   55 am   BACKBONE|DICT|INTERRES
   111   54  179 1    
   112   55   56 2    
   113   55   57 1    
   114   57   58 1    
   115   57   59 1    
   116   57  180 1    
   117   58  181 1    
   118   58  182 1    
   119   58  183 1    
   120   59   60 am   BACKBONE|DICT|INTERRES
   121   59  184 1    
   122   60   61 2    
   123   60   62 1    
   124   62   63 1    
   125   62   64 1    
   126   62  185 1    
   127   63  186 1    
   128   63  187 1    
   129   63  188 1    
   130   64   65 am   BACKBONE|DICT|INTERRES
   131   64  189 1    
   132   65   66 2    
   133   67   68 2    
   134   67   69 am   BACKBONE|DICT|INTERRES
   135   69   70 1    
   136   69  190 1    
   137   70   71 1    
   138   70   72 1    
   139   70  191 1    
   140   71  192 1    
   141   71  193 1    
   142   71  194 1    
   143   72   73 2    
   144   72   74 am   BACKBONE|DICT|INTERRES
   145   74   75 1    
   146   74  195 1    
   147   75   76 1    
   148   75   77 1    
   149   75  196 1    
   150   76  197 1    
   151   76  198 1    
   152   76  199 1    
   153   77   78 2    
   154   77   79 am   BACKBONE|DICT|INTERRES
   155   79   80 1    
   156   79  200 1    
   157   80   81 1    
   158   80   82 1    
   159   80  201 1    
   160   81  202 1    
   161   81  203 1    
   162   81  204 1    
   163   82   83 2    
   164   82   84 am   BACKBONE|DICT|INTERRES
   165   84   85 1    
   166   84  205 1    
   167   85   86 1    
   168   85   87 1    
   169   85  206 1    
   170   86  207 1    
   171   86  208 1    
   172   86  209 1    
   173   87   88 2    
   174   87   89 am   BACKBONE|DICT|INTERRES
   175   89   90 1    
   176   89  210 1    
   177   90   91 1    
   178   90   92 1    
   179   90  211 1    
   180   91  212 1    
   181   91  213 1    
   182   91  214 1    
   183   92   93 2    
   184   92   94 am   BACKBONE|DICT|INTERRES
   185   94   95 1    
   186   94  215 1    
   187   95   96 1    
   188   95   97 1    
   189   95  216 1    
   190   96  217 1    
   191   96  218 1    
   192   96  219 1    
   193   97   98 2    
   194   97   99 am   BACKBONE|DICT|INTERRES
   195   99  100 1    
   196   99  220 1    
   197  100  101 1    
   198  100  102 1    
   199  100  221 1    
   200  101  222 1    
   201  101  223 1    
   202  101  224 1    
   203  102  103 2    
   204  102  104 am   BACKBONE|DICT|INTERRES
   205  104  105 1    
   206  104  225 1    
   207  105  106 1    
   208  105  107 1    
   209  105  226 1    
   210  106  227 1    
   211  106  228 1    
   212  106  229 1    
   213  107  108 2    
   214  107  109 am   BACKBONE|DICT|INTERRES
   215  109  110 1    
   216  109  230 1    
   217  110  111 1    
   218  110  112 1    
   219  110  231 1    
   220  111  232 1    
   221  111  233 1    
   222  111  234 1    
   223  112  113 2    
   224  112  114 am   BACKBONE|DICT|INTERRES
   225  114  115 1    
   226  114  235 1    
   227  115  116 1    
   228  115  117 1    
   229  115  236 1    
   230  116  237 1    
   231  116  238 1    
   232  116  239 1    
   233  117  118 2    
   234  117  119 am   BACKBONE|DICT|INTERRES
   235  119  120 1    
   236  119  240 1    
   237  120  121 1    
   238  120  124 1    
   239  120  241 1    
   240  121  122 am   BACKBONE|DICT|INTERRES
   241  121  123 2    
   242  122  242 1    
   243  122  243 1    
   244  124  125 1    
   245  124  244 1    
   246  124  245 1    
   247  125  126 1    
   248  126  246 1    
   249  126  247 1    
@<TRIPOS>SUBSTRUCTURE
     1 UNK         1 GROUP             0       ****    0 ROOT    
