@<TRIPOS>MOLECULE
3R540
247   249    1
SMALL
USER_CHARGES


@<TRIPOS>ATOM
      1 CA          1.3287   -9.8767  -48.0754 C.3       0 UNK        -0.1800 
      2 C           0.8391  -11.3121  -47.9541 C.2       0 UNK         0.5000 
      3 O          -0.3697  -11.5471  -47.9666 O.2       0 UNK        -0.5000 
      4 N           1.7703  -12.2685  -47.8213 N.am      1 UNK        -0.5000 
      5 CA          1.5235  -13.7060  -47.6537 C.3       1 UNK         0.1400 
      6 C6          0.9953  -14.3675  -48.9571 C.3       23 UNK        -0.0398 
      7 S7          1.0746  -16.1925  -48.9252 S.3       23 UNK        -0.2404 
      8 C8          2.7246  -16.4775  -49.6339 C.3       23 UNK        -0.0205 
      9 C9          2.9733  -17.9552  -49.8920 C.ar      23 UNK        -0.0193 
     10 C10         2.4689  -18.5499  -51.0513 C.ar      23 UNK        -0.1150 
     11 C11         2.7057  -19.9006  -51.3201 C.ar      23 UNK        -0.0193 
     12 C12         3.4744  -20.6515  -50.4268 C.ar      23 UNK        -0.1150 
     13 C13         3.9948  -20.0679  -49.2676 C.ar      23 UNK        -0.0193 
     14 C14         3.7299  -18.7203  -48.9987 C.ar      23 UNK        -0.1150 
     15 C15         4.8845  -20.8812  -48.3354 C.3       23 UNK        -0.0205 
     16 S16         4.0447  -22.3402  -47.6396 S.3       23 UNK        -0.2404 
     17 C17         2.8564  -21.5507  -46.5083 C.3       23 UNK        -0.0398 
     18 CA          1.5421  -22.3513  -46.3539 C.3       11 UNK         0.1400 
     19 N           0.8381  -21.9852  -45.1220 N.am      11 UNK        -0.5000 
     20 C          -0.2476  -22.6019  -44.6354 C.2       10 UNK         0.5000 
     21 O          -0.7557  -23.5998  -45.1459 O.2       10 UNK        -0.5000 
     22 CA         -0.9025  -21.9665  -43.3939 C.3       10 UNK         0.1400 
     23 CB         -0.1906  -22.4096  -42.1073 C.3       10 UNK        -0.1800 
     24 N          -0.9318  -20.5044  -43.4605 N.am      10 UNK        -0.5000 
     25 C          -1.6086  -19.7999  -44.3788 C.2       9 UNK         0.5000 
     26 O          -2.3297  -20.3073  -45.2359 O.2       9 UNK        -0.5000 
     27 CA         -1.3991  -18.2759  -44.3767 C.3       9 UNK         0.1400 
     28 CB         -2.2291  -17.6177  -43.2609 C.3       9 UNK        -0.1800 
     29 N           0.0162  -17.9119  -44.2570 N.am      9 UNK        -0.5000 
     30 C           0.9564  -18.2456  -45.1559 C.2       8 UNK         0.5000 
     31 O           0.7089  -18.8204  -46.2140 O.2       8 UNK        -0.5000 
     32 CA          2.4250  -17.9681  -44.7859 C.3       8 UNK         0.1400 
     33 CB          2.8722  -16.5714  -45.2283 C.3       8 UNK        -0.1800 
     34 N           2.6728  -18.1321  -43.3556 N.am      8 UNK        -0.5000 
     35 C           2.6944  -19.3162  -42.7291 C.2       7 UNK         0.5000 
     36 O           2.5605  -20.3951  -43.3049 O.2       7 UNK        -0.5000 
     37 CA          2.8303  -19.2778  -41.1966 C.3       7 UNK         0.1400 
     38 CB          4.2996  -19.1061  -40.7841 C.3       7 UNK        -0.1800 
     39 N           2.0280  -18.2066  -40.6030 N.am      7 UNK        -0.5000 
     40 C           0.6880  -18.1650  -40.6301 C.2       6 UNK         0.5000 
     41 O          -0.0083  -19.0684  -41.0912 O.2       6 UNK        -0.5000 
     42 CA          0.0175  -16.8844  -40.0969 C.3       6 UNK         0.1400 
     43 CB         -0.3323  -17.0400  -38.6099 C.3       6 UNK        -0.1800 
     44 N           0.8460  -15.6892  -40.2779 N.am      6 UNK        -0.5000 
     45 C           1.1405  -15.1356  -41.4619 C.2       5 UNK         0.5000 
     46 O           0.7270  -15.5619  -42.5419 O.2       5 UNK        -0.5000 
     47 CA          2.1324  -13.9678  -41.4245 C.3       5 UNK         0.1400 
     48 CB          3.5692  -14.4828  -41.6279 C.3       5 UNK        -0.1800 
     49 N           1.8178  -12.9722  -42.4468 N.am      5 UNK        -0.5000 
     50 C           2.1348  -11.6739  -42.3402 C.2       4 UNK         0.5000 
     51 O           2.6850  -11.1881  -41.3505 O.2       4 UNK        -0.5000 
     52 CA          1.7936  -10.7513  -43.5209 C.3       4 UNK         0.1400 
     53 CB          2.8943  -10.8147  -44.5921 C.3       4 UNK        -0.1800 
     54 N           0.5034  -11.0802  -44.1228 N.am      4 UNK        -0.5000 
     55 C          -0.6585  -10.4980  -43.7930 C.2       3 UNK         0.5000 
     56 O          -0.7603   -9.6279  -42.9272 O.2       3 UNK        -0.5000 
     57 CA         -1.9223  -10.9321  -44.5630 C.3       3 UNK         0.1400 
     58 CB         -2.3143   -9.8641  -45.5960 C.3       3 UNK        -0.1800 
     59 N          -1.7580  -12.2151  -45.2454 N.am      3 UNK        -0.5000 
     60 C          -1.8836  -13.4064  -44.6437 C.2       2 UNK         0.5000 
     61 O          -2.2377  -13.5440  -43.4728 O.2       2 UNK        -0.5000 
     62 CA         -1.5374  -14.6555  -45.4791 C.3       2 UNK         0.1400 
     63 CB         -2.8119  -15.2688  -46.0792 C.3       2 UNK        -0.1800 
     64 N          -0.5778  -14.4165  -46.5565 N.am      2 UNK        -0.5000 
     65 C           0.6663  -13.9497  -46.3914 C.2       1 UNK         0.5000 
     66 O           1.1336  -13.6504  -45.2919 O.2       1 UNK        -0.5000 
     67 C           0.6365  -22.2297  -47.6002 C.2       11 UNK         0.5000 
     68 O           0.6187  -23.1423  -48.4263 O.2       11 UNK        -0.5000 
     69 N          -0.1355  -21.1369  -47.6862 N.am      12 UNK        -0.5000 
     70 CA         -1.1402  -20.9219  -48.7253 C.3       12 UNK         0.1400 
     71 CB         -1.6287  -19.4658  -48.6898 C.3       12 UNK        -0.1800 
     72 C          -2.3136  -21.9118  -48.6160 C.2       12 UNK         0.5000 
     73 O          -2.6858  -22.5193  -49.6184 O.2       12 UNK        -0.5000 
     74 N          -2.8469  -22.0952  -47.3983 N.am      13 UNK        -0.5000 
     75 CA         -3.9522  -23.0086  -47.0881 C.3       13 UNK         0.1400 
     76 CB         -4.3390  -22.8702  -45.6090 C.3       13 UNK        -0.1800 
     77 C          -3.6654  -24.4820  -47.4325 C.2       13 UNK         0.5000 
     78 O          -4.5872  -25.2033  -47.8159 O.2       13 UNK        -0.5000 
     79 N          -2.3928  -24.8932  -47.3422 N.am      14 UNK        -0.5000 
     80 CA         -1.9049  -26.2240  -47.7127 C.3       14 UNK         0.1400 
     81 CB         -0.4329  -26.3592  -47.2947 C.3       14 UNK        -0.1800 
     82 C          -2.0845  -26.5780  -49.2053 C.2       14 UNK         0.5000 
     83 O          -2.0556  -27.7623  -49.5422 O.2       14 UNK        -0.5000 
     84 N          -2.3005  -25.5732  -50.0693 N.am      15 UNK        -0.5000 
     85 CA         -2.6493  -25.7560  -51.4809 C.3       15 UNK         0.1400 
     86 CB         -2.2695  -24.4899  -52.2629 C.3       15 UNK        -0.1800 
     87 C          -4.1326  -26.1353  -51.7008 C.2       15 UNK         0.5000 
     88 O          -4.5097  -26.4263  -52.8373 O.2       15 UNK        -0.5000 
     89 N          -4.9417  -26.1466  -50.6276 N.am      16 UNK        -0.5000 
     90 CA         -6.3312  -26.6073  -50.5550 C.3       16 UNK         0.1400 
     91 CB         -6.3895  -28.1443  -50.6987 C.3       16 UNK        -0.1800 
     92 C          -7.2499  -25.8524  -51.5346 C.2       16 UNK         0.5000 
     93 O          -7.5309  -24.6759  -51.3100 O.2       16 UNK        -0.5000 
     94 N          -7.6814  -26.5146  -52.6161 N.am      17 UNK        -0.5000 
     95 CA         -8.5073  -25.9356  -53.6792 C.3       17 UNK         0.1400 
     96 CB         -8.9263  -27.0521  -54.6476 C.3       17 UNK        -0.1800 
     97 C          -7.8198  -24.7865  -54.4460 C.2       17 UNK         0.5000 
     98 O          -8.5127  -23.9337  -55.0018 O.2       17 UNK        -0.5000 
     99 N          -6.4803  -24.7726  -54.4476 N.am      18 UNK        -0.5000 
    100 CA        -5.6512  -23.7486  -55.0793 C.3       18 UNK         0.1400 
    101 CB        -4.4827  -24.4420  -55.8005 C.3       18 UNK        -0.1800 
    102 C         -5.1500  -22.6874  -54.0784 C.2       18 UNK         0.5000 
    103 O         -4.3019  -21.8778  -54.4519 O.2       18 UNK        -0.5000 
    104 N         -5.6571  -22.6840  -52.8343 N.am      19 UNK        -0.5000 
    105 CA        -5.2373  -21.7604  -51.7720 C.3       19 UNK         0.1400 
    106 CB        -5.8438  -22.1952  -50.4314 C.3       19 UNK        -0.1800 
    107 C         -5.5508  -20.2777  -52.0385 C.2       19 UNK         0.5000 
    108 O         -4.8900  -19.4196  -51.4529 O.2       19 UNK        -0.5000 
    109 N         -6.5233  -19.9973  -52.9179 N.am      20 UNK        -0.5000 
    110 CA        -6.9092  -18.6626  -53.3803 C.3       20 UNK         0.1400 
    111 CB        -8.1273  -18.7935  -54.3100 C.3       20 UNK        -0.1800 
    112 C         -5.7348  -17.9405  -54.0730 C.2       20 UNK         0.5000 
    113 O         -5.4751  -18.1822  -55.2526 O.2       20 UNK        -0.5000 
    114 N         -5.0190  -17.1183  -53.2917 N.am      21 UNK        -0.5000 
    115 CA        -3.7669  -16.4232  -53.6188 C.3       21 UNK         0.1400 
    116 CB        -3.9697  -15.4268  -54.7800 C.3       21 UNK        -0.1800 
    117 C         -2.5614  -17.3664  -53.8468 C.2       21 UNK         0.5000 
    118 O         -1.5486  -16.9228  -54.3887 O.2       21 UNK        -0.5000 
    119 N         -2.6791  -18.6275  -53.4036 N.am      22 UNK        -0.5000 
    120 CA        -1.7052  -19.7206  -53.5512 C.3       22 UNK         0.1400 
    121 C         -1.3224  -19.9968  -55.0373 C.2       22 UNK         0.5000 
    122 N         -2.1701  -20.6977  -55.7754 N.am      22 UNK        -0.7600 
    123 O         -0.2707  -19.5903  -55.5261 O.2       22 UNK        -0.5000 
    124 C124       -0.4825  -19.5355  -52.6165 C.3       23 UNK        -0.0398 
    125 S125        0.4326  -21.0952  -52.3539 S.3       23 UNK        -0.2404 
    126 C126        2.1524  -20.5471  -52.5817 C.3       23 UNK        -0.0205 
    127 H127        0.9630   -9.4330  -49.0013 H         1 UNK         0.0600 
    128 H128        2.4173   -9.8177  -48.0761 H         1 UNK         0.0600 
    129 H129        0.9557   -9.2833  -47.2407 H         1 UNK         0.0600 
    130 H130        2.7432  -11.9972  -47.7936 H         1 UNK         0.3000 
    131 H131        2.4998  -14.1423  -47.4375 H         1 UNK         0.0600 
    132 H132        1.5823  -14.0158  -49.8064 H         1 UNK         0.0800 
    133 H133       -0.0278  -14.0583  -49.1756 H         1 UNK         0.0800 
    134 H134        3.4827  -16.0752  -48.9603 H         1 UNK         0.0800 
    135 H135        2.8212  -15.9283  -50.5717 H         1 UNK         0.0800 
    136 H136        1.8918  -17.9542  -51.7431 H         1 UNK         0.1150 
    137 H137        3.6744  -21.6934  -50.6350 H         1 UNK         0.1150 
    138 H138        4.1303  -18.2596  -48.1066 H         1 UNK         0.1150 
    139 H139        5.7588  -21.2165  -48.8949 H         1 UNK         0.0800 
    140 H140        5.2635  -20.2646  -47.5188 H         1 UNK         0.0800 
    141 H141        2.6509  -20.5304  -46.8322 H         1 UNK         0.0800 
    142 H142        3.3605  -21.4674  -45.5455 H         1 UNK         0.0800 
    143 H143        1.8024  -23.4068  -46.2479 H         1 UNK         0.0600 
    144 H144        1.2226  -21.2074  -44.5968 H         1 UNK         0.3000 
    145 H145       -1.9348  -22.3171  -43.3448 H         1 UNK         0.0600 
    146 H146       -0.6913  -22.0123  -41.2241 H         1 UNK         0.0600 
    147 H147        0.8460  -22.0737  -42.0813 H         1 UNK         0.0600 
    148 H148       -0.1863  -23.4966  -42.0188 H         1 UNK         0.0600 
    149 H149       -0.4064  -20.0023  -42.7505 H         1 UNK         0.3000 
    150 H150       -1.7496  -17.8936  -45.3359 H         1 UNK         0.0600 
    151 H151       -3.2930  -17.6797  -43.4919 H         1 UNK         0.0600 
    152 H152       -1.9867  -16.5643  -43.1299 H         1 UNK         0.0600 
    153 H153       -2.0850  -18.1087  -42.2998 H         1 UNK         0.0600 
    154 H154        0.2906  -17.3762  -43.4416 H         1 UNK         0.3000 
    155 H155        3.0398  -18.6924  -45.3235 H         1 UNK         0.0600 
    156 H156        2.6543  -16.4078  -46.2836 H         1 UNK         0.0600 
    157 H157        3.9458  -16.4408  -45.0936 H         1 UNK         0.0600 
    158 H158        2.3691  -15.7950  -44.6553 H         1 UNK         0.0600 
    159 H159        2.7451  -17.2887  -42.8074 H         1 UNK         0.3000 
    160 H160        2.4718  -20.2321  -40.8044 H         1 UNK         0.0600 
    161 H161        4.7086  -18.1549  -41.1273 H         1 UNK         0.0600 
    162 H162        4.9176  -19.9004  -41.2050 H         1 UNK         0.0600 
    163 H163        4.4119  -19.1484  -39.7006 H         1 UNK         0.0600 
    164 H164        2.5273  -17.4342  -40.1886 H         1 UNK         0.3000 
    165 H165       -0.9111  -16.7387  -40.6518 H         1 UNK         0.0600 
    166 H166       -0.8730  -16.1691  -38.2387 H         1 UNK         0.0600 
    167 H167       -0.9706  -17.9098  -38.4486 H         1 UNK         0.0600 
    168 H168        0.5600  -17.1692  -37.9962 H         1 UNK         0.0600 
    169 H169        1.2333  -15.2838  -39.4377 H         1 UNK         0.3000 
    170 H170        2.0592  -13.5039  -40.4383 H         1 UNK         0.0600 
    171 H171        3.7017  -14.9193  -42.6185 H         1 UNK         0.0600 
    172 H172        4.2963  -13.6778  -41.5202 H         1 UNK         0.0600 
    173 H173        3.8243  -15.2467  -40.8926 H         1 UNK         0.0600 
    174 H174        1.3757  -13.3255  -43.2914 H         1 UNK         0.3000 
    175 H175        1.7694   -9.7268  -43.1429 H         1 UNK         0.0600 
    176 H176        2.9977  -11.8142  -45.0143 H         1 UNK         0.0600 
    177 H177        2.6888  -10.1230  -45.4083 H         1 UNK         0.0600 
    178 H178        3.8616  -10.5387  -44.1707 H         1 UNK         0.0600 
    179 H179        0.5026  -11.8535  -44.7783 H         1 UNK         0.3000 
    180 H180       -2.7369  -11.0142  -43.8403 H         1 UNK         0.0600 
    181 H181       -3.2192  -10.1476  -46.1337 H         1 UNK         0.0600 
    182 H182       -1.5245   -9.7019  -46.3297 H         1 UNK         0.0600 
    183 H183       -2.5112   -8.9068  -45.1117 H         1 UNK         0.0600 
    184 H184       -1.4497  -12.1795  -46.2112 H         1 UNK         0.3000 
    185 H185       -1.0749  -15.3760  -44.8060 H         1 UNK         0.0600 
    186 H186       -3.3244  -14.5632  -46.7343 H         1 UNK         0.0600 
    187 H187       -2.5899  -16.1616  -46.6635 H         1 UNK         0.0600 
    188 H188       -3.5128  -15.5569  -45.2947 H         1 UNK         0.0600 
    189 H189       -0.8960  -14.6221  -47.4918 H         1 UNK         0.3000 
    190 H190       -0.0192  -20.3943  -47.0016 H         1 UNK         0.3000 
    191 H191       -0.6590  -21.0890  -49.6889 H         1 UNK         0.0600 
    192 H192       -0.8040  -18.7731  -48.8596 H         1 UNK         0.0600 
    193 H193       -2.0834  -19.2134  -47.7317 H         1 UNK         0.0600 
    194 H194       -2.3730  -19.2849  -49.4667 H         1 UNK         0.0600 
    195 H195       -2.5033  -21.5282  -46.6260 H         1 UNK         0.3000 
    196 H196       -4.8089  -22.6979  -47.6871 H         1 UNK         0.0600 
    197 H197       -4.6293  -21.8471  -45.3699 H         1 UNK         0.0600 
    198 H198       -3.5153  -23.1493  -44.9526 H         1 UNK         0.0600 
    199 H199       -5.1856  -23.5130  -45.3644 H         1 UNK         0.0600 
    200 H200       -1.7068  -24.2474  -46.9677 H         1 UNK         0.3000 
    201 H201       -2.4847  -26.9511  -47.1408 H         1 UNK         0.0600 
    202 H202       -0.3034  -26.1647  -46.2299 H         1 UNK         0.0600 
    203 H203        0.2057  -25.6675  -47.8431 H         1 UNK         0.0600 
    204 H204       -0.0632  -27.3670  -47.4875 H         1 UNK         0.0600 
    205 H205       -2.3142  -24.6191  -49.7242 H         1 UNK         0.3000 
    206 H206       -2.0499  -26.5772  -51.8789 H         1 UNK         0.0600 
    207 H207       -2.8987  -23.6473  -51.9882 H         1 UNK         0.0600 
    208 H208       -1.2329  -24.2052  -52.0813 H         1 UNK         0.0600 
    209 H209       -2.3787  -24.6429  -53.3360 H         1 UNK         0.0600 
    210 H210       -4.5593  -25.8342  -49.7413 H         1 UNK         0.3000 
    211 H211       -6.6853  -26.3574  -49.5538 H         1 UNK         0.0600 
    212 H212       -5.9896  -28.4885  -51.6531 H         1 UNK         0.0600 
    213 H213       -7.4137  -28.5096  -50.6132 H         1 UNK         0.0600 
    214 H214       -5.8115  -28.6269  -49.9104 H         1 UNK         0.0600 
    215 H215       -7.3807  -27.4697  -52.7451 H         1 UNK         0.3000 
    216 H216       -9.4080  -25.5263  -53.2170 H         1 UNK         0.0600 
    217 H217       -9.5679  -26.6629  -55.4393 H         1 UNK         0.0600 
    218 H218       -9.4862  -27.8328  -54.1322 H         1 UNK         0.0600 
    219 H219       -8.0616  -27.5160  -55.1239 H         1 UNK         0.0600 
    220 H220       -5.9808  -25.4964  -53.9392 H         1 UNK         0.3000 
    221 H221       -6.2296  -23.2127  -55.8344 H         1 UNK         0.0600 
    222 H222       -3.8589  -25.0067  -55.1087 H         1 UNK         0.0600 
    223 H223       -4.8480  -25.1353  -56.5582 H         1 UNK         0.0600 
    224 H224       -3.8425  -23.7197  -56.3085 H         1 UNK         0.0600 
    225 H225       -6.3538  -23.3748  -52.5808 H         1 UNK         0.3000 
    226 H226       -4.1527  -21.8240  -51.6877 H         1 UNK         0.0600 
    227 H227       -5.5125  -23.1966  -50.1562 H         1 UNK         0.0600 
    228 H228       -5.5363  -21.5223  -49.6302 H         1 UNK         0.0600 
    229 H229       -6.9336  -22.1911  -50.4616 H         1 UNK         0.0600 
    230 H230       -6.9900  -20.7746  -53.3607 H         1 UNK         0.3000 
    231 H231       -7.2138  -18.0775  -52.5101 H         1 UNK         0.0600 
    232 H232       -8.4379  -17.8175  -54.6850 H         1 UNK         0.0600 
    233 H233       -8.9794  -19.2255  -53.7850 H         1 UNK         0.0600 
    234 H234       -7.9117  -19.4240  -55.1737 H         1 UNK         0.0600 
    235 H235       -5.2938  -17.0533  -52.3204 H         1 UNK         0.3000 
    236 H236       -3.5160  -15.8387  -52.7326 H         1 UNK         0.0600 
    237 H237       -4.1323  -15.9369  -55.7296 H         1 UNK         0.0600 
    238 H238       -4.8241  -14.7753  -54.5971 H         1 UNK         0.0600 
    239 H239       -3.0961  -14.7857  -54.9023 H         1 UNK         0.0600 
    240 H240       -3.5425  -18.8756  -52.9357 H         1 UNK         0.3000 
    241 H241       -2.2343  -20.6074  -53.1990 H         1 UNK         0.0600 
    242 H242       -1.9520  -20.8900  -56.7394 H         1 UNK         0.3800 
    243 H243       -3.0236  -21.0744  -55.3618 H         1 UNK         0.3800 
    244 H244       -0.8086  -19.1847  -51.6368 H         1 UNK         0.0800 
    245 H245        0.1743  -18.7594  -53.0094 H         1 UNK         0.0800 
    246 H246        2.2219  -19.8602  -53.4266 H         1 UNK         0.0800 
    247 H247        2.7583  -21.4137  -52.8502 H         1 UNK         0.0800 
@<TRIPOS>BOND
     1    1    2 1    
     2    1  127 1    
     3    1  128 1    
     4    1  129 1    
     5    2    3 2    
     6    2    4 am   BACKBONE|DICT|INTERRES
     7    4    5 1    
     8    4  130 1    
     9    5    6 1    
    10    5   65 1    
    11    5  131 1    
    12    6    7 1    
    13    6  132 1    
    14    6  133 1    
    15    7    8 1    
    16    8    9 1    
    17    8  134 1    
    18    8  135 1    
    19    9   10 ar   
    20    9   14 ar   
    21   10   11 ar   
    22   10  136 1    
    23   11   12 ar   
    24   11  126 1    
    25   12   13 ar   
    26   12  137 1    
    27   13   14 ar   
    28   13   15 1    
    29   14  138 1    
    30   15   16 1    
    31   15  139 1    
    32   15  140 1    
    33   16   17 1    
    34   17   18 1    
    35   17  141 1    
    36   17  142 1    
    37   18   19 1    
    38   18   67 1    
    39   18  143 1    
    40   19   20 am   BACKBONE|DICT|INTERRES
    41   19  144 1    
    42   20   21 2    
    43   20   22 1    
    44   22   23 1    
    45   22   24 1    
    46   22  145 1    
    47   23  146 1    
    48   23  147 1    
    49   23  148 1    
    50   24   25 am   BACKBONE|DICT|INTERRES
    51   24  149 1    
    52   25   26 2    
    53   25   27 1    
    54   27   28 1    
    55   27   29 1    
    56   27  150 1    
    57   28  151 1    
    58   28  152 1    
    59   28  153 1    
    60   29   30 am   BACKBONE|DICT|INTERRES
    61   29  154 1    
    62   30   31 2    
    63   30   32 1    
    64   32   33 1    
    65   32   34 1    
    66   32  155 1    
    67   33  156 1    
    68   33  157 1    
    69   33  158 1    
    70   34   35 am   BACKBONE|DICT|INTERRES
    71   34  159 1    
    72   35   36 2    
    73   35   37 1    
    74   37   38 1    
    75   37   39 1    
    76   37  160 1    
    77   38  161 1    
    78   38  162 1    
    79   38  163 1    
    80   39   40 am   BACKBONE|DICT|INTERRES
    81   39  164 1    
    82   40   41 2    
    83   40   42 1    
    84   42   43 1    
    85   42   44 1    
    86   42  165 1    
    87   43  166 1    
    88   43  167 1    
    89   43  168 1    
    90   44   45 am   BACKBONE|DICT|INTERRES
    91   44  169 1    
    92   45   46 2    
    93   45   47 1    
    94   47   48 1    
    95   47   49 1    
    96   47  170 1    
    97   48  171 1    
    98   48  172 1    
    99   48  173 1    
   100   49   50 am   BACKBONE|DICT|INTERRES
   101   49  174 1    
   102   50   51 2    
   103   50   52 1    
   104   52   53 1    
   105   52   54 1    
   106   52  175 1    
   107   53  176 1    
   108   53  177 1    
   109   53  178 1    
   110   54   55 am   BACKBONE|DICT|INTERRES
   111   54  179 1    
   112   55   56 2    
   113   55   57 1    
   114   57   58 1    
   115   57   59 1    
   116   57  180 1    
   117   58  181 1    
   118   58  182 1    
   119   58  183 1    
   120   59   60 am   BACKBONE|DICT|INTERRES
   121   59  184 1    
   122   60   61 2    
   123   60   62 1    
   124   62   63 1    
   125   62   64 1    
   126   62  185 1    
   127   63  186 1    
   128   63  187 1    
   129   63  188 1    
   130   64   65 am   BACKBONE|DICT|INTERRES
   131   64  189 1    
   132   65   66 2    
   133   67   68 2    
   134   67   69 am   BACKBONE|DICT|INTERRES
   135   69   70 1    
   136   69  190 1    
   137   70   71 1    
   138   70   72 1    
   139   70  191 1    
   140   71  192 1    
   141   71  193 1    
   142   71  194 1    
   143   72   73 2    
   144   72   74 am   BACKBONE|DICT|INTERRES
   145   74   75 1    
   146   74  195 1    
   147   75   76 1    
   148   75   77 1    
   149   75  196 1    
   150   76  197 1    
   151   76  198 1    
   152   76  199 1    
   153   77   78 2    
   154   77   79 am   BACKBONE|DICT|INTERRES
   155   79   80 1    
   156   79  200 1    
   157   80   81 1    
   158   80   82 1    
   159   80  201 1    
   160   81  202 1    
   161   81  203 1    
   162   81  204 1    
   163   82   83 2    
   164   82   84 am   BACKBONE|DICT|INTERRES
   165   84   85 1    
   166   84  205 1    
   167   85   86 1    
   168   85   87 1    
   169   85  206 1    
   170   86  207 1    
   171   86  208 1    
   172   86  209 1    
   173   87   88 2    
   174   87   89 am   BACKBONE|DICT|INTERRES
   175   89   90 1    
   176   89  210 1    
   177   90   91 1    
   178   90   92 1    
   179   90  211 1    
   180   91  212 1    
   181   91  213 1    
   182   91  214 1    
   183   92   93 2    
   184   92   94 am   BACKBONE|DICT|INTERRES
   185   94   95 1    
   186   94  215 1    
   187   95   96 1    
   188   95   97 1    
   189   95  216 1    
   190   96  217 1    
   191   96  218 1    
   192   96  219 1    
   193   97   98 2    
   194   97   99 am   BACKBONE|DICT|INTERRES
   195   99  100 1    
   196   99  220 1    
   197  100  101 1    
   198  100  102 1    
   199  100  221 1    
   200  101  222 1    
   201  101  223 1    
   202  101  224 1    
   203  102  103 2    
   204  102  104 am   BACKBONE|DICT|INTERRES
   205  104  105 1    
   206  104  225 1    
   207  105  106 1    
   208  105  107 1    
   209  105  226 1    
   210  106  227 1    
   211  106  228 1    
   212  106  229 1    
   213  107  108 2    
   214  107  109 am   BACKBONE|DICT|INTERRES
   215  109  110 1    
   216  109  230 1    
   217  110  111 1    
   218  110  112 1    
   219  110  231 1    
   220  111  232 1    
   221  111  233 1    
   222  111  234 1    
   223  112  113 2    
   224  112  114 am   BACKBONE|DICT|INTERRES
   225  114  115 1    
   226  114  235 1    
   227  115  116 1    
   228  115  117 1    
   229  115  236 1    
   230  116  237 1    
   231  116  238 1    
   232  116  239 1    
   233  117  118 2    
   234  117  119 am   BACKBONE|DICT|INTERRES
   235  119  120 1    
   236  119  240 1    
   237  120  121 1    
   238  120  124 1    
   239  120  241 1    
   240  121  122 am   BACKBONE|DICT|INTERRES
   241  121  123 2    
   242  122  242 1    
   243  122  243 1    
   244  124  125 1    
   245  124  244 1    
   246  124  245 1    
   247  125  126 1    
   248  126  246 1    
   249  126  247 1    
@<TRIPOS>SUBSTRUCTURE
     1 UNK         1 GROUP             0       ****    0 ROOT    
