@<TRIPOS>MOLECULE
3R540
247   249    1
SMALL
USER_CHARGES


@<TRIPOS>ATOM
      1 CA          0.3988  -13.1805  -53.3370 C.3       0 UNK        -0.1800 
      2 C           0.6934  -12.9078  -51.8707 C.2       0 UNK         0.5000 
      3 O           0.8833  -11.7522  -51.4897 O.2       0 UNK        -0.5000 
      4 N           0.7523  -13.9646  -51.0531 N.am      1 UNK        -0.5000 
      5 CA          1.0019  -13.8844  -49.6124 C.3       1 UNK         0.1400 
      6 C6          1.5851  -15.1999  -49.0325 C.3       23 UNK        -0.0398 
      7 S7          0.6983  -16.7331  -49.4929 S.3       23 UNK        -0.2404 
      8 C8          1.8316  -17.4353  -50.7371 C.3       23 UNK        -0.0205 
      9 C9          1.5763  -18.9191  -50.9505 C.ar      23 UNK        -0.0193 
     10 C10         0.9410  -19.3806  -52.1068 C.ar      23 UNK        -0.1150 
     11 C11         0.7111  -20.7476  -52.2901 C.ar      23 UNK        -0.0193 
     12 C12         1.1293  -21.6519  -51.3083 C.ar      23 UNK        -0.1150 
     13 C13         1.7761  -21.2089  -50.1500 C.ar      23 UNK        -0.0193 
     14 C14         2.0033  -19.8366  -49.9876 C.ar      23 UNK        -0.1150 
     15 C15         2.2391  -22.2424  -49.1199 C.3       23 UNK        -0.0205 
     16 S16         2.4744  -21.6099  -47.4205 S.3       23 UNK        -0.2404 
     17 C17         0.7604  -21.2040  -46.9544 C.3       23 UNK        -0.0398 
     18 CA          0.1543  -22.2750  -46.0229 C.3       11 UNK         0.1400 
     19 N           0.8333  -22.3202  -44.7253 N.am      11 UNK        -0.5000 
     20 C           0.6238  -23.1952  -43.7338 C.2       10 UNK         0.5000 
     21 O          -0.1643  -24.1383  -43.8270 O.2       10 UNK        -0.5000 
     22 CA          1.3397  -22.9222  -42.3932 C.3       10 UNK         0.1400 
     23 CB          1.9871  -24.1930  -41.8080 C.3       10 UNK        -0.1800 
     24 N           2.2778  -21.7902  -42.4404 N.am      10 UNK        -0.5000 
     25 C           3.4691  -21.7177  -43.0541 C.2       9 UNK         0.5000 
     26 O           4.0129  -22.6701  -43.6126 O.2       9 UNK        -0.5000 
     27 CA          4.1551  -20.3361  -43.0994 C.3       9 UNK         0.1400 
     28 CB          4.1197  -19.7765  -44.5307 C.3       9 UNK        -0.1800 
     29 N           3.5568  -19.3455  -42.2013 N.am      9 UNK        -0.5000 
     30 C           3.7411  -19.2995  -40.8754 C.2       8 UNK         0.5000 
     31 O           4.4576  -20.0873  -40.2571 O.2       8 UNK        -0.5000 
     32 CA          2.9748  -18.2036  -40.1087 C.3       8 UNK         0.1400 
     33 CB          3.7368  -16.8705  -40.1546 C.3       8 UNK        -0.1800 
     34 N           1.6107  -18.0026  -40.6040 N.am      8 UNK        -0.5000 
     35 C           0.6327  -18.9167  -40.5270 C.2       7 UNK         0.5000 
     36 O           0.7716  -20.0278  -40.0153 O.2       7 UNK        -0.5000 
     37 CA         -0.7151  -18.5485  -41.1714 C.3       7 UNK         0.1400 
     38 CB         -1.5341  -17.6281  -40.2549 C.3       7 UNK        -0.1800 
     39 N          -0.5539  -17.9293  -42.4873 N.am      7 UNK        -0.5000 
     40 C          -0.0472  -18.5581  -43.5563 C.2       6 UNK         0.5000 
     41 O           0.2596  -19.7486  -43.5581 O.2       6 UNK        -0.5000 
     42 CA          0.1900  -17.7239  -44.8263 C.3       6 UNK         0.1400 
     43 CB         -1.0880  -17.6399  -45.6723 C.3       6 UNK        -0.1800 
     44 N           0.6864  -16.3819  -44.5368 N.am      6 UNK        -0.5000 
     45 C           1.8619  -16.1163  -43.9512 C.2       5 UNK         0.5000 
     46 O           2.6735  -16.9797  -43.6207 O.2       5 UNK        -0.5000 
     47 CA          2.1496  -14.6417  -43.6279 C.3       5 UNK         0.1400 
     48 CB          2.6306  -13.8839  -44.8752 C.3       5 UNK        -0.1800 
     49 N           0.9753  -13.9767  -43.0640 N.am      5 UNK        -0.5000 
     50 C           0.4607  -14.2486  -41.8563 C.2       4 UNK         0.5000 
     51 O           0.9496  -15.0614  -41.0709 O.2       4 UNK        -0.5000 
     52 CA         -0.8413  -13.5156  -41.4842 C.3       4 UNK         0.1400 
     53 CB         -0.5370  -12.1118  -40.9403 C.3       4 UNK        -0.1800 
     54 N          -1.7686  -13.4091  -42.6130 N.am      4 UNK        -0.5000 
     55 C          -2.4031  -14.4517  -43.1676 C.2       3 UNK         0.5000 
     56 O          -2.2910  -15.6095  -42.7678 O.2       3 UNK        -0.5000 
     57 CA         -3.2704  -14.1593  -44.4071 C.3       3 UNK         0.1400 
     58 CB         -4.6731  -13.6953  -43.9877 C.3       3 UNK        -0.1800 
     59 N          -2.6824  -13.1730  -45.3201 N.am      3 UNK        -0.5000 
     60 C          -1.4967  -13.3135  -45.9267 C.2       2 UNK         0.5000 
     61 O          -0.7443  -14.2708  -45.7362 O.2       2 UNK        -0.5000 
     62 CA         -1.0525  -12.1674  -46.8523 C.3       2 UNK         0.1400 
     63 CB         -0.4782  -11.0091  -46.0208 C.3       2 UNK        -0.1800 
     64 N          -0.0278  -12.6148  -47.7955 N.am      2 UNK        -0.5000 
     65 C          -0.2528  -13.4092  -48.8501 C.2       1 UNK         0.5000 
     66 O          -1.3770  -13.7625  -49.2160 O.2       1 UNK        -0.5000 
     67 C          -1.3677  -22.0792  -45.8855 C.2       11 UNK         0.5000 
     68 O          -2.1051  -22.5434  -46.7498 O.2       11 UNK        -0.5000 
     69 N          -1.8260  -21.4894  -44.7718 N.am      12 UNK        -0.5000 
     70 CA         -3.2382  -21.4159  -44.3829 C.3       12 UNK         0.1400 
     71 CB         -3.3498  -20.6733  -43.0436 C.3       12 UNK        -0.1800 
     72 C          -3.9480  -22.7889  -44.3081 C.2       12 UNK         0.5000 
     73 O          -5.1668  -22.8404  -44.4782 O.2       12 UNK        -0.5000 
     74 N          -3.1786  -23.8660  -44.0913 N.am      13 UNK        -0.5000 
     75 CA         -3.6266  -25.2516  -44.2095 C.3       13 UNK         0.1400 
     76 CB         -3.2755  -26.0012  -42.9142 C.3       13 UNK        -0.1800 
     77 C          -2.9862  -25.9536  -45.4233 C.2       13 UNK         0.5000 
     78 O          -3.6701  -26.7188  -46.1036 O.2       13 UNK        -0.5000 
     79 N          -1.6859  -25.7206  -45.6549 N.am      14 UNK        -0.5000 
     80 CA         -0.8644  -26.4959  -46.5882 C.3       14 UNK         0.1400 
     81 CB          0.5983  -26.4397  -46.1153 C.3       14 UNK        -0.1800 
     82 C          -0.9624  -26.0885  -48.0732 C.2       14 UNK         0.5000 
     83 O          -0.5200  -26.8675  -48.9197 O.2       14 UNK        -0.5000 
     84 N          -1.4841  -24.8935  -48.3869 N.am      15 UNK        -0.5000 
     85 CA         -1.5713  -24.3804  -49.7592 C.3       15 UNK         0.1400 
     86 CB         -1.9243  -22.8880  -49.7344 C.3       15 UNK        -0.1800 
     87 C          -2.5868  -25.1343  -50.6371 C.2       15 UNK         0.5000 
     88 O          -3.5516  -25.7095  -50.1278 O.2       15 UNK        -0.5000 
     89 N          -2.3655  -25.0688  -51.9568 N.am      16 UNK        -0.5000 
     90 CA         -3.2457  -25.6351  -52.9811 C.3       16 UNK         0.1400 
     91 CB         -2.4803  -25.6919  -54.3129 C.3       16 UNK        -0.1800 
     92 C          -4.5594  -24.8485  -53.1596 C.2       16 UNK         0.5000 
     93 O          -5.5470  -25.4274  -53.6130 O.2       16 UNK        -0.5000 
     94 N          -4.5364  -23.5503  -52.8156 N.am      17 UNK        -0.5000 
     95 CA         -5.6324  -22.5801  -52.9272 C.3       17 UNK         0.1400 
     96 CB         -6.7705  -22.9218  -51.9441 C.3       17 UNK        -0.1800 
     97 C          -6.1168  -22.3860  -54.3807 C.2       17 UNK         0.5000 
     98 O          -7.3175  -22.2700  -54.6314 O.2       17 UNK        -0.5000 
     99 N          -5.1585  -22.3688  -55.3179 N.am      18 UNK        -0.5000 
    100 CA        -5.3890  -22.2902  -56.7633 C.3       18 UNK         0.1400 
    101 CB        -4.0811  -22.6587  -57.4812 C.3       18 UNK        -0.1800 
    102 C         -5.9040  -20.9211  -57.2547 C.2       18 UNK         0.5000 
    103 O         -6.4617  -20.8430  -58.3502 O.2       18 UNK        -0.5000 
    104 N         -5.7035  -19.8729  -56.4508 N.am      19 UNK        -0.5000 
    105 CA        -6.0982  -18.4922  -56.7043 C.3       19 UNK         0.1400 
    106 CB        -5.1054  -17.8381  -57.6848 C.3       19 UNK        -0.1800 
    107 C         -6.1133  -17.7465  -55.3628 C.2       19 UNK         0.5000 
    108 O         -5.6222  -18.2787  -54.3627 O.2       19 UNK        -0.5000 
    109 N         -6.6166  -16.5052  -55.3623 N.am      20 UNK        -0.5000 
    110 CA        -6.6577  -15.6133  -54.1936 C.3       20 UNK         0.1400 
    111 CB        -7.4344  -14.3406  -54.5641 C.3       20 UNK        -0.1800 
    112 C         -5.2675  -15.2508  -53.6248 C.2       20 UNK         0.5000 
    113 O         -5.1578  -14.9222  -52.4440 O.2       20 UNK        -0.5000 
    114 N         -4.2319  -15.3503  -54.4687 N.am      21 UNK        -0.5000 
    115 CA        -2.8181  -15.2082  -54.1160 C.3       21 UNK         0.1400 
    116 CB        -2.0311  -14.9988  -55.4208 C.3       21 UNK        -0.1800 
    117 C         -2.2448  -16.4127  -53.3355 C.2       21 UNK         0.5000 
    118 O         -1.1436  -16.3056  -52.7943 O.2       21 UNK        -0.5000 
    119 N         -2.9766  -17.5331  -53.3242 N.am      22 UNK        -0.5000 
    120 CA        -2.5968  -18.8155  -52.7198 C.3       22 UNK         0.1400 
    121 C         -3.6043  -19.2616  -51.6236 C.2       22 UNK         0.5000 
    122 N         -4.9029  -19.0458  -51.7954 N.am      22 UNK        -0.7600 
    123 O         -3.2060  -19.7857  -50.5891 O.2       22 UNK        -0.5000 
    124 C124       -2.4195  -19.8686  -53.8456 C.3       23 UNK        -0.0398 
    125 S125       -1.7530  -21.4892  -53.3384 S.3       23 UNK        -0.2404 
    126 C126        0.0408  -21.2606  -53.5573 C.3       23 UNK        -0.0205 
    127 H127       -0.6245  -12.8921  -53.5754 H         1 UNK         0.0600 
    128 H128        0.5309  -14.2354  -53.5760 H         1 UNK         0.0600 
    129 H129        1.0735  -12.6062  -53.9718 H         1 UNK         0.0600 
    130 H130        0.5016  -14.8818  -51.3994 H         1 UNK         0.3000 
    131 H131        1.7685  -13.1204  -49.4628 H         1 UNK         0.0600 
    132 H132        2.6261  -15.2868  -49.3445 H         1 UNK         0.0800 
    133 H133        1.6247  -15.1522  -47.9425 H         1 UNK         0.0800 
    134 H134        2.8663  -17.3053  -50.4173 H         1 UNK         0.0800 
    135 H135        1.7238  -16.8854  -51.6733 H         1 UNK         0.0800 
    136 H136        0.6248  -18.6750  -52.8626 H         1 UNK         0.1150 
    137 H137        0.9574  -22.7090  -51.4531 H         1 UNK         0.1150 
    138 H138        2.5113  -19.4662  -49.1092 H         1 UNK         0.1150 
    139 H139        1.5300  -23.0711  -49.0814 H         1 UNK         0.0800 
    140 H140        3.1856  -22.6624  -49.4621 H         1 UNK         0.0800 
    141 H141        0.1647  -21.0787  -47.8588 H         1 UNK         0.0800 
    142 H142        0.7599  -20.2305  -46.4670 H         1 UNK         0.0800 
    143 H143        0.2941  -23.2478  -46.4958 H         1 UNK         0.0600 
    144 H144        1.4372  -21.5374  -44.5202 H         1 UNK         0.3000 
    145 H145        0.5546  -22.6128  -41.7019 H         1 UNK         0.0600 
    146 H146        2.4934  -23.9807  -40.8664 H         1 UNK         0.0600 
    147 H147        1.2326  -24.9542  -41.6063 H         1 UNK         0.0600 
    148 H148        2.7131  -24.6342  -42.4909 H         1 UNK         0.0600 
    149 H149        1.9219  -20.9329  -42.0372 H         1 UNK         0.3000 
    150 H150        5.1993  -20.4796  -42.8145 H         1 UNK         0.0600 
    151 H151        4.5863  -20.4655  -45.2359 H         1 UNK         0.0600 
    152 H152        4.6580  -18.8310  -44.5981 H         1 UNK         0.0600 
    153 H153        3.0972  -19.6030  -44.8684 H         1 UNK         0.0600 
    154 H154        3.0114  -18.6084  -42.6408 H         1 UNK         0.3000 
    155 H155        2.9067  -18.5175  -39.0650 H         1 UNK         0.0600 
    156 H156        4.7490  -16.9851  -39.7649 H         1 UNK         0.0600 
    157 H157        3.2392  -16.1116  -39.5505 H         1 UNK         0.0600 
    158 H158        3.8175  -16.4865  -41.1718 H         1 UNK         0.0600 
    159 H159        1.4047  -17.0985  -41.0156 H         1 UNK         0.3000 
    160 H160       -1.2763  -19.4749  -41.3018 H         1 UNK         0.0600 
    161 H161       -1.0497  -16.6619  -40.1140 H         1 UNK         0.0600 
    162 H162       -1.6680  -18.0761  -39.2696 H         1 UNK         0.0600 
    163 H163       -2.5270  -17.4473  -40.6669 H         1 UNK         0.0600 
    164 H164       -0.8659  -16.9679  -42.5819 H         1 UNK         0.3000 
    165 H165        0.9577  -18.2269  -45.4155 H         1 UNK         0.0600 
    166 H166       -0.9081  -17.1038  -46.6047 H         1 UNK         0.0600 
    167 H167       -1.4521  -18.6345  -45.9330 H         1 UNK         0.0600 
    168 H168       -1.8884  -17.1254  -45.1403 H         1 UNK         0.0600 
    169 H169        0.0953  -15.6042  -44.8243 H         1 UNK         0.3000 
    170 H170        2.9484  -14.6120  -42.8837 H         1 UNK         0.0600 
    171 H171        3.5269  -14.3477  -45.2889 H         1 UNK         0.0600 
    172 H172        1.8767  -13.8728  -45.6618 H         1 UNK         0.0600 
    173 H173        2.8806  -12.8502  -44.6361 H         1 UNK         0.0600 
    174 H174        0.4782  -13.3415  -43.6694 H         1 UNK         0.3000 
    175 H175       -1.3309  -14.0885  -40.6937 H         1 UNK         0.0600 
    176 H176        0.1413  -12.1630  -40.0874 H         1 UNK         0.0600 
    177 H177       -0.0689  -11.4781  -41.6946 H         1 UNK         0.0600 
    178 H178       -1.4462  -11.6150  -40.6014 H         1 UNK         0.0600 
    179 H179       -1.9154  -12.4901  -43.0034 H         1 UNK         0.3000 
    180 H180       -3.3748  -15.0953  -44.9595 H         1 UNK         0.0600 
    181 H181       -4.6423  -12.7397  -43.4628 H         1 UNK         0.0600 
    182 H182       -5.1412  -14.4211  -43.3212 H         1 UNK         0.0600 
    183 H183       -5.3268  -13.5830  -44.8528 H         1 UNK         0.0600 
    184 H184       -3.2377  -12.3516  -45.5120 H         1 UNK         0.3000 
    185 H185       -1.9188  -11.8105  -47.4132 H         1 UNK         0.0600 
    186 H186       -1.2201  -10.6180  -45.3234 H         1 UNK         0.0600 
    187 H187        0.3887  -11.3215  -45.4369 H         1 UNK         0.0600 
    188 H188       -0.1704  -10.1810  -46.6597 H         1 UNK         0.0600 
    189 H189        0.9235  -12.3787  -47.5560 H         1 UNK         0.3000 
    190 H190       -1.1476  -21.1001  -44.1258 H         1 UNK         0.3000 
    191 H191       -3.7549  -20.8280  -45.1440 H         1 UNK         0.0600 
    192 H192       -2.7928  -21.1822  -42.2563 H         1 UNK         0.0600 
    193 H193       -4.3888  -20.6036  -42.7190 H         1 UNK         0.0600 
    194 H194       -2.9706  -19.6548  -43.1264 H         1 UNK         0.0600 
    195 H195       -2.1837  -23.7298  -43.9587 H         1 UNK         0.3000 
    196 H196       -4.7097  -25.2966  -44.3402 H         1 UNK         0.0600 
    197 H197       -3.5894  -27.0444  -42.9684 H         1 UNK         0.0600 
    198 H198       -3.7765  -25.5549  -42.0551 H         1 UNK         0.0600 
    199 H199       -2.2024  -25.9894  -42.7184 H         1 UNK         0.0600 
    200 H200       -1.1764  -25.1098  -45.0221 H         1 UNK         0.3000 
    201 H201       -1.1821  -27.5394  -46.5307 H         1 UNK         0.0600 
    202 H202        0.6950  -26.7934  -45.0886 H         1 UNK         0.0600 
    203 H203        1.0019  -25.4285  -46.1583 H         1 UNK         0.0600 
    204 H204        1.2359  -27.0713  -46.7352 H         1 UNK         0.0600 
    205 H205       -1.8552  -24.2952  -47.6561 H         1 UNK         0.3000 
    206 H206       -0.5849  -24.4861  -50.2160 H         1 UNK         0.0600 
    207 H207       -1.1625  -22.3095  -49.2171 H         1 UNK         0.0600 
    208 H208       -1.9943  -22.4785  -50.7387 H         1 UNK         0.0600 
    209 H209       -2.8841  -22.7066  -49.2495 H         1 UNK         0.0600 
    210 H210       -1.5525  -24.5735  -52.2935 H         1 UNK         0.3000 
    211 H211       -3.5056  -26.6548  -52.6891 H         1 UNK         0.0600 
    212 H212       -3.0965  -26.1291  -55.0998 H         1 UNK         0.0600 
    213 H213       -1.5831  -26.3052  -54.2268 H         1 UNK         0.0600 
    214 H214       -2.1781  -24.6984  -54.6474 H         1 UNK         0.0600 
    215 H215       -3.6636  -23.1803  -52.4666 H         1 UNK         0.3000 
    216 H216       -5.2157  -21.6218  -52.6216 H         1 UNK         0.0600 
    217 H217       -7.5221  -22.1318  -51.9270 H         1 UNK         0.0600 
    218 H218       -6.3919  -23.0303  -50.9277 H         1 UNK         0.0600 
    219 H219       -7.2763  -23.8491  -52.2147 H         1 UNK         0.0600 
    220 H220       -4.2005  -22.4860  -55.0225 H         1 UNK         0.3000 
    221 H221       -6.1441  -23.0342  -57.0258 H         1 UNK         0.0600 
    222 H222       -3.2795  -21.9593  -57.2396 H         1 UNK         0.0600 
    223 H223       -3.7481  -23.6599  -57.2062 H         1 UNK         0.0600 
    224 H224       -4.2115  -22.6476  -58.5641 H         1 UNK         0.0600 
    225 H225       -5.3047  -20.0231  -55.5341 H         1 UNK         0.3000 
    226 H226       -7.1070  -18.4730  -57.1213 H         1 UNK         0.0600 
    227 H227       -5.0845  -18.3648  -58.6389 H         1 UNK         0.0600 
    228 H228       -5.3791  -16.8045  -57.8984 H         1 UNK         0.0600 
    229 H229       -4.0904  -17.8352  -57.2848 H         1 UNK         0.0600 
    230 H230       -6.9962  -16.1319  -56.2208 H         1 UNK         0.3000 
    231 H231       -7.2048  -16.1297  -53.4020 H         1 UNK         0.0600 
    232 H232       -8.4507  -14.5761  -54.8806 H         1 UNK         0.0600 
    233 H233       -6.9478  -13.7937  -55.3726 H         1 UNK         0.0600 
    234 H234       -7.5103  -13.6658  -53.7103 H         1 UNK         0.0600 
    235 H235       -4.4291  -15.6047  -55.4249 H         1 UNK         0.3000 
    236 H236       -2.6998  -14.3235  -53.4873 H         1 UNK         0.0600 
    237 H237       -0.9601  -14.9238  -55.2366 H         1 UNK         0.0600 
    238 H238       -2.1793  -15.8269  -56.1151 H         1 UNK         0.0600 
    239 H239       -2.3378  -14.0809  -55.9225 H         1 UNK         0.0600 
    240 H240       -3.8902  -17.5174  -53.7603 H         1 UNK         0.3000 
    241 H241       -1.6420  -18.6989  -52.2100 H         1 UNK         0.0600 
    242 H242       -5.5433  -19.3061  -51.0635 H         1 UNK         0.3800 
    243 H243       -5.2616  -18.6688  -52.6695 H         1 UNK         0.3800 
    244 H244       -3.3772  -20.0476  -54.3349 H         1 UNK         0.0800 
    245 H245       -1.7728  -19.4636  -54.6250 H         1 UNK         0.0800 
    246 H246        0.4786  -22.2216  -53.8313 H         1 UNK         0.0800 
    247 H247        0.2436  -20.5941  -54.3965 H         1 UNK         0.0800 
@<TRIPOS>BOND
     1    1    2 1    
     2    1  127 1    
     3    1  128 1    
     4    1  129 1    
     5    2    3 2    
     6    2    4 am   BACKBONE|DICT|INTERRES
     7    4    5 1    
     8    4  130 1    
     9    5    6 1    
    10    5   65 1    
    11    5  131 1    
    12    6    7 1    
    13    6  132 1    
    14    6  133 1    
    15    7    8 1    
    16    8    9 1    
    17    8  134 1    
    18    8  135 1    
    19    9   10 ar   
    20    9   14 ar   
    21   10   11 ar   
    22   10  136 1    
    23   11   12 ar   
    24   11  126 1    
    25   12   13 ar   
    26   12  137 1    
    27   13   14 ar   
    28   13   15 1    
    29   14  138 1    
    30   15   16 1    
    31   15  139 1    
    32   15  140 1    
    33   16   17 1    
    34   17   18 1    
    35   17  141 1    
    36   17  142 1    
    37   18   19 1    
    38   18   67 1    
    39   18  143 1    
    40   19   20 am   BACKBONE|DICT|INTERRES
    41   19  144 1    
    42   20   21 2    
    43   20   22 1    
    44   22   23 1    
    45   22   24 1    
    46   22  145 1    
    47   23  146 1    
    48   23  147 1    
    49   23  148 1    
    50   24   25 am   BACKBONE|DICT|INTERRES
    51   24  149 1    
    52   25   26 2    
    53   25   27 1    
    54   27   28 1    
    55   27   29 1    
    56   27  150 1    
    57   28  151 1    
    58   28  152 1    
    59   28  153 1    
    60   29   30 am   BACKBONE|DICT|INTERRES
    61   29  154 1    
    62   30   31 2    
    63   30   32 1    
    64   32   33 1    
    65   32   34 1    
    66   32  155 1    
    67   33  156 1    
    68   33  157 1    
    69   33  158 1    
    70   34   35 am   BACKBONE|DICT|INTERRES
    71   34  159 1    
    72   35   36 2    
    73   35   37 1    
    74   37   38 1    
    75   37   39 1    
    76   37  160 1    
    77   38  161 1    
    78   38  162 1    
    79   38  163 1    
    80   39   40 am   BACKBONE|DICT|INTERRES
    81   39  164 1    
    82   40   41 2    
    83   40   42 1    
    84   42   43 1    
    85   42   44 1    
    86   42  165 1    
    87   43  166 1    
    88   43  167 1    
    89   43  168 1    
    90   44   45 am   BACKBONE|DICT|INTERRES
    91   44  169 1    
    92   45   46 2    
    93   45   47 1    
    94   47   48 1    
    95   47   49 1    
    96   47  170 1    
    97   48  171 1    
    98   48  172 1    
    99   48  173 1    
   100   49   50 am   BACKBONE|DICT|INTERRES
   101   49  174 1    
   102   50   51 2    
   103   50   52 1    
   104   52   53 1    
   105   52   54 1    
   106   52  175 1    
   107   53  176 1    
   108   53  177 1    
   109   53  178 1    
   110   54   55 am   BACKBONE|DICT|INTERRES
   111   54  179 1    
   112   55   56 2    
   113   55   57 1    
   114   57   58 1    
   115   57   59 1    
   116   57  180 1    
   117   58  181 1    
   118   58  182 1    
   119   58  183 1    
   120   59   60 am   BACKBONE|DICT|INTERRES
   121   59  184 1    
   122   60   61 2    
   123   60   62 1    
   124   62   63 1    
   125   62   64 1    
   126   62  185 1    
   127   63  186 1    
   128   63  187 1    
   129   63  188 1    
   130   64   65 am   BACKBONE|DICT|INTERRES
   131   64  189 1    
   132   65   66 2    
   133   67   68 2    
   134   67   69 am   BACKBONE|DICT|INTERRES
   135   69   70 1    
   136   69  190 1    
   137   70   71 1    
   138   70   72 1    
   139   70  191 1    
   140   71  192 1    
   141   71  193 1    
   142   71  194 1    
   143   72   73 2    
   144   72   74 am   BACKBONE|DICT|INTERRES
   145   74   75 1    
   146   74  195 1    
   147   75   76 1    
   148   75   77 1    
   149   75  196 1    
   150   76  197 1    
   151   76  198 1    
   152   76  199 1    
   153   77   78 2    
   154   77   79 am   BACKBONE|DICT|INTERRES
   155   79   80 1    
   156   79  200 1    
   157   80   81 1    
   158   80   82 1    
   159   80  201 1    
   160   81  202 1    
   161   81  203 1    
   162   81  204 1    
   163   82   83 2    
   164   82   84 am   BACKBONE|DICT|INTERRES
   165   84   85 1    
   166   84  205 1    
   167   85   86 1    
   168   85   87 1    
   169   85  206 1    
   170   86  207 1    
   171   86  208 1    
   172   86  209 1    
   173   87   88 2    
   174   87   89 am   BACKBONE|DICT|INTERRES
   175   89   90 1    
   176   89  210 1    
   177   90   91 1    
   178   90   92 1    
   179   90  211 1    
   180   91  212 1    
   181   91  213 1    
   182   91  214 1    
   183   92   93 2    
   184   92   94 am   BACKBONE|DICT|INTERRES
   185   94   95 1    
   186   94  215 1    
   187   95   96 1    
   188   95   97 1    
   189   95  216 1    
   190   96  217 1    
   191   96  218 1    
   192   96  219 1    
   193   97   98 2    
   194   97   99 am   BACKBONE|DICT|INTERRES
   195   99  100 1    
   196   99  220 1    
   197  100  101 1    
   198  100  102 1    
   199  100  221 1    
   200  101  222 1    
   201  101  223 1    
   202  101  224 1    
   203  102  103 2    
   204  102  104 am   BACKBONE|DICT|INTERRES
   205  104  105 1    
   206  104  225 1    
   207  105  106 1    
   208  105  107 1    
   209  105  226 1    
   210  106  227 1    
   211  106  228 1    
   212  106  229 1    
   213  107  108 2    
   214  107  109 am   BACKBONE|DICT|INTERRES
   215  109  110 1    
   216  109  230 1    
   217  110  111 1    
   218  110  112 1    
   219  110  231 1    
   220  111  232 1    
   221  111  233 1    
   222  111  234 1    
   223  112  113 2    
   224  112  114 am   BACKBONE|DICT|INTERRES
   225  114  115 1    
   226  114  235 1    
   227  115  116 1    
   228  115  117 1    
   229  115  236 1    
   230  116  237 1    
   231  116  238 1    
   232  116  239 1    
   233  117  118 2    
   234  117  119 am   BACKBONE|DICT|INTERRES
   235  119  120 1    
   236  119  240 1    
   237  120  121 1    
   238  120  124 1    
   239  120  241 1    
   240  121  122 am   BACKBONE|DICT|INTERRES
   241  121  123 2    
   242  122  242 1    
   243  122  243 1    
   244  124  125 1    
   245  124  244 1    
   246  124  245 1    
   247  125  126 1    
   248  126  246 1    
   249  126  247 1    
@<TRIPOS>SUBSTRUCTURE
     1 UNK         1 GROUP             0       ****    0 ROOT    
