@<TRIPOS>MOLECULE
3R540
247   249    1
SMALL
USER_CHARGES


@<TRIPOS>ATOM
      1 CA          0.4768   -9.1427  -47.9585 C.3       0 UNK        -0.1800 
      2 C           0.0919  -10.6121  -47.8651 C.2       0 UNK         0.5000 
      3 O           0.6532  -11.3437  -47.0492 O.2       0 UNK        -0.5000 
      4 N          -0.8744  -11.0476  -48.6838 N.am      1 UNK        -0.5000 
      5 CA         -1.3900  -12.4213  -48.7544 C.3       1 UNK         0.1400 
      6 C6         -1.9399  -12.7312  -50.1738 C.3       23 UNK        -0.0398 
      7 S7         -1.8408  -14.5036  -50.5926 S.3       23 UNK        -0.2404 
      8 C8         -0.2445  -14.5547  -51.4654 C.3       23 UNK        -0.0205 
      9 C9          0.1975  -15.9835  -51.7403 C.ar      23 UNK        -0.0193 
     10 C10         0.2026  -16.4956  -53.0418 C.ar      23 UNK        -0.1150 
     11 C11         0.6382  -17.8022  -53.2870 C.ar      23 UNK        -0.0193 
     12 C12         1.0500  -18.6047  -52.2187 C.ar      23 UNK        -0.1150 
     13 C13         1.0521  -18.1008  -50.9162 C.ar      23 UNK        -0.0193 
     14 C14         0.6305  -16.7892  -50.6847 C.ar      23 UNK        -0.1150 
     15 C15         1.5295  -18.9521  -49.7537 C.3       23 UNK        -0.0205 
     16 S16         0.1618  -19.8906  -49.0083 S.3       23 UNK        -0.2404 
     17 C17         0.3426  -21.5419  -49.7554 C.3       23 UNK        -0.0398 
     18 CA          0.1886  -22.7183  -48.7546 C.3       11 UNK         0.1400 
     19 N           1.1028  -22.6305  -47.6057 N.am      11 UNK        -0.5000 
     20 C           1.8690  -23.6333  -47.1541 C.2       10 UNK         0.5000 
     21 O           1.9626  -24.7230  -47.7209 O.2       10 UNK        -0.5000 
     22 CA          2.5993  -23.3969  -45.8161 C.3       10 UNK         0.1400 
     23 CB          3.6708  -24.4631  -45.5047 C.3       10 UNK        -0.1800 
     24 N           3.1484  -22.0477  -45.6865 N.am      10 UNK        -0.5000 
     25 C           4.1202  -21.4810  -46.4148 C.2       9 UNK         0.5000 
     26 O           4.7015  -22.0412  -47.3447 O.2       9 UNK        -0.5000 
     27 CA          4.5145  -20.0367  -46.0442 C.3       9 UNK         0.1400 
     28 CB          3.9789  -19.0598  -47.0976 C.3       9 UNK        -0.1800 
     29 N           4.0244  -19.6139  -44.7302 N.am      9 UNK        -0.5000 
     30 C           4.5101  -20.0261  -43.5522 C.2       8 UNK         0.5000 
     31 O           5.4826  -20.7725  -43.4357 O.2       8 UNK        -0.5000 
     32 CA          3.7573  -19.5507  -42.2946 C.3       8 UNK         0.1400 
     33 CB          4.2153  -18.1429  -41.8845 C.3       8 UNK        -0.1800 
     34 N           2.3006  -19.5627  -42.4584 N.am      8 UNK        -0.5000 
     35 C           1.5610  -20.6677  -42.6360 C.2       7 UNK         0.5000 
     36 O           2.0282  -21.8054  -42.6762 O.2       7 UNK        -0.5000 
     37 CA          0.0492  -20.4684  -42.8429 C.3       7 UNK         0.1400 
     38 CB         -0.6508  -20.1769  -41.5065 C.3       7 UNK        -0.1800 
     39 N          -0.2373  -19.4007  -43.7995 N.am      7 UNK        -0.5000 
     40 C           0.0486  -19.4579  -45.1075 C.2       6 UNK         0.5000 
     41 O           0.4869  -20.4667  -45.6634 O.2       6 UNK        -0.5000 
     42 CA         -0.1643  -18.1682  -45.9235 C.3       6 UNK         0.1400 
     43 CB         -1.6020  -18.0728  -46.4546 C.3       6 UNK        -0.1800 
     44 N           0.1511  -16.9523  -45.1782 N.am      6 UNK        -0.5000 
     45 C           1.3694  -16.6230  -44.7305 C.2       5 UNK         0.5000 
     46 O           2.3755  -17.3038  -44.9180 O.2       5 UNK        -0.5000 
     47 CA          1.4646  -15.3505  -43.8740 C.3       5 UNK         0.1400 
     48 CB          1.4754  -14.0888  -44.7513 C.3       5 UNK        -0.1800 
     49 N           0.3723  -15.2764  -42.9039 N.am      5 UNK        -0.5000 
     50 C           0.2325  -16.1104  -41.8635 C.2       4 UNK         0.5000 
     51 O           1.0406  -16.9959  -41.5836 O.2       4 UNK        -0.5000 
     52 CA         -1.0469  -15.9553  -41.0225 C.3       4 UNK         0.1400 
     53 CB         -0.8686  -14.8583  -39.9626 C.3       4 UNK        -0.1800 
     54 N          -2.2221  -15.6531  -41.8413 N.am      4 UNK        -0.5000 
     55 C          -2.7882  -16.5129  -42.7002 C.2       3 UNK         0.5000 
     56 O          -2.3952  -17.6649  -42.8787 O.2       3 UNK        -0.5000 
     57 CA         -3.9680  -15.9767  -43.5312 C.3       3 UNK         0.1400 
     58 CB         -5.2677  -16.0533  -42.7185 C.3       3 UNK        -0.1800 
     59 N          -3.7703  -14.6027  -44.0041 N.am      3 UNK        -0.5000 
     60 C          -2.7698  -14.2102  -44.8033 C.2       2 UNK         0.5000 
     61 O          -1.8888  -14.9683  -45.2132 O.2       2 UNK        -0.5000 
     62 CA         -2.7084  -12.7107  -45.1397 C.3       2 UNK         0.1400 
     63 CB         -2.0303  -11.9387  -43.9967 C.3       2 UNK        -0.1800 
     64 N          -1.9582  -12.4670  -46.3693 N.am      2 UNK        -0.5000 
     65 C          -2.3979  -12.7033  -47.6110 C.2       1 UNK         0.5000 
     66 O          -3.5447  -13.0809  -47.8587 O.2       1 UNK        -0.5000 
     67 C          -1.2646  -22.9660  -48.2809 C.2       11 UNK         0.5000 
     68 O          -2.2138  -22.5215  -48.9244 O.2       11 UNK        -0.5000 
     69 N          -1.4059  -23.6984  -47.1639 N.am      12 UNK        -0.5000 
     70 CA         -2.6502  -24.1963  -46.5659 C.3       12 UNK         0.1400 
     71 CB         -3.3153  -25.2461  -47.4789 C.3       12 UNK        -0.1800 
     72 C          -3.6104  -23.1023  -46.0487 C.2       12 UNK         0.5000 
     73 O          -4.8198  -23.3316  -45.9667 O.2       12 UNK        -0.5000 
     74 N          -3.0318  -21.9627  -45.6387 N.am      13 UNK        -0.5000 
     75 CA         -3.6407  -20.8906  -44.8431 C.3       13 UNK         0.1400 
     76 CB         -3.7499  -21.3595  -43.3747 C.3       13 UNK        -0.1800 
     77 C          -4.9753  -20.3552  -45.4126 C.2       13 UNK         0.5000 
     78 O          -5.1411  -20.2781  -46.6320 O.2       13 UNK        -0.5000 
     79 N          -5.9091  -20.0032  -44.5183 N.am      14 UNK        -0.5000 
     80 CA         -7.2676  -19.5622  -44.8374 C.3       14 UNK         0.1400 
     81 CB         -7.8795  -18.8937  -43.5970 C.3       14 UNK        -0.1800 
     82 C          -8.1866  -20.6981  -45.3277 C.2       14 UNK         0.5000 
     83 O          -9.2230  -20.4054  -45.9233 O.2       14 UNK        -0.5000 
     84 N          -7.8085  -21.9609  -45.0735 N.am      15 UNK        -0.5000 
     85 CA         -8.5565  -23.1486  -45.4908 C.3       15 UNK         0.1400 
     86 CB         -8.0011  -24.3937  -44.7818 C.3       15 UNK        -0.1800 
     87 C          -8.5495  -23.3225  -47.0190 C.2       15 UNK         0.5000 
     88 O          -9.6091  -23.5285  -47.6123 O.2       15 UNK        -0.5000 
     89 N          -7.3646  -23.1861  -47.6290 N.am      16 UNK        -0.5000 
     90 CA         -7.2056  -23.1133  -49.0835 C.3       16 UNK         0.1400 
     91 CB         -5.8111  -23.6244  -49.4617 C.3       16 UNK        -0.1800 
     92 C          -7.4142  -21.6875  -49.6275 C.2       16 UNK         0.5000 
     93 O          -7.6937  -21.5365  -50.8170 O.2       16 UNK        -0.5000 
     94 N          -7.2671  -20.6828  -48.7499 N.am      17 UNK        -0.5000 
     95 CA         -7.2214  -19.2453  -49.0326 C.3       17 UNK         0.1400 
     96 CB         -8.5464  -18.7376  -49.6389 C.3       17 UNK        -0.1800 
     97 C          -5.9730  -18.8935  -49.8647 C.2       17 UNK         0.5000 
     98 O          -6.0734  -18.2136  -50.8882 O.2       17 UNK        -0.5000 
     99 N          -4.8216  -19.3956  -49.3937 N.am      18 UNK        -0.5000 
    100 CA        -3.5020  -19.3457  -50.0255 C.3       18 UNK         0.1400 
    101 CB        -2.9740  -17.8948  -50.0402 C.3       18 UNK        -0.1800 
    102 C         -3.4971  -20.0350  -51.4102 C.2       18 UNK         0.5000 
    103 O         -4.1537  -21.0660  -51.5748 O.2       18 UNK        -0.5000 
    104 N         -2.7690  -19.4526  -52.3751 N.am      19 UNK        -0.5000 
    105 CA        -2.6173  -19.8997  -53.7634 C.3       19 UNK         0.1400 
    106 CB        -3.9702  -19.8375  -54.5077 C.3       19 UNK        -0.1800 
    107 C         -1.9115  -21.2701  -53.8810 C.2       19 UNK         0.5000 
    108 O         -1.1931  -21.6703  -52.9634 O.2       19 UNK        -0.5000 
    109 N         -2.0896  -21.9413  -55.0289 N.am      20 UNK        -0.5000 
    110 CA        -1.6080  -23.2786  -55.4098 C.3       20 UNK         0.1400 
    111 CB        -2.1902  -24.3634  -54.4832 C.3       20 UNK        -0.1800 
    112 C         -0.0770  -23.4184  -55.5323 C.2       20 UNK         0.5000 
    113 O          0.4114  -23.8486  -56.5783 O.2       20 UNK        -0.5000 
    114 N          0.6562  -23.0365  -54.4799 N.am      21 UNK        -0.5000 
    115 CA         2.1132  -23.1449  -54.3499 C.3       21 UNK         0.1400 
    116 CB         2.5097  -22.7735  -52.9125 C.3       21 UNK        -0.1800 
    117 C          2.9033  -22.2987  -55.3686 C.2       21 UNK         0.5000 
    118 O          4.0646  -22.6051  -55.6413 O.2       21 UNK        -0.5000 
    119 N          2.2540  -21.2687  -55.9224 N.am      22 UNK        -0.5000 
    120 CA         2.7689  -20.4273  -57.0131 C.3       22 UNK         0.1400 
    121 C          2.6886  -21.0965  -58.4187 C.2       22 UNK         0.5000 
    122 N          2.0422  -22.2460  -58.5850 N.am      22 UNK        -0.7600 
    123 O          3.2329  -20.5633  -59.3817 O.2       22 UNK        -0.5000 
    124 C124        2.0933  -19.0310  -57.0280 C.3       23 UNK        -0.0398 
    125 S125        2.3107  -18.1195  -55.4604 S.3       23 UNK        -0.2404 
    126 C126        0.6736  -18.3484  -54.7044 C.3       23 UNK        -0.0205 
    127 H127        0.3074   -8.6495  -47.0014 H         1 UNK         0.0600 
    128 H128       -0.1028   -8.6189  -48.7189 H         1 UNK         0.0600 
    129 H129        1.5330   -9.0476  -48.2102 H         1 UNK         0.0600 
    130 H130       -1.3235  -10.3849  -49.3001 H         1 UNK         0.3000 
    131 H131       -0.5426  -13.0892  -48.5819 H         1 UNK         0.0600 
    132 H132       -2.9698  -12.3898  -50.2912 H         1 UNK         0.0800 
    133 H133       -1.3709  -12.1834  -50.9265 H         1 UNK         0.0800 
    134 H134        0.5168  -14.0568  -50.8627 H         1 UNK         0.0800 
    135 H135       -0.3238  -13.9896  -52.3953 H         1 UNK         0.0800 
    136 H136       -0.1174  -15.8736  -53.8660 H         1 UNK         0.1150 
    137 H137        1.3810  -19.6159  -52.4026 H         1 UNK         0.1150 
    138 H138        0.6301  -16.3947  -49.6781 H         1 UNK         0.1150 
    139 H139        1.9487  -18.2941  -48.9937 H         1 UNK         0.0800 
    140 H140        2.3427  -19.6102  -50.0617 H         1 UNK         0.0800 
    141 H141        1.3205  -21.6173  -50.2297 H         1 UNK         0.0800 
    142 H142       -0.3795  -21.6292  -50.5662 H         1 UNK         0.0800 
    143 H143        0.4322  -23.6130  -49.3309 H         1 UNK         0.0600 
    144 H144        1.0397  -21.7769  -47.0561 H         1 UNK         0.3000 
    145 H145        1.8331  -23.4764  -45.0437 H         1 UNK         0.0600 
    146 H146        4.1511  -24.2685  -44.5456 H         1 UNK         0.0600 
    147 H147        3.2275  -25.4578  -45.4480 H         1 UNK         0.0600 
    148 H148        4.4475  -24.4955  -46.2691 H         1 UNK         0.0600 
    149 H149        2.7235  -21.4814  -44.9644 H         1 UNK         0.3000 
    150 H150        5.6049  -19.9818  -46.0435 H         1 UNK         0.0600 
    151 H151        4.3056  -19.3360  -48.1009 H         1 UNK         0.0600 
    152 H152        4.3247  -18.0435  -46.9084 H         1 UNK         0.0600 
    153 H153        2.8893  -19.0503  -47.0903 H         1 UNK         0.0600 
    154 H154        3.2702  -18.9303  -44.7317 H         1 UNK         0.3000 
    155 H155        4.0058  -20.2369  -41.4823 H         1 UNK         0.0600 
    156 H156        5.2950  -18.1111  -41.7338 H         1 UNK         0.0600 
    157 H157        3.7468  -17.8333  -40.9501 H         1 UNK         0.0600 
    158 H158        3.9669  -17.4010  -42.6438 H         1 UNK         0.0600 
    159 H159        1.8321  -18.6637  -42.4014 H         1 UNK         0.3000 
    160 H160       -0.3592  -21.3980  -43.2445 H         1 UNK         0.0600 
    161 H161       -0.2698  -19.2701  -41.0377 H         1 UNK         0.0600 
    162 H162       -0.5013  -20.9965  -40.8028 H         1 UNK         0.0600 
    163 H163       -1.7250  -20.0530  -41.6377 H         1 UNK         0.0600 
    164 H164       -0.6792  -18.5647  -43.4319 H         1 UNK         0.3000 
    165 H165        0.5167  -18.2039  -46.7735 H         1 UNK         0.0600 
    166 H166       -2.3197  -17.9169  -45.6501 H         1 UNK         0.0600 
    167 H167       -1.6999  -17.2380  -47.1481 H         1 UNK         0.0600 
    168 H168       -1.8926  -18.9783  -46.9887 H         1 UNK         0.0600 
    169 H169       -0.6164  -16.3015  -45.0265 H         1 UNK         0.3000 
    170 H170        2.4067  -15.3872  -43.3227 H         1 UNK         0.0600 
    171 H171        2.3147  -14.1082  -45.4475 H         1 UNK         0.0600 
    172 H172        0.5660  -13.9932  -45.3442 H         1 UNK         0.0600 
    173 H173        1.5771  -13.1874  -44.1470 H         1 UNK         0.0600 
    174 H174       -0.3619  -14.6123  -43.0946 H         1 UNK         0.3000 
    175 H175       -1.2240  -16.9021  -40.5079 H         1 UNK         0.0600 
    176 H176       -0.0074  -15.0673  -39.3266 H         1 UNK         0.0600 
    177 H177       -0.7120  -13.8788  -40.4162 H         1 UNK         0.0600 
    178 H178       -1.7419  -14.7922  -39.3133 H         1 UNK         0.0600 
    179 H179       -2.6137  -14.7270  -41.7566 H         1 UNK         0.3000 
    180 H180       -4.0737  -16.6208  -44.4066 H         1 UNK         0.0600 
    181 H181       -5.4163  -17.0562  -42.3165 H         1 UNK         0.0600 
    182 H182       -5.2576  -15.3635  -41.8737 H         1 UNK         0.0600 
    183 H183       -6.1335  -15.8146  -43.3363 H         1 UNK         0.0600 
    184 H184       -4.4490  -13.9205  -43.6977 H         1 UNK         0.3000 
    185 H185       -3.7261  -12.3361  -45.2678 H         1 UNK         0.0600 
    186 H186       -2.5701  -12.0668  -43.0577 H         1 UNK         0.0600 
    187 H187       -1.0049  -12.2739  -43.8358 H         1 UNK         0.0600 
    188 H188       -2.0013  -10.8695  -44.2083 H         1 UNK         0.0600 
    189 H189       -0.9959  -12.1622  -46.2676 H         1 UNK         0.3000 
    190 H190       -0.5581  -24.0061  -46.7110 H         1 UNK         0.3000 
    191 H191       -2.3448  -24.7267  -45.6630 H         1 UNK         0.0600 
    192 H192       -3.5032  -24.8541  -48.4762 H         1 UNK         0.0600 
    193 H193       -4.2641  -25.5976  -47.0719 H         1 UNK         0.0600 
    194 H194       -2.6737  -26.1199  -47.5912 H         1 UNK         0.0600 
    195 H195       -2.0428  -21.8640  -45.8170 H         1 UNK         0.3000 
    196 H196       -2.9435  -20.0553  -44.8674 H         1 UNK         0.0600 
    197 H197       -3.9828  -20.5304  -42.7053 H         1 UNK         0.0600 
    198 H198       -2.8089  -21.7865  -43.0296 H         1 UNK         0.0600 
    199 H199       -4.5173  -22.1246  -43.2487 H         1 UNK         0.0600 
    200 H200       -5.6908  -20.0975  -43.5370 H         1 UNK         0.3000 
    201 H201       -7.2109  -18.8171  -45.6331 H         1 UNK         0.0600 
    202 H202       -8.8979  -18.5561  -43.7949 H         1 UNK         0.0600 
    203 H203       -7.9201  -19.5773  -42.7482 H         1 UNK         0.0600 
    204 H204       -7.3078  -18.0179  -43.2978 H         1 UNK         0.0600 
    205 H205       -6.9279  -22.1207  -44.6068 H         1 UNK         0.3000 
    206 H206       -9.5943  -23.0199  -45.1758 H         1 UNK         0.0600 
    207 H207       -8.0668  -24.2920  -43.6986 H         1 UNK         0.0600 
    208 H208       -8.5680  -25.2832  -45.0592 H         1 UNK         0.0600 
    209 H209       -6.9581  -24.5788  -45.0380 H         1 UNK         0.0600 
    210 H210       -6.5279  -23.0718  -47.0640 H         1 UNK         0.3000 
    211 H211       -7.9409  -23.7614  -49.5651 H         1 UNK         0.0600 
    212 H212       -5.6461  -23.5615  -50.5382 H         1 UNK         0.0600 
    213 H213       -5.6939  -24.6690  -49.1760 H         1 UNK         0.0600 
    214 H214       -5.0263  -23.0410  -48.9780 H         1 UNK         0.0600 
    215 H215       -6.9911  -20.9378  -47.8117 H         1 UNK         0.3000 
    216 H216       -7.0961  -18.7477  -48.0705 H         1 UNK         0.0600 
    217 H217       -8.5452  -17.6496  -49.7124 H         1 UNK         0.0600 
    218 H218       -9.3962  -19.0209  -49.0177 H         1 UNK         0.0600 
    219 H219       -8.7169  -19.1290  -50.6418 H         1 UNK         0.0600 
    220 H220       -4.8657  -19.9259  -48.5280 H         1 UNK         0.3000 
    221 H221       -2.8433  -19.9334  -49.3862 H         1 UNK         0.0600 
    222 H222       -1.9155  -17.8652  -50.2942 H         1 UNK         0.0600 
    223 H223       -3.5076  -17.2711  -50.7581 H         1 UNK         0.0600 
    224 H224       -3.0789  -17.4276  -49.0619 H         1 UNK         0.0600 
    225 H225       -2.2333  -18.6340  -52.1242 H         1 UNK         0.3000 
    226 H226       -1.9591  -19.1720  -54.2346 H         1 UNK         0.0600 
    227 H227       -3.8382  -19.9241  -55.5865 H         1 UNK         0.0600 
    228 H228       -4.6452  -20.6338  -54.1917 H         1 UNK         0.0600 
    229 H229       -4.4732  -18.8873  -54.3269 H         1 UNK         0.0600 
    230 H230       -2.6683  -21.4980  -55.7285 H         1 UNK         0.3000 
    231 H231       -2.0124  -23.4596  -56.4070 H         1 UNK         0.0600 
    232 H232       -3.2796  -24.3285  -54.4739 H         1 UNK         0.0600 
    233 H233       -1.8446  -24.2536  -53.4549 H         1 UNK         0.0600 
    234 H234       -1.8998  -25.3595  -54.8193 H         1 UNK         0.0600 
    235 H235        0.1486  -22.6395  -53.6911 H         1 UNK         0.3000 
    236 H236        2.3822  -24.1892  -54.5203 H         1 UNK         0.0600 
    237 H237        2.0132  -23.4175  -52.1864 H         1 UNK         0.0600 
    238 H238        3.5844  -22.8824  -52.7616 H         1 UNK         0.0600 
    239 H239        2.2488  -21.7416  -52.6796 H         1 UNK         0.0600 
    240 H240        1.2990  -21.1103  -55.6443 H         1 UNK         0.3000 
    241 H241        3.8326  -20.2662  -56.8275 H         1 UNK         0.0600 
    242 H242        1.5856  -22.7156  -57.8112 H         1 UNK         0.3800 
    243 H243        2.0087  -22.6616  -59.5026 H         1 UNK         0.3800 
    244 H244        2.5221  -18.4131  -57.8189 H         1 UNK         0.0800 
    245 H245        1.0308  -19.1199  -57.2610 H         1 UNK         0.0800 
    246 H246        0.4276  -19.4100  -54.6917 H         1 UNK         0.0800 
    247 H247       -0.0817  -17.8570  -55.3198 H         1 UNK         0.0800 
@<TRIPOS>BOND
     1    1    2 1    
     2    1  127 1    
     3    1  128 1    
     4    1  129 1    
     5    2    3 2    
     6    2    4 am   BACKBONE|DICT|INTERRES
     7    4    5 1    
     8    4  130 1    
     9    5    6 1    
    10    5   65 1    
    11    5  131 1    
    12    6    7 1    
    13    6  132 1    
    14    6  133 1    
    15    7    8 1    
    16    8    9 1    
    17    8  134 1    
    18    8  135 1    
    19    9   10 ar   
    20    9   14 ar   
    21   10   11 ar   
    22   10  136 1    
    23   11   12 ar   
    24   11  126 1    
    25   12   13 ar   
    26   12  137 1    
    27   13   14 ar   
    28   13   15 1    
    29   14  138 1    
    30   15   16 1    
    31   15  139 1    
    32   15  140 1    
    33   16   17 1    
    34   17   18 1    
    35   17  141 1    
    36   17  142 1    
    37   18   19 1    
    38   18   67 1    
    39   18  143 1    
    40   19   20 am   BACKBONE|DICT|INTERRES
    41   19  144 1    
    42   20   21 2    
    43   20   22 1    
    44   22   23 1    
    45   22   24 1    
    46   22  145 1    
    47   23  146 1    
    48   23  147 1    
    49   23  148 1    
    50   24   25 am   BACKBONE|DICT|INTERRES
    51   24  149 1    
    52   25   26 2    
    53   25   27 1    
    54   27   28 1    
    55   27   29 1    
    56   27  150 1    
    57   28  151 1    
    58   28  152 1    
    59   28  153 1    
    60   29   30 am   BACKBONE|DICT|INTERRES
    61   29  154 1    
    62   30   31 2    
    63   30   32 1    
    64   32   33 1    
    65   32   34 1    
    66   32  155 1    
    67   33  156 1    
    68   33  157 1    
    69   33  158 1    
    70   34   35 am   BACKBONE|DICT|INTERRES
    71   34  159 1    
    72   35   36 2    
    73   35   37 1    
    74   37   38 1    
    75   37   39 1    
    76   37  160 1    
    77   38  161 1    
    78   38  162 1    
    79   38  163 1    
    80   39   40 am   BACKBONE|DICT|INTERRES
    81   39  164 1    
    82   40   41 2    
    83   40   42 1    
    84   42   43 1    
    85   42   44 1    
    86   42  165 1    
    87   43  166 1    
    88   43  167 1    
    89   43  168 1    
    90   44   45 am   BACKBONE|DICT|INTERRES
    91   44  169 1    
    92   45   46 2    
    93   45   47 1    
    94   47   48 1    
    95   47   49 1    
    96   47  170 1    
    97   48  171 1    
    98   48  172 1    
    99   48  173 1    
   100   49   50 am   BACKBONE|DICT|INTERRES
   101   49  174 1    
   102   50   51 2    
   103   50   52 1    
   104   52   53 1    
   105   52   54 1    
   106   52  175 1    
   107   53  176 1    
   108   53  177 1    
   109   53  178 1    
   110   54   55 am   BACKBONE|DICT|INTERRES
   111   54  179 1    
   112   55   56 2    
   113   55   57 1    
   114   57   58 1    
   115   57   59 1    
   116   57  180 1    
   117   58  181 1    
   118   58  182 1    
   119   58  183 1    
   120   59   60 am   BACKBONE|DICT|INTERRES
   121   59  184 1    
   122   60   61 2    
   123   60   62 1    
   124   62   63 1    
   125   62   64 1    
   126   62  185 1    
   127   63  186 1    
   128   63  187 1    
   129   63  188 1    
   130   64   65 am   BACKBONE|DICT|INTERRES
   131   64  189 1    
   132   65   66 2    
   133   67   68 2    
   134   67   69 am   BACKBONE|DICT|INTERRES
   135   69   70 1    
   136   69  190 1    
   137   70   71 1    
   138   70   72 1    
   139   70  191 1    
   140   71  192 1    
   141   71  193 1    
   142   71  194 1    
   143   72   73 2    
   144   72   74 am   BACKBONE|DICT|INTERRES
   145   74   75 1    
   146   74  195 1    
   147   75   76 1    
   148   75   77 1    
   149   75  196 1    
   150   76  197 1    
   151   76  198 1    
   152   76  199 1    
   153   77   78 2    
   154   77   79 am   BACKBONE|DICT|INTERRES
   155   79   80 1    
   156   79  200 1    
   157   80   81 1    
   158   80   82 1    
   159   80  201 1    
   160   81  202 1    
   161   81  203 1    
   162   81  204 1    
   163   82   83 2    
   164   82   84 am   BACKBONE|DICT|INTERRES
   165   84   85 1    
   166   84  205 1    
   167   85   86 1    
   168   85   87 1    
   169   85  206 1    
   170   86  207 1    
   171   86  208 1    
   172   86  209 1    
   173   87   88 2    
   174   87   89 am   BACKBONE|DICT|INTERRES
   175   89   90 1    
   176   89  210 1    
   177   90   91 1    
   178   90   92 1    
   179   90  211 1    
   180   91  212 1    
   181   91  213 1    
   182   91  214 1    
   183   92   93 2    
   184   92   94 am   BACKBONE|DICT|INTERRES
   185   94   95 1    
   186   94  215 1    
   187   95   96 1    
   188   95   97 1    
   189   95  216 1    
   190   96  217 1    
   191   96  218 1    
   192   96  219 1    
   193   97   98 2    
   194   97   99 am   BACKBONE|DICT|INTERRES
   195   99  100 1    
   196   99  220 1    
   197  100  101 1    
   198  100  102 1    
   199  100  221 1    
   200  101  222 1    
   201  101  223 1    
   202  101  224 1    
   203  102  103 2    
   204  102  104 am   BACKBONE|DICT|INTERRES
   205  104  105 1    
   206  104  225 1    
   207  105  106 1    
   208  105  107 1    
   209  105  226 1    
   210  106  227 1    
   211  106  228 1    
   212  106  229 1    
   213  107  108 2    
   214  107  109 am   BACKBONE|DICT|INTERRES
   215  109  110 1    
   216  109  230 1    
   217  110  111 1    
   218  110  112 1    
   219  110  231 1    
   220  111  232 1    
   221  111  233 1    
   222  111  234 1    
   223  112  113 2    
   224  112  114 am   BACKBONE|DICT|INTERRES
   225  114  115 1    
   226  114  235 1    
   227  115  116 1    
   228  115  117 1    
   229  115  236 1    
   230  116  237 1    
   231  116  238 1    
   232  116  239 1    
   233  117  118 2    
   234  117  119 am   BACKBONE|DICT|INTERRES
   235  119  120 1    
   236  119  240 1    
   237  120  121 1    
   238  120  124 1    
   239  120  241 1    
   240  121  122 am   BACKBONE|DICT|INTERRES
   241  121  123 2    
   242  122  242 1    
   243  122  243 1    
   244  124  125 1    
   245  124  244 1    
   246  124  245 1    
   247  125  126 1    
   248  126  246 1    
   249  126  247 1    
@<TRIPOS>SUBSTRUCTURE
     1 UNK         1 GROUP             0       ****    0 ROOT    
