@<TRIPOS>MOLECULE
3R540
247   249    1
SMALL
USER_CHARGES


@<TRIPOS>ATOM
      1 CA          3.7418  -15.2945  -51.3322 C.3       0 UNK        -0.1800 
      2 C           3.8796  -14.8912  -49.8705 C.2       0 UNK         0.5000 
      3 O           4.9167  -14.3592  -49.4738 O.2       0 UNK        -0.5000 
      4 N           2.8412  -15.1560  -49.0706 N.am      1 UNK        -0.5000 
      5 CA          2.7408  -14.8059  -47.6548 C.3       1 UNK         0.1400 
      6 C6          1.5698  -15.5246  -46.9337 C.3       23 UNK        -0.0398 
      7 S7         -0.1749  -15.2335  -47.4502 S.3       23 UNK        -0.2404 
      8 C8         -0.2356  -14.9021  -49.2510 C.3       23 UNK        -0.0205 
      9 C9         -0.0374  -16.1025  -50.1837 C.ar      23 UNK        -0.0193 
     10 C10        -0.4397  -15.9788  -51.5173 C.ar      23 UNK        -0.1150 
     11 C11        -0.2395  -17.0209  -52.4261 C.ar      23 UNK        -0.0193 
     12 C12         0.3858  -18.1940  -51.9989 C.ar      23 UNK        -0.1150 
     13 C13         0.7901  -18.3485  -50.6716 C.ar      23 UNK        -0.0193 
     14 C14         0.5627  -17.2994  -49.7719 C.ar      23 UNK        -0.1150 
     15 C15         1.5038  -19.6436  -50.2741 C.3       23 UNK        -0.0205 
     16 S16         1.6424  -19.9578  -48.4796 S.3       23 UNK        -0.2404 
     17 C17        -0.0906  -20.3189  -48.0409 C.3       23 UNK        -0.0398 
     18 CA         -0.2231  -21.7112  -47.3829 C.3       11 UNK         0.1400 
     19 N           0.3344  -21.7551  -46.0306 N.am      11 UNK        -0.5000 
     20 C           0.5397  -22.8784  -45.3287 C.2       10 UNK         0.5000 
     21 O           0.3534  -24.0101  -45.7768 O.2       10 UNK        -0.5000 
     22 CA          0.9793  -22.7068  -43.8629 C.3       10 UNK         0.1400 
     23 CB          2.4871  -22.4303  -43.7649 C.3       10 UNK        -0.1800 
     24 N           0.2374  -21.6461  -43.1793 N.am      10 UNK        -0.5000 
     25 C          -1.0837  -21.6723  -42.9485 C.2       9 UNK         0.5000 
     26 O          -1.8165  -22.6140  -43.2522 O.2       9 UNK        -0.5000 
     27 CA         -1.6948  -20.4108  -42.3154 C.3       9 UNK         0.1400 
     28 CB         -1.5209  -20.4204  -40.7893 C.3       9 UNK        -0.1800 
     29 N          -1.1198  -19.1857  -42.8707 N.am      9 UNK        -0.5000 
     30 C          -1.3184  -18.7662  -44.1284 C.2       8 UNK         0.5000 
     31 O          -2.0220  -19.3575  -44.9449 O.2       8 UNK        -0.5000 
     32 CA         -0.5633  -17.5030  -44.5670 C.3       8 UNK         0.1400 
     33 CB         -1.3179  -16.2438  -44.1198 C.3       8 UNK        -0.1800 
     34 N           0.8092  -17.4616  -44.0633 N.am      8 UNK        -0.5000 
     35 C           1.7592  -18.3507  -44.3929 C.2       7 UNK         0.5000 
     36 O           1.5728  -19.2799  -45.1756 O.2       7 UNK        -0.5000 
     37 CA          3.1344  -18.2108  -43.7109 C.3       7 UNK         0.1400 
     38 CB          4.0682  -17.3490  -44.5746 C.3       7 UNK        -0.1800 
     39 N           3.0620  -17.6368  -42.3672 N.am      7 UNK        -0.5000 
     40 C           2.3448  -18.1309  -41.3481 C.2       6 UNK         0.5000 
     41 O           1.7499  -19.2088  -41.3943 O.2       6 UNK        -0.5000 
     42 CA          2.2198  -17.2472  -40.0897 C.3       6 UNK         0.1400 
     43 CB          3.1541  -17.7599  -38.9837 C.3       6 UNK        -0.1800 
     44 N           2.4744  -15.8145  -40.3043 N.am      6 UNK        -0.5000 
     45 C           1.8147  -15.0123  -41.1536 C.2       5 UNK         0.5000 
     46 O           0.9596  -15.4113  -41.9468 O.2       5 UNK        -0.5000 
     47 CA          2.2395  -13.5298  -41.1545 C.3       5 UNK         0.1400 
     48 CB          3.4490  -13.3342  -42.0800 C.3       5 UNK        -0.1800 
     49 N           1.1736  -12.6144  -41.5726 N.am      5 UNK        -0.5000 
     50 C          -0.0101  -12.4735  -40.9572 C.2       4 UNK         0.5000 
     51 O          -0.3149  -13.0787  -39.9276 O.2       4 UNK        -0.5000 
     52 CA         -1.0216  -11.4716  -41.5532 C.3       4 UNK         0.1400 
     53 CB         -1.2574  -10.3005  -40.5848 C.3       4 UNK        -0.1800 
     54 N          -0.6303  -10.9209  -42.8516 N.am      4 UNK        -0.5000 
     55 C          -0.7532  -11.5430  -44.0308 C.2       3 UNK         0.5000 
     56 O          -1.1920  -12.6849  -44.1580 O.2       3 UNK        -0.5000 
     57 CA         -0.3266  -10.7526  -45.2859 C.3       3 UNK         0.1400 
     58 CB         -0.4344   -9.2207  -45.1159 C.3       3 UNK        -0.1800 
     59 N           1.0109  -11.1150  -45.7616 N.am      3 UNK        -0.5000 
     60 C           2.1643  -11.0790  -45.0808 C.2       2 UNK         0.5000 
     61 O           2.2502  -10.7861  -43.8867 O.2       2 UNK        -0.5000 
     62 CA          3.4270  -11.4564  -45.8822 C.3       2 UNK         0.1400 
     63 CB          4.7298  -11.2394  -45.0916 C.3       2 UNK        -0.1800 
     64 N           3.3724  -12.8473  -46.3311 N.am      2 UNK        -0.5000 
     65 C           2.7126  -13.2829  -47.4116 C.2       1 UNK         0.5000 
     66 O           2.0802  -12.5403  -48.1669 O.2       1 UNK        -0.5000 
     67 C          -1.6828  -22.1971  -47.4035 C.2       11 UNK         0.5000 
     68 O          -2.0053  -23.0596  -48.2191 O.2       11 UNK        -0.5000 
     69 N          -2.5315  -21.6767  -46.5042 N.am      12 UNK        -0.5000 
     70 CA         -3.9530  -22.0233  -46.4014 C.3       12 UNK         0.1400 
     71 CB         -4.6310  -21.1556  -45.3322 C.3       12 UNK        -0.1800 
     72 C          -4.2111  -23.5154  -46.1273 C.2       12 UNK         0.5000 
     73 O          -5.1542  -24.0716  -46.6892 O.2       12 UNK        -0.5000 
     74 N          -3.3392  -24.1530  -45.3331 N.am      13 UNK        -0.5000 
     75 CA         -3.3601  -25.5918  -45.0501 C.3       13 UNK         0.1400 
     76 CB         -2.3019  -25.9105  -43.9834 C.3       13 UNK        -0.1800 
     77 C          -3.1568  -26.4812  -46.2962 C.2       13 UNK         0.5000 
     78 O          -3.6521  -27.6084  -46.3184 O.2       13 UNK        -0.5000 
     79 N          -2.4594  -25.9556  -47.3117 N.am      14 UNK        -0.5000 
     80 CA         -2.2453  -26.5906  -48.6143 C.3       14 UNK         0.1400 
     81 CB         -0.7628  -26.4205  -48.9887 C.3       14 UNK        -0.1800 
     82 C          -3.1444  -25.9835  -49.7112 C.2       14 UNK         0.5000 
     83 O          -3.0037  -26.3523  -50.8791 O.2       14 UNK        -0.5000 
     84 N          -3.9990  -25.0159  -49.3433 N.am      15 UNK        -0.5000 
     85 CA         -4.8021  -24.1540  -50.2162 C.3       15 UNK         0.1400 
     86 CB         -5.9635  -24.9507  -50.8431 C.3       15 UNK        -0.1800 
     87 C          -3.9541  -23.4037  -51.2670 C.2       15 UNK         0.5000 
     88 O          -4.4070  -23.2187  -52.3962 O.2       15 UNK        -0.5000 
     89 N          -2.7368  -22.9952  -50.8798 N.am      16 UNK        -0.5000 
     90 CA         -1.6793  -22.4099  -51.7140 C.3       16 UNK         0.1400 
     91 CB         -2.0556  -20.9906  -52.1852 C.3       16 UNK        -0.1800 
     92 C          -1.2415  -23.3444  -52.8630 C.2       16 UNK         0.5000 
     93 O          -1.0020  -22.8857  -53.9796 O.2       16 UNK        -0.5000 
     94 N          -1.1584  -24.6468  -52.5506 N.am      17 UNK        -0.5000 
     95 CA         -0.9055  -25.7687  -53.4594 C.3       17 UNK         0.1400 
     96 CB          0.4874  -25.6671  -54.1168 C.3       17 UNK        -0.1800 
     97 C          -2.0594  -25.9424  -54.4668 C.2       17 UNK         0.5000 
     98 O          -1.8290  -26.0031  -55.6760 O.2       17 UNK        -0.5000 
     99 N          -3.2848  -26.0130  -53.9238 N.am      18 UNK        -0.5000 
    100 CA        -4.5631  -26.1546  -54.6310 C.3       18 UNK         0.1400 
    101 CB        -4.6677  -27.5447  -55.2928 C.3       18 UNK        -0.1800 
    102 C         -4.8467  -24.9916  -55.6077 C.2       18 UNK         0.5000 
    103 O         -5.2147  -25.2196  -56.7618 O.2       18 UNK        -0.5000 
    104 N         -4.6777  -23.7613  -55.1118 N.am      19 UNK        -0.5000 
    105 CA        -4.9104  -22.5039  -55.8233 C.3       19 UNK         0.1400 
    106 CB        -3.5615  -21.7994  -56.0511 C.3       19 UNK        -0.1800 
    107 C         -5.9078  -21.6172  -55.0511 C.2       19 UNK         0.5000 
    108 O         -5.8341  -20.3903  -55.1384 O.2       19 UNK        -0.5000 
    109 N         -6.8111  -22.2520  -54.2851 N.am      20 UNK        -0.5000 
    110 CA        -7.8769  -21.6480  -53.4716 C.3       20 UNK         0.1400 
    111 CB        -8.9698  -21.0521  -54.3828 C.3       20 UNK        -0.1800 
    112 C         -7.3569  -20.6352  -52.4274 C.2       20 UNK         0.5000 
    113 O         -8.0051  -19.6182  -52.1697 O.2       20 UNK        -0.5000 
    114 N         -6.1604  -20.9111  -51.8851 N.am      21 UNK        -0.5000 
    115 CA        -5.3933  -20.0742  -50.9521 C.3       21 UNK         0.1400 
    116 CB        -6.1054  -19.9863  -49.5864 C.3       21 UNK        -0.1800 
    117 C         -5.0182  -18.6883  -51.5260 C.2       21 UNK         0.5000 
    118 O         -4.7413  -17.7679  -50.7561 O.2       21 UNK        -0.5000 
    119 N         -5.0363  -18.5622  -52.8620 N.am      22 UNK        -0.5000 
    120 CA        -4.8873  -17.3120  -53.6240 C.3       22 UNK         0.1400 
    121 C         -6.0321  -16.2786  -53.3798 C.2       22 UNK         0.5000 
    122 N         -7.1999  -16.6873  -52.8931 N.am      22 UNK        -0.7600 
    123 O         -5.8801  -15.0935  -53.6646 O.2       22 UNK        -0.5000 
    124 C124       -3.4619  -16.6994  -53.5193 C.3       23 UNK        -0.0398 
    125 S125       -2.1962  -17.8100  -54.2226 S.3       23 UNK        -0.2404 
    126 C126       -0.6716  -16.8790  -53.8773 C.3       23 UNK        -0.0205 
    127 H127        2.7848  -15.7779  -51.5321 H         1 UNK         0.0600 
    128 H128        4.5356  -15.9894  -51.6066 H         1 UNK         0.0600 
    129 H129        3.8186  -14.4159  -51.9727 H         1 UNK         0.0600 
    130 H130        2.0154  -15.5826  -49.4673 H         1 UNK         0.3000 
    131 H131        3.6594  -15.1794  -47.1962 H         1 UNK         0.0600 
    132 H132        1.7514  -16.5988  -46.9585 H         1 UNK         0.0800 
    133 H133        1.6101  -15.2802  -45.8707 H         1 UNK         0.0800 
    134 H134       -1.2273  -14.4920  -49.4476 H         1 UNK         0.0800 
    135 H135        0.4574  -14.1050  -49.5162 H         1 UNK         0.0800 
    136 H136       -0.9053  -15.0624  -51.8524 H         1 UNK         0.1150 
    137 H137        0.5595  -18.9906  -52.7087 H         1 UNK         0.1150 
    138 H138        0.8733  -17.4142  -48.7498 H         1 UNK         0.1150 
    139 H139        1.0083  -20.4959  -50.7412 H         1 UNK         0.0800 
    140 H140        2.5124  -19.6117  -50.6880 H         1 UNK         0.0800 
    141 H141       -0.7017  -20.2546  -48.9434 H         1 UNK         0.0800 
    142 H142       -0.4544  -19.5361  -47.3733 H         1 UNK         0.0800 
    143 H143        0.3434  -22.4213  -47.9900 H         1 UNK         0.0600 
    144 H144        0.5908  -20.8621  -45.6177 H         1 UNK         0.3000 
    145 H145        0.7722  -23.6443  -43.3424 H         1 UNK         0.0600 
    146 H146        3.0601  -23.2456  -44.2082 H         1 UNK         0.0600 
    147 H147        2.7666  -21.5151  -44.2861 H         1 UNK         0.0600 
    148 H148        2.8052  -22.3355  -42.7264 H         1 UNK         0.0600 
    149 H149        0.7601  -20.8286  -42.8942 H         1 UNK         0.3000 
    150 H150       -2.7648  -20.4117  -42.5324 H         1 UNK         0.0600 
    151 H151       -1.9895  -19.5482  -40.3333 H         1 UNK         0.0600 
    152 H152       -0.4698  -20.4267  -40.4998 H         1 UNK         0.0600 
    153 H153       -1.9854  -21.3050  -40.3518 H         1 UNK         0.0600 
    154 H154       -0.4766  -18.6748  -42.2827 H         1 UNK         0.3000 
    155 H155       -0.5185  -17.5117  -45.6570 H         1 UNK         0.0600 
    156 H156       -2.3146  -16.2085  -44.5609 H         1 UNK         0.0600 
    157 H157       -0.7928  -15.3409  -44.4300 H         1 UNK         0.0600 
    158 H158       -1.4344  -16.2034  -43.0362 H         1 UNK         0.0600 
    159 H159        1.0127  -16.7415  -43.3753 H         1 UNK         0.3000 
    160 H160        3.5642  -19.2105  -43.6244 H         1 UNK         0.0600 
    161 H161        4.1405  -17.7455  -45.5886 H         1 UNK         0.0600 
    162 H162        5.0774  -17.3278  -44.1630 H         1 UNK         0.0600 
    163 H163        3.7137  -16.3204  -44.6474 H         1 UNK         0.0600 
    164 H164        3.5159  -16.7463  -42.2314 H         1 UNK         0.3000 
    165 H165        1.1906  -17.3433  -39.7381 H         1 UNK         0.0600 
    166 H166        2.9985  -17.2170  -38.0512 H         1 UNK         0.0600 
    167 H167        2.9732  -18.8156  -38.7760 H         1 UNK         0.0600 
    168 H168        4.2031  -17.6556  -39.2638 H         1 UNK         0.0600 
    169 H169        3.1820  -15.4046  -39.7114 H         1 UNK         0.3000 
    170 H170        2.5281  -13.2551  -40.1381 H         1 UNK         0.0600 
    171 H171        3.8094  -12.3062  -42.0383 H         1 UNK         0.0600 
    172 H172        4.2800  -13.9787  -41.7908 H         1 UNK         0.0600 
    173 H173        3.1991  -13.5627  -43.1168 H         1 UNK         0.0600 
    174 H174        1.3518  -12.0605  -42.4022 H         1 UNK         0.3000 
    175 H175       -1.9664  -12.0055  -41.6748 H         1 UNK         0.0600 
    176 H176       -0.3449   -9.7262  -40.4198 H         1 UNK         0.0600 
    177 H177       -2.0190   -9.6199  -40.9661 H         1 UNK         0.0600 
    178 H178       -1.6015  -10.6564  -39.6128 H         1 UNK         0.0600 
    179 H179       -0.2119  -10.0018  -42.8417 H         1 UNK         0.3000 
    180 H180       -1.0215  -11.0414  -46.0761 H         1 UNK         0.0600 
    181 H181       -0.2720   -8.7139  -46.0673 H         1 UNK         0.0600 
    182 H182        0.2959   -8.8275  -44.4080 H         1 UNK         0.0600 
    183 H183       -1.4265   -8.9329  -44.7654 H         1 UNK         0.0600 
    184 H184        1.0601  -11.4399  -46.7216 H         1 UNK         0.3000 
    185 H185        3.4634  -10.7986  -46.7533 H         1 UNK         0.0600 
    186 H186        4.7971  -11.8983  -44.2266 H         1 UNK         0.0600 
    187 H187        5.6029  -11.4230  -45.7179 H         1 UNK         0.0600 
    188 H188        4.8023  -10.2128  -44.7302 H         1 UNK         0.0600 
    189 H189        3.8586  -13.5140  -45.7499 H         1 UNK         0.3000 
    190 H190       -2.2058  -20.9459  -45.8748 H         1 UNK         0.3000 
    191 H191       -4.4120  -21.7880  -47.3638 H         1 UNK         0.0600 
    192 H192       -4.1766  -21.3002  -44.3519 H         1 UNK         0.0600 
    193 H193       -5.6906  -21.3987  -45.2433 H         1 UNK         0.0600 
    194 H194       -4.5632  -20.0969  -45.5826 H         1 UNK         0.0600 
    195 H195       -2.6196  -23.6097  -44.8667 H         1 UNK         0.3000 
    196 H196       -4.3419  -25.8316  -44.6371 H         1 UNK         0.0600 
    197 H197       -2.3050  -26.9719  -43.7322 H         1 UNK         0.0600 
    198 H198       -2.4916  -25.3588  -43.0625 H         1 UNK         0.0600 
    199 H199       -1.2982  -25.6560  -44.3251 H         1 UNK         0.0600 
    200 H200       -2.0970  -25.0142  -47.2152 H         1 UNK         0.3000 
    201 H201       -2.4678  -27.6581  -48.5641 H         1 UNK         0.0600 
    202 H202       -0.1142  -26.8593  -48.2302 H         1 UNK         0.0600 
    203 H203       -0.4913  -25.3687  -49.0898 H         1 UNK         0.0600 
    204 H204       -0.5331  -26.9140  -49.9339 H         1 UNK         0.0600 
    205 H205       -4.0587  -24.7964  -48.3564 H         1 UNK         0.3000 
    206 H206       -5.2355  -23.3850  -49.5755 H         1 UNK         0.0600 
    207 H207       -6.6209  -24.3024  -51.4237 H         1 UNK         0.0600 
    208 H208       -5.6034  -25.7363  -51.5067 H         1 UNK         0.0600 
    209 H209       -6.5742  -25.4209  -50.0725 H         1 UNK         0.0600 
    210 H210       -2.4776  -23.1587  -49.9069 H         1 UNK         0.3000 
    211 H211       -0.8049  -22.3126  -51.0690 H         1 UNK         0.0600 
    212 H212       -2.9725  -20.9825  -52.7735 H         1 UNK         0.0600 
    213 H213       -1.2713  -20.5618  -52.8087 H         1 UNK         0.0600 
    214 H214       -2.1855  -20.3167  -51.3390 H         1 UNK         0.0600 
    215 H215       -1.4428  -24.9191  -51.6195 H         1 UNK         0.3000 
    216 H216       -0.9044  -26.6671  -52.8401 H         1 UNK         0.0600 
    217 H217        0.7145  -26.5717  -54.6819 H         1 UNK         0.0600 
    218 H218        1.2692  -25.5482  -53.3667 H         1 UNK         0.0600 
    219 H219        0.5556  -24.8280  -54.8093 H         1 UNK         0.0600 
    220 H220       -3.3452  -25.9692  -52.9119 H         1 UNK         0.3000 
    221 H221       -5.3407  -26.1010  -53.8686 H         1 UNK         0.0600 
    222 H222       -3.9445  -27.6670  -56.0995 H         1 UNK         0.0600 
    223 H223       -4.4978  -28.3398  -54.5668 H         1 UNK         0.0600 
    224 H224       -5.6600  -27.7013  -55.7174 H         1 UNK         0.0600 
    225 H225       -4.4094  -23.6592  -54.1335 H         1 UNK         0.3000 
    226 H226       -5.3620  -22.6966  -56.7980 H         1 UNK         0.0600 
    227 H227       -2.8578  -22.4522  -56.5680 H         1 UNK         0.0600 
    228 H228       -3.6817  -20.9029  -56.6602 H         1 UNK         0.0600 
    229 H229       -3.1041  -21.4972  -55.1092 H         1 UNK         0.0600 
    230 H230       -6.7613  -23.2603  -54.2600 H         1 UNK         0.3000 
    231 H231       -8.3283  -22.4616  -52.9022 H         1 UNK         0.0600 
    232 H232       -8.6015  -20.1947  -54.9472 H         1 UNK         0.0600 
    233 H233       -9.3345  -21.7912  -55.0960 H         1 UNK         0.0600 
    234 H234       -9.8278  -20.7161  -53.7994 H         1 UNK         0.0600 
    235 H235       -5.6818  -21.7443  -52.2145 H         1 UNK         0.3000 
    236 H236       -4.4505  -20.5883  -50.7797 H         1 UNK         0.0600 
    237 H237       -7.0289  -19.4101  -49.6479 H         1 UNK         0.0600 
    238 H238       -6.3524  -20.9770  -49.2050 H         1 UNK         0.0600 
    239 H239       -5.4691  -19.5046  -48.8429 H         1 UNK         0.0600 
    240 H240       -5.2893  -19.3668  -53.4246 H         1 UNK         0.3000 
    241 H241       -5.0275  -17.6024  -54.6658 H         1 UNK         0.0600 
    242 H242       -7.9371  -16.0156  -52.7497 H         1 UNK         0.3800 
    243 H243       -7.3589  -17.6615  -52.6625 H         1 UNK         0.3800 
    244 H244       -3.4040  -15.7577  -54.0669 H         1 UNK         0.0800 
    245 H245       -3.2123  -16.4684  -52.4834 H         1 UNK         0.0800 
    246 H246       -0.8102  -15.8301  -54.1439 H         1 UNK         0.0800 
    247 H247        0.1218  -17.2542  -54.5251 H         1 UNK         0.0800 
@<TRIPOS>BOND
     1    1    2 1    
     2    1  127 1    
     3    1  128 1    
     4    1  129 1    
     5    2    3 2    
     6    2    4 am   BACKBONE|DICT|INTERRES
     7    4    5 1    
     8    4  130 1    
     9    5    6 1    
    10    5   65 1    
    11    5  131 1    
    12    6    7 1    
    13    6  132 1    
    14    6  133 1    
    15    7    8 1    
    16    8    9 1    
    17    8  134 1    
    18    8  135 1    
    19    9   10 ar   
    20    9   14 ar   
    21   10   11 ar   
    22   10  136 1    
    23   11   12 ar   
    24   11  126 1    
    25   12   13 ar   
    26   12  137 1    
    27   13   14 ar   
    28   13   15 1    
    29   14  138 1    
    30   15   16 1    
    31   15  139 1    
    32   15  140 1    
    33   16   17 1    
    34   17   18 1    
    35   17  141 1    
    36   17  142 1    
    37   18   19 1    
    38   18   67 1    
    39   18  143 1    
    40   19   20 am   BACKBONE|DICT|INTERRES
    41   19  144 1    
    42   20   21 2    
    43   20   22 1    
    44   22   23 1    
    45   22   24 1    
    46   22  145 1    
    47   23  146 1    
    48   23  147 1    
    49   23  148 1    
    50   24   25 am   BACKBONE|DICT|INTERRES
    51   24  149 1    
    52   25   26 2    
    53   25   27 1    
    54   27   28 1    
    55   27   29 1    
    56   27  150 1    
    57   28  151 1    
    58   28  152 1    
    59   28  153 1    
    60   29   30 am   BACKBONE|DICT|INTERRES
    61   29  154 1    
    62   30   31 2    
    63   30   32 1    
    64   32   33 1    
    65   32   34 1    
    66   32  155 1    
    67   33  156 1    
    68   33  157 1    
    69   33  158 1    
    70   34   35 am   BACKBONE|DICT|INTERRES
    71   34  159 1    
    72   35   36 2    
    73   35   37 1    
    74   37   38 1    
    75   37   39 1    
    76   37  160 1    
    77   38  161 1    
    78   38  162 1    
    79   38  163 1    
    80   39   40 am   BACKBONE|DICT|INTERRES
    81   39  164 1    
    82   40   41 2    
    83   40   42 1    
    84   42   43 1    
    85   42   44 1    
    86   42  165 1    
    87   43  166 1    
    88   43  167 1    
    89   43  168 1    
    90   44   45 am   BACKBONE|DICT|INTERRES
    91   44  169 1    
    92   45   46 2    
    93   45   47 1    
    94   47   48 1    
    95   47   49 1    
    96   47  170 1    
    97   48  171 1    
    98   48  172 1    
    99   48  173 1    
   100   49   50 am   BACKBONE|DICT|INTERRES
   101   49  174 1    
   102   50   51 2    
   103   50   52 1    
   104   52   53 1    
   105   52   54 1    
   106   52  175 1    
   107   53  176 1    
   108   53  177 1    
   109   53  178 1    
   110   54   55 am   BACKBONE|DICT|INTERRES
   111   54  179 1    
   112   55   56 2    
   113   55   57 1    
   114   57   58 1    
   115   57   59 1    
   116   57  180 1    
   117   58  181 1    
   118   58  182 1    
   119   58  183 1    
   120   59   60 am   BACKBONE|DICT|INTERRES
   121   59  184 1    
   122   60   61 2    
   123   60   62 1    
   124   62   63 1    
   125   62   64 1    
   126   62  185 1    
   127   63  186 1    
   128   63  187 1    
   129   63  188 1    
   130   64   65 am   BACKBONE|DICT|INTERRES
   131   64  189 1    
   132   65   66 2    
   133   67   68 2    
   134   67   69 am   BACKBONE|DICT|INTERRES
   135   69   70 1    
   136   69  190 1    
   137   70   71 1    
   138   70   72 1    
   139   70  191 1    
   140   71  192 1    
   141   71  193 1    
   142   71  194 1    
   143   72   73 2    
   144   72   74 am   BACKBONE|DICT|INTERRES
   145   74   75 1    
   146   74  195 1    
   147   75   76 1    
   148   75   77 1    
   149   75  196 1    
   150   76  197 1    
   151   76  198 1    
   152   76  199 1    
   153   77   78 2    
   154   77   79 am   BACKBONE|DICT|INTERRES
   155   79   80 1    
   156   79  200 1    
   157   80   81 1    
   158   80   82 1    
   159   80  201 1    
   160   81  202 1    
   161   81  203 1    
   162   81  204 1    
   163   82   83 2    
   164   82   84 am   BACKBONE|DICT|INTERRES
   165   84   85 1    
   166   84  205 1    
   167   85   86 1    
   168   85   87 1    
   169   85  206 1    
   170   86  207 1    
   171   86  208 1    
   172   86  209 1    
   173   87   88 2    
   174   87   89 am   BACKBONE|DICT|INTERRES
   175   89   90 1    
   176   89  210 1    
   177   90   91 1    
   178   90   92 1    
   179   90  211 1    
   180   91  212 1    
   181   91  213 1    
   182   91  214 1    
   183   92   93 2    
   184   92   94 am   BACKBONE|DICT|INTERRES
   185   94   95 1    
   186   94  215 1    
   187   95   96 1    
   188   95   97 1    
   189   95  216 1    
   190   96  217 1    
   191   96  218 1    
   192   96  219 1    
   193   97   98 2    
   194   97   99 am   BACKBONE|DICT|INTERRES
   195   99  100 1    
   196   99  220 1    
   197  100  101 1    
   198  100  102 1    
   199  100  221 1    
   200  101  222 1    
   201  101  223 1    
   202  101  224 1    
   203  102  103 2    
   204  102  104 am   BACKBONE|DICT|INTERRES
   205  104  105 1    
   206  104  225 1    
   207  105  106 1    
   208  105  107 1    
   209  105  226 1    
   210  106  227 1    
   211  106  228 1    
   212  106  229 1    
   213  107  108 2    
   214  107  109 am   BACKBONE|DICT|INTERRES
   215  109  110 1    
   216  109  230 1    
   217  110  111 1    
   218  110  112 1    
   219  110  231 1    
   220  111  232 1    
   221  111  233 1    
   222  111  234 1    
   223  112  113 2    
   224  112  114 am   BACKBONE|DICT|INTERRES
   225  114  115 1    
   226  114  235 1    
   227  115  116 1    
   228  115  117 1    
   229  115  236 1    
   230  116  237 1    
   231  116  238 1    
   232  116  239 1    
   233  117  118 2    
   234  117  119 am   BACKBONE|DICT|INTERRES
   235  119  120 1    
   236  119  240 1    
   237  120  121 1    
   238  120  124 1    
   239  120  241 1    
   240  121  122 am   BACKBONE|DICT|INTERRES
   241  121  123 2    
   242  122  242 1    
   243  122  243 1    
   244  124  125 1    
   245  124  244 1    
   246  124  245 1    
   247  125  126 1    
   248  126  246 1    
   249  126  247 1    
@<TRIPOS>SUBSTRUCTURE
     1 UNK         1 GROUP             0       ****    0 ROOT    
