@<TRIPOS>MOLECULE
3R540
247   249    1
SMALL
USER_CHARGES


@<TRIPOS>ATOM
      1 CA         -6.5229  -16.3264  -50.7906 C.3       0 UNK        -0.1800 
      2 C          -5.4779  -15.3984  -50.1929 C.2       0 UNK         0.5000 
      3 O          -5.2540  -14.3103  -50.7234 O.2       0 UNK        -0.5000 
      4 N          -4.8577  -15.8199  -49.0871 N.am      1 UNK        -0.5000 
      5 CA         -3.8929  -15.0444  -48.3056 C.3       1 UNK         0.1400 
      6 C6         -2.4256  -15.4827  -48.5579 C.3       23 UNK        -0.0398 
      7 S7         -1.8267  -14.9555  -50.1976 S.3       23 UNK        -0.2404 
      8 C8         -1.8508  -16.5105  -51.1506 C.3       23 UNK        -0.0205 
      9 C9         -0.5648  -17.3157  -51.0054 C.ar      23 UNK        -0.0193 
     10 C10         0.6702  -16.7313  -51.3044 C.ar      23 UNK        -0.1150 
     11 C11         1.8479  -17.4819  -51.2457 C.ar      23 UNK        -0.0193 
     12 C12         1.7885  -18.8201  -50.8493 C.ar      23 UNK        -0.1150 
     13 C13         0.5654  -19.4154  -50.5326 C.ar      23 UNK        -0.0193 
     14 C14        -0.6097  -18.6633  -50.6356 C.ar      23 UNK        -0.1150 
     15 C15         0.5165  -20.8797  -50.1224 C.3       23 UNK        -0.0205 
     16 S16         0.2746  -21.0900  -48.3327 S.3       23 UNK        -0.2404 
     17 C17         0.2134  -22.9129  -48.2329 C.3       23 UNK        -0.0398 
     18 CA          0.1402  -23.4852  -46.7922 C.3       11 UNK         0.1400 
     19 N           1.2649  -23.0486  -45.9668 N.am      11 UNK        -0.5000 
     20 C           2.4140  -23.7114  -45.8079 C.2       10 UNK         0.5000 
     21 O           2.6648  -24.7864  -46.3573 O.2       10 UNK        -0.5000 
     22 CA          3.4494  -23.0443  -44.8808 C.3       10 UNK         0.1400 
     23 CB          4.7473  -23.8617  -44.7114 C.3       10 UNK        -0.1800 
     24 N           3.7394  -21.6695  -45.2911 N.am      10 UNK        -0.5000 
     25 C           4.3012  -21.2441  -46.4316 C.2       9 UNK         0.5000 
     26 O           4.7301  -21.9909  -47.3120 O.2       9 UNK        -0.5000 
     27 CA          4.4099  -19.7176  -46.6262 C.3       9 UNK         0.1400 
     28 CB          3.3550  -19.2254  -47.6263 C.3       9 UNK        -0.1800 
     29 N           4.2683  -18.9586  -45.3820 N.am      9 UNK        -0.5000 
     30 C           5.2136  -18.8517  -44.4392 C.2       8 UNK         0.5000 
     31 O           6.3381  -19.3442  -44.5386 O.2       8 UNK        -0.5000 
     32 CA          4.8292  -18.0860  -43.1589 C.3       8 UNK         0.1400 
     33 CB          4.9415  -16.5691  -43.3741 C.3       8 UNK        -0.1800 
     34 N           3.4857  -18.4173  -42.6779 N.am      8 UNK        -0.5000 
     35 C           3.1272  -19.6180  -42.1995 C.2       7 UNK         0.5000 
     36 O           3.8997  -20.5706  -42.0928 O.2       7 UNK        -0.5000 
     37 CA          1.6531  -19.7996  -41.7949 C.3       7 UNK         0.1400 
     38 CB          1.4036  -19.2397  -40.3866 C.3       7 UNK        -0.1800 
     39 N           0.7210  -19.1860  -42.7400 N.am      7 UNK        -0.5000 
     40 C           0.5646  -19.5717  -44.0150 C.2       6 UNK         0.5000 
     41 O           1.1782  -20.5086  -44.5237 O.2       6 UNK        -0.5000 
     42 CA         -0.3926  -18.7289  -44.8781 C.3       6 UNK         0.1400 
     43 CB         -1.8603  -19.0322  -44.5283 C.3       6 UNK        -0.1800 
     44 N          -0.1512  -17.2952  -44.7210 N.am      6 UNK        -0.5000 
     45 C           1.0022  -16.6616  -44.9740 C.2       5 UNK         0.5000 
     46 O           2.0062  -17.2101  -45.4239 O.2       5 UNK        -0.5000 
     47 CA          1.0604  -15.1711  -44.6018 C.3       5 UNK         0.1400 
     48 CB          0.4425  -14.2977  -45.7041 C.3       5 UNK        -0.1800 
     49 N           0.3914  -14.9052  -43.3286 N.am      5 UNK        -0.5000 
     50 C           0.8600  -15.2878  -42.1327 C.2       4 UNK         0.5000 
     51 O           1.9323  -15.8714  -41.9726 O.2       4 UNK        -0.5000 
     52 CA         -0.0435  -15.0024  -40.9183 C.3       4 UNK         0.1400 
     53 CB          0.0987  -13.5415  -40.4655 C.3       4 UNK        -0.1800 
     54 N          -1.4535  -15.2936  -41.1872 N.am      4 UNK        -0.5000 
     55 C          -1.9388  -16.5261  -41.3912 C.2       3 UNK         0.5000 
     56 O          -1.2525  -17.5454  -41.3323 O.2       3 UNK        -0.5000 
     57 CA         -3.4293  -16.6421  -41.7670 C.3       3 UNK         0.1400 
     58 CB         -4.2978  -16.7477  -40.5051 C.3       3 UNK        -0.1800 
     59 N          -3.9375  -15.5581  -42.6158 N.am      3 UNK        -0.5000 
     60 C          -3.4317  -15.2091  -43.8060 C.2       2 UNK         0.5000 
     61 O          -2.3998  -15.6885  -44.2764 O.2       2 UNK        -0.5000 
     62 CA         -4.1777  -14.1067  -44.5786 C.3       2 UNK         0.1400 
     63 CB         -3.7494  -12.7228  -44.0661 C.3       2 UNK        -0.1800 
     64 N          -3.9312  -14.1667  -46.0220 N.am      2 UNK        -0.5000 
     65 C          -4.2774  -15.1840  -46.8227 C.2       1 UNK         0.5000 
     66 O          -4.8817  -16.1876  -46.4365 O.2       1 UNK        -0.5000 
     67 C          -1.1851  -23.1618  -46.0745 C.2       11 UNK         0.5000 
     68 O          -1.2017  -22.3814  -45.1222 O.2       11 UNK        -0.5000 
     69 N          -2.2868  -23.7629  -46.5409 N.am      12 UNK        -0.5000 
     70 CA         -3.6320  -23.6140  -45.9727 C.3       12 UNK         0.1400 
     71 CB         -4.3766  -24.9534  -46.1208 C.3       12 UNK        -0.1800 
     72 C          -4.4172  -22.4461  -46.6078 C.2       12 UNK         0.5000 
     73 O          -5.6383  -22.5341  -46.7493 O.2       12 UNK        -0.5000 
     74 N          -3.7143  -21.3748  -47.0010 N.am      13 UNK        -0.5000 
     75 CA         -4.2206  -20.2630  -47.8143 C.3       13 UNK         0.1400 
     76 CB         -3.0810  -19.2796  -48.0865 C.3       13 UNK        -0.1800 
     77 C          -5.4309  -19.5016  -47.2481 C.2       13 UNK         0.5000 
     78 O          -6.1798  -18.9060  -48.0224 O.2       13 UNK        -0.5000 
     79 N          -5.6182  -19.5561  -45.9244 N.am      14 UNK        -0.5000 
     80 CA         -6.7608  -18.9683  -45.2274 C.3       14 UNK         0.1400 
     81 CB         -6.4607  -18.9471  -43.7206 C.3       14 UNK        -0.1800 
     82 C          -8.0967  -19.6886  -45.5135 C.2       14 UNK         0.5000 
     83 O          -9.1507  -19.0909  -45.2915 O.2       14 UNK        -0.5000 
     84 N          -8.0387  -20.9421  -45.9885 N.am      15 UNK        -0.5000 
     85 CA         -9.2034  -21.7696  -46.3068 C.3       15 UNK         0.1400 
     86 CB         -9.2673  -22.9452  -45.3182 C.3       15 UNK        -0.1800 
     87 C          -9.1662  -22.2875  -47.7542 C.2       15 UNK         0.5000 
     88 O         -10.1979  -22.2768  -48.4262 O.2       15 UNK        -0.5000 
     89 N          -7.9917  -22.7409  -48.2103 N.am      16 UNK        -0.5000 
     90 CA         -7.7952  -23.4020  -49.5031 C.3       16 UNK         0.1400 
     91 CB         -6.7017  -24.4704  -49.3330 C.3       16 UNK        -0.1800 
     92 C          -7.4150  -22.4347  -50.6398 C.2       16 UNK         0.5000 
     93 O          -7.2589  -22.8836  -51.7766 O.2       16 UNK        -0.5000 
     94 N          -7.2231  -21.1466  -50.3196 N.am      17 UNK        -0.5000 
     95 CA         -6.7046  -20.0593  -51.1611 C.3       17 UNK         0.1400 
     96 CB         -7.5549  -19.8268  -52.4248 C.3       17 UNK        -0.1800 
     97 C          -5.2094  -20.2229  -51.4892 C.2       17 UNK         0.5000 
     98 O          -4.4208  -19.3405  -51.1574 O.2       17 UNK        -0.5000 
     99 N          -4.8499  -21.3674  -52.0870 N.am      18 UNK        -0.5000 
    100 CA        -3.5043  -21.9317  -52.2619 C.3       18 UNK         0.1400 
    101 CB        -2.9493  -22.3638  -50.8894 C.3       18 UNK        -0.1800 
    102 C         -2.4849  -21.0689  -53.0409 C.2       18 UNK         0.5000 
    103 O         -1.3078  -21.4268  -53.0832 O.2       18 UNK        -0.5000 
    104 N         -2.9359  -19.9734  -53.6671 N.am      19 UNK        -0.5000 
    105 CA        -2.1074  -18.9424  -54.3020 C.3       19 UNK         0.1400 
    106 CB        -3.0165  -17.8022  -54.7829 C.3       19 UNK        -0.1800 
    107 C         -1.2012  -19.4388  -55.4455 C.2       19 UNK         0.5000 
    108 O         -0.1798  -18.8099  -55.7212 O.2       19 UNK        -0.5000 
    109 N         -1.5544  -20.5762  -56.0600 N.am      20 UNK        -0.5000 
    110 CA        -0.7514  -21.2738  -57.0671 C.3       20 UNK         0.1400 
    111 CB        -1.5589  -22.4597  -57.6154 C.3       20 UNK        -0.1800 
    112 C          0.6204  -21.7511  -56.5446 C.2       20 UNK         0.5000 
    113 O          1.5655  -21.8427  -57.3292 O.2       20 UNK        -0.5000 
    114 N          0.7239  -22.0100  -55.2319 N.am      21 UNK        -0.5000 
    115 CA         1.9664  -22.3935  -54.5568 C.3       21 UNK         0.1400 
    116 CB         1.6237  -23.0258  -53.2000 C.3       21 UNK        -0.1800 
    117 C          2.9575  -21.2233  -54.3815 C.2       21 UNK         0.5000 
    118 O          4.1237  -21.4684  -54.0706 O.2       21 UNK        -0.5000 
    119 N          2.4940  -19.9834  -54.5901 N.am      22 UNK        -0.5000 
    120 CA         3.3124  -18.7612  -54.5739 C.3       22 UNK         0.1400 
    121 C          4.2267  -18.5854  -55.8252 C.2       22 UNK         0.5000 
    122 N          4.0504  -19.3542  -56.8946 N.am      22 UNK        -0.7600 
    123 O          5.1226  -17.7461  -55.8241 O.2       22 UNK        -0.5000 
    124 C124        2.4211  -17.5140  -54.3304 C.3       23 UNK        -0.0398 
    125 S125        3.2167  -16.1986  -53.3408 S.3       23 UNK        -0.2404 
    126 C126        3.1840  -16.8636  -51.6371 C.3       23 UNK        -0.0205 
    127 H127       -6.0641  -16.9734  -51.5379 H         1 UNK         0.0600 
    128 H128       -7.3143  -15.7524  -51.2728 H         1 UNK         0.0600 
    129 H129       -6.9813  -16.9447  -50.0190 H         1 UNK         0.0600 
    130 H130       -5.1443  -16.6875  -48.6479 H         1 UNK         0.3000 
    131 H131       -3.9891  -13.9848  -48.5527 H         1 UNK         0.0600 
    132 H132       -1.7598  -15.0264  -47.8249 H         1 UNK         0.0800 
    133 H133       -2.3011  -16.5582  -48.4400 H         1 UNK         0.0800 
    134 H134       -1.9803  -16.2635  -52.2047 H         1 UNK         0.0800 
    135 H135       -2.7236  -17.1017  -50.8687 H         1 UNK         0.0800 
    136 H136        0.7122  -15.6971  -51.6160 H         1 UNK         0.1150 
    137 H137        2.6952  -19.4061  -50.8035 H         1 UNK         0.1150 
    138 H138       -1.5628  -19.1338  -50.4488 H         1 UNK         0.1150 
    139 H139       -0.2862  -21.3792  -50.6602 H         1 UNK         0.0800 
    140 H140        1.4408  -21.3828  -50.4089 H         1 UNK         0.0800 
    141 H141        1.1064  -23.3046  -48.7220 H         1 UNK         0.0800 
    142 H142       -0.6276  -23.2668  -48.8307 H         1 UNK         0.0800 
    143 H143        0.1701  -24.5744  -46.8668 H         1 UNK         0.0600 
    144 H144        1.1158  -22.1741  -45.4649 H         1 UNK         0.3000 
    145 H145        2.9799  -22.9722  -43.8986 H         1 UNK         0.0600 
    146 H146        5.4387  -23.3631  -44.0321 H         1 UNK         0.0600 
    147 H147        4.5337  -24.8458  -44.2932 H         1 UNK         0.0600 
    148 H148        5.2615  -24.0162  -45.6602 H         1 UNK         0.0600 
    149 H149        3.3550  -20.9573  -44.6834 H         1 UNK         0.3000 
    150 H150        5.3962  -19.5138  -47.0479 H         1 UNK         0.0600 
    151 H151        3.3949  -19.7993  -48.5521 H         1 UNK         0.0600 
    152 H152        3.5090  -18.1772  -47.8829 H         1 UNK         0.0600 
    153 H153        2.3476  -19.3234  -47.2211 H         1 UNK         0.0600 
    154 H154        3.3855  -18.4686  -45.2519 H         1 UNK         0.3000 
    155 H155        5.5404  -18.3676  -42.3796 H         1 UNK         0.0600 
    156 H156        5.9432  -16.2951  -43.7072 H         1 UNK         0.0600 
    157 H157        4.7455  -16.0245  -42.4504 H         1 UNK         0.0600 
    158 H158        4.2370  -16.2150  -44.1268 H         1 UNK         0.0600 
    159 H159        2.7986  -17.6720  -42.6965 H         1 UNK         0.3000 
    160 H160        1.4458  -20.8715  -41.7746 H         1 UNK         0.0600 
    161 H161        1.5436  -18.1587  -40.3522 H         1 UNK         0.0600 
    162 H162        2.0863  -19.6841  -39.6613 H         1 UNK         0.0600 
    163 H163        0.3888  -19.4555  -40.0520 H         1 UNK         0.0600 
    164 H164        0.1432  -18.4317  -42.3809 H         1 UNK         0.3000 
    165 H165       -0.2238  -18.9784  -45.9276 H         1 UNK         0.0600 
    166 H166       -2.0325  -19.0183  -43.4530 H         1 UNK         0.0600 
    167 H167       -2.5425  -18.3112  -44.9775 H         1 UNK         0.0600 
    168 H168       -2.1501  -20.0179  -44.8863 H         1 UNK         0.0600 
    169 H169       -0.9403  -16.7367  -44.4012 H         1 UNK         0.3000 
    170 H170        2.1118  -14.8937  -44.5017 H         1 UNK         0.0600 
    171 H171        0.9108  -14.4964  -46.6691 H         1 UNK         0.0600 
    172 H172       -0.6258  -14.4801  -45.8134 H         1 UNK         0.0600 
    173 H173        0.5790  -13.2381  -45.4880 H         1 UNK         0.0600 
    174 H174       -0.5357  -14.5091  -43.3813 H         1 UNK         0.3000 
    175 H175        0.2873  -15.6459  -40.1001 H         1 UNK         0.0600 
    176 H176        1.1399  -13.3014  -40.2459 H         1 UNK         0.0600 
    177 H177       -0.2446  -12.8450  -41.2315 H         1 UNK         0.0600 
    178 H178       -0.4755  -13.3528  -39.5583 H         1 UNK         0.0600 
    179 H179       -2.0831  -14.5080  -41.2566 H         1 UNK         0.3000 
    180 H180       -3.5454  -17.5693  -42.3300 H         1 UNK         0.0600 
    181 H181       -3.9561  -17.5601  -39.8621 H         1 UNK         0.0600 
    182 H182       -4.2681  -15.8291  -39.9179 H         1 UNK         0.0600 
    183 H183       -5.3383  -16.9528  -40.7582 H         1 UNK         0.0600 
    184 H184       -4.7728  -15.0943  -42.2891 H         1 UNK         0.3000 
    185 H185       -5.2496  -14.2327  -44.4131 H         1 UNK         0.0600 
    186 H186       -3.9469  -12.6185  -42.9984 H         1 UNK         0.0600 
    187 H187       -2.6835  -12.5488  -44.2209 H         1 UNK         0.0600 
    188 H188       -4.2962  -11.9275  -44.5730 H         1 UNK         0.0600 
    189 H189       -3.4248  -13.3870  -46.4143 H         1 UNK         0.3000 
    190 H190       -2.2123  -24.3802  -47.3367 H         1 UNK         0.3000 
    191 H191       -3.5562  -23.3971  -44.9053 H         1 UNK         0.0600 
    192 H192       -4.5200  -25.2210  -47.1682 H         1 UNK         0.0600 
    193 H193       -5.3616  -24.9133  -45.6536 H         1 UNK         0.0600 
    194 H194       -3.8278  -25.7636  -45.6404 H         1 UNK         0.0600 
    195 H195       -2.7219  -21.3757  -46.8129 H         1 UNK         0.3000 
    196 H196       -4.5337  -20.6997  -48.7620 H         1 UNK         0.0600 
    197 H197       -3.3773  -18.5532  -48.8426 H         1 UNK         0.0600 
    198 H198       -2.2018  -19.7971  -48.4559 H         1 UNK         0.0600 
    199 H199       -2.7936  -18.7253  -47.1954 H         1 UNK         0.0600 
    200 H200       -4.9556  -20.0714  -45.3654 H         1 UNK         0.3000 
    201 H201       -6.8701  -17.9359  -45.5661 H         1 UNK         0.0600 
    202 H202       -7.2805  -18.4910  -43.1642 H         1 UNK         0.0600 
    203 H203       -6.3132  -19.9526  -43.3248 H         1 UNK         0.0600 
    204 H204       -5.5639  -18.3649  -43.5087 H         1 UNK         0.0600 
    205 H205       -7.1282  -21.3580  -46.1526 H         1 UNK         0.3000 
    206 H206      -10.1244  -21.1926  -46.2018 H         1 UNK         0.0600 
    207 H207       -9.3800  -22.5901  -44.2938 H         1 UNK         0.0600 
    208 H208      -10.1182  -23.5929  -45.5334 H         1 UNK         0.0600 
    209 H209       -8.3661  -23.5584  -45.3621 H         1 UNK         0.0600 
    210 H210       -7.1745  -22.7136  -47.6031 H         1 UNK         0.3000 
    211 H211       -8.7170  -23.9070  -49.7992 H         1 UNK         0.0600 
    212 H212       -6.5809  -25.0585  -50.2436 H         1 UNK         0.0600 
    213 H213       -6.9486  -25.1652  -48.5300 H         1 UNK         0.0600 
    214 H214       -5.7347  -24.0222  -49.1031 H         1 UNK         0.0600 
    215 H215       -7.3697  -20.8957  -49.3517 H         1 UNK         0.3000 
    216 H216       -6.7940  -19.1636  -50.5504 H         1 UNK         0.0600 
    217 H217       -7.2173  -18.9372  -52.9578 H         1 UNK         0.0600 
    218 H218       -8.6032  -19.6727  -52.1689 H         1 UNK         0.0600 
    219 H219       -7.5001  -20.6611  -53.1240 H         1 UNK         0.0600 
    220 H220       -5.6117  -22.0072  -52.2971 H         1 UNK         0.3000 
    221 H221       -3.6403  -22.8348  -52.8581 H         1 UNK         0.0600 
    222 H222       -2.7018  -21.5033  -50.2678 H         1 UNK         0.0600 
    223 H223       -3.6693  -22.9739  -50.3439 H         1 UNK         0.0600 
    224 H224       -2.0448  -22.9617  -51.0032 H         1 UNK         0.0600 
    225 H225       -3.9155  -19.7563  -53.5610 H         1 UNK         0.3000 
    226 H226       -1.4450  -18.5452  -53.5311 H         1 UNK         0.0600 
    227 H227       -2.4307  -16.9927  -55.2206 H         1 UNK         0.0600 
    228 H228       -3.7230  -18.1447  -55.5398 H         1 UNK         0.0600 
    229 H229       -3.5876  -17.3780  -53.9566 H         1 UNK         0.0600 
    230 H230       -2.4045  -21.0304  -55.7612 H         1 UNK         0.3000 
    231 H231       -0.5652  -20.5762  -57.8862 H         1 UNK         0.0600 
    232 H232       -2.4956  -22.1269  -58.0630 H         1 UNK         0.0600 
    233 H233       -1.7971  -23.1803  -56.8319 H         1 UNK         0.0600 
    234 H234       -1.0005  -22.9883  -58.3891 H         1 UNK         0.0600 
    235 H235       -0.0851  -21.8721  -54.6332 H         1 UNK         0.3000 
    236 H236        2.4662  -23.1515  -55.1635 H         1 UNK         0.0600 
    237 H237        0.9677  -23.8881  -53.3192 H         1 UNK         0.0600 
    238 H238        2.5227  -23.3678  -52.6859 H         1 UNK         0.0600 
    239 H239        1.1233  -22.3128  -52.5476 H         1 UNK         0.0600 
    240 H240        1.5284  -19.8637  -54.8696 H         1 UNK         0.3000 
    241 H241        3.9889  -18.8603  -53.7233 H         1 UNK         0.0600 
    242 H242        3.3236  -20.0542  -56.9153 H         1 UNK         0.3800 
    243 H243        4.6524  -19.2351  -57.6942 H         1 UNK         0.3800 
    244 H244        2.0915  -17.0815  -55.2769 H         1 UNK         0.0800 
    245 H245        1.4958  -17.7961  -53.8289 H         1 UNK         0.0800 
    246 H246        3.4166  -16.0575  -50.9402 H         1 UNK         0.0800 
    247 H247        3.9885  -17.5935  -51.5358 H         1 UNK         0.0800 
@<TRIPOS>BOND
     1    1    2 1    
     2    1  127 1    
     3    1  128 1    
     4    1  129 1    
     5    2    3 2    
     6    2    4 am   BACKBONE|DICT|INTERRES
     7    4    5 1    
     8    4  130 1    
     9    5    6 1    
    10    5   65 1    
    11    5  131 1    
    12    6    7 1    
    13    6  132 1    
    14    6  133 1    
    15    7    8 1    
    16    8    9 1    
    17    8  134 1    
    18    8  135 1    
    19    9   10 ar   
    20    9   14 ar   
    21   10   11 ar   
    22   10  136 1    
    23   11   12 ar   
    24   11  126 1    
    25   12   13 ar   
    26   12  137 1    
    27   13   14 ar   
    28   13   15 1    
    29   14  138 1    
    30   15   16 1    
    31   15  139 1    
    32   15  140 1    
    33   16   17 1    
    34   17   18 1    
    35   17  141 1    
    36   17  142 1    
    37   18   19 1    
    38   18   67 1    
    39   18  143 1    
    40   19   20 am   BACKBONE|DICT|INTERRES
    41   19  144 1    
    42   20   21 2    
    43   20   22 1    
    44   22   23 1    
    45   22   24 1    
    46   22  145 1    
    47   23  146 1    
    48   23  147 1    
    49   23  148 1    
    50   24   25 am   BACKBONE|DICT|INTERRES
    51   24  149 1    
    52   25   26 2    
    53   25   27 1    
    54   27   28 1    
    55   27   29 1    
    56   27  150 1    
    57   28  151 1    
    58   28  152 1    
    59   28  153 1    
    60   29   30 am   BACKBONE|DICT|INTERRES
    61   29  154 1    
    62   30   31 2    
    63   30   32 1    
    64   32   33 1    
    65   32   34 1    
    66   32  155 1    
    67   33  156 1    
    68   33  157 1    
    69   33  158 1    
    70   34   35 am   BACKBONE|DICT|INTERRES
    71   34  159 1    
    72   35   36 2    
    73   35   37 1    
    74   37   38 1    
    75   37   39 1    
    76   37  160 1    
    77   38  161 1    
    78   38  162 1    
    79   38  163 1    
    80   39   40 am   BACKBONE|DICT|INTERRES
    81   39  164 1    
    82   40   41 2    
    83   40   42 1    
    84   42   43 1    
    85   42   44 1    
    86   42  165 1    
    87   43  166 1    
    88   43  167 1    
    89   43  168 1    
    90   44   45 am   BACKBONE|DICT|INTERRES
    91   44  169 1    
    92   45   46 2    
    93   45   47 1    
    94   47   48 1    
    95   47   49 1    
    96   47  170 1    
    97   48  171 1    
    98   48  172 1    
    99   48  173 1    
   100   49   50 am   BACKBONE|DICT|INTERRES
   101   49  174 1    
   102   50   51 2    
   103   50   52 1    
   104   52   53 1    
   105   52   54 1    
   106   52  175 1    
   107   53  176 1    
   108   53  177 1    
   109   53  178 1    
   110   54   55 am   BACKBONE|DICT|INTERRES
   111   54  179 1    
   112   55   56 2    
   113   55   57 1    
   114   57   58 1    
   115   57   59 1    
   116   57  180 1    
   117   58  181 1    
   118   58  182 1    
   119   58  183 1    
   120   59   60 am   BACKBONE|DICT|INTERRES
   121   59  184 1    
   122   60   61 2    
   123   60   62 1    
   124   62   63 1    
   125   62   64 1    
   126   62  185 1    
   127   63  186 1    
   128   63  187 1    
   129   63  188 1    
   130   64   65 am   BACKBONE|DICT|INTERRES
   131   64  189 1    
   132   65   66 2    
   133   67   68 2    
   134   67   69 am   BACKBONE|DICT|INTERRES
   135   69   70 1    
   136   69  190 1    
   137   70   71 1    
   138   70   72 1    
   139   70  191 1    
   140   71  192 1    
   141   71  193 1    
   142   71  194 1    
   143   72   73 2    
   144   72   74 am   BACKBONE|DICT|INTERRES
   145   74   75 1    
   146   74  195 1    
   147   75   76 1    
   148   75   77 1    
   149   75  196 1    
   150   76  197 1    
   151   76  198 1    
   152   76  199 1    
   153   77   78 2    
   154   77   79 am   BACKBONE|DICT|INTERRES
   155   79   80 1    
   156   79  200 1    
   157   80   81 1    
   158   80   82 1    
   159   80  201 1    
   160   81  202 1    
   161   81  203 1    
   162   81  204 1    
   163   82   83 2    
   164   82   84 am   BACKBONE|DICT|INTERRES
   165   84   85 1    
   166   84  205 1    
   167   85   86 1    
   168   85   87 1    
   169   85  206 1    
   170   86  207 1    
   171   86  208 1    
   172   86  209 1    
   173   87   88 2    
   174   87   89 am   BACKBONE|DICT|INTERRES
   175   89   90 1    
   176   89  210 1    
   177   90   91 1    
   178   90   92 1    
   179   90  211 1    
   180   91  212 1    
   181   91  213 1    
   182   91  214 1    
   183   92   93 2    
   184   92   94 am   BACKBONE|DICT|INTERRES
   185   94   95 1    
   186   94  215 1    
   187   95   96 1    
   188   95   97 1    
   189   95  216 1    
   190   96  217 1    
   191   96  218 1    
   192   96  219 1    
   193   97   98 2    
   194   97   99 am   BACKBONE|DICT|INTERRES
   195   99  100 1    
   196   99  220 1    
   197  100  101 1    
   198  100  102 1    
   199  100  221 1    
   200  101  222 1    
   201  101  223 1    
   202  101  224 1    
   203  102  103 2    
   204  102  104 am   BACKBONE|DICT|INTERRES
   205  104  105 1    
   206  104  225 1    
   207  105  106 1    
   208  105  107 1    
   209  105  226 1    
   210  106  227 1    
   211  106  228 1    
   212  106  229 1    
   213  107  108 2    
   214  107  109 am   BACKBONE|DICT|INTERRES
   215  109  110 1    
   216  109  230 1    
   217  110  111 1    
   218  110  112 1    
   219  110  231 1    
   220  111  232 1    
   221  111  233 1    
   222  111  234 1    
   223  112  113 2    
   224  112  114 am   BACKBONE|DICT|INTERRES
   225  114  115 1    
   226  114  235 1    
   227  115  116 1    
   228  115  117 1    
   229  115  236 1    
   230  116  237 1    
   231  116  238 1    
   232  116  239 1    
   233  117  118 2    
   234  117  119 am   BACKBONE|DICT|INTERRES
   235  119  120 1    
   236  119  240 1    
   237  120  121 1    
   238  120  124 1    
   239  120  241 1    
   240  121  122 am   BACKBONE|DICT|INTERRES
   241  121  123 2    
   242  122  242 1    
   243  122  243 1    
   244  124  125 1    
   245  124  244 1    
   246  124  245 1    
   247  125  126 1    
   248  126  246 1    
   249  126  247 1    
@<TRIPOS>SUBSTRUCTURE
     1 UNK         1 GROUP             0       ****    0 ROOT    
