@<TRIPOS>MOLECULE
3R540
247   249    1
SMALL
USER_CHARGES


@<TRIPOS>ATOM
      1 CA          6.6568  -11.9621  -45.4990 C.3       0 UNK        -0.1800 
      2 C           5.4280  -12.8517  -45.6162 C.2       0 UNK         0.5000 
      3 O           4.9444  -13.3580  -44.6045 O.2       0 UNK        -0.5000 
      4 N           4.9327  -13.0488  -46.8455 N.am      1 UNK        -0.5000 
      5 CA          3.7425  -13.8419  -47.1701 C.3       1 UNK         0.1400 
      6 C6          3.5832  -14.0456  -48.6973 C.3       23 UNK        -0.0398 
      7 S7          4.8664  -15.1516  -49.3688 S.3       23 UNK        -0.2404 
      8 C8          4.1252  -15.6473  -50.9585 C.3       23 UNK        -0.0205 
      9 C9          2.9048  -16.5399  -50.7781 C.ar      23 UNK        -0.0193 
     10 C10         1.6254  -16.0588  -51.0662 C.ar      23 UNK        -0.1150 
     11 C11         0.5041  -16.8769  -50.9017 C.ar      23 UNK        -0.0193 
     12 C12         0.6701  -18.1898  -50.4487 C.ar      23 UNK        -0.1150 
     13 C13         1.9469  -18.6845  -50.1487 C.ar      23 UNK        -0.0193 
     14 C14         3.0563  -17.8510  -50.3217 C.ar      23 UNK        -0.1150 
     15 C15         2.1670  -20.0833  -49.5781 C.3       23 UNK        -0.0205 
     16 S16         1.1256  -21.3868  -50.3045 S.3       23 UNK        -0.2404 
     17 C17        -0.2802  -21.4137  -49.1418 C.3       23 UNK        -0.0398 
     18 CA         -0.1206  -22.5026  -48.0515 C.3       11 UNK         0.1400 
     19 N           0.8912  -22.1656  -47.0474 N.am      11 UNK        -0.5000 
     20 C           2.0354  -22.8444  -46.8846 C.2       10 UNK         0.5000 
     21 O           2.3197  -23.8689  -47.5066 O.2       10 UNK        -0.5000 
     22 CA          3.0585  -22.2930  -45.8763 C.3       10 UNK         0.1400 
     23 CB          4.0322  -21.3206  -46.5602 C.3       10 UNK        -0.1800 
     24 N           2.4612  -21.6418  -44.7119 N.am      10 UNK        -0.5000 
     25 C           1.9072  -22.3075  -43.6894 C.2       9 UNK         0.5000 
     26 O           1.7508  -23.5285  -43.6714 O.2       9 UNK        -0.5000 
     27 CA          1.4781  -21.4714  -42.4718 C.3       9 UNK         0.1400 
     28 CB          2.6971  -21.0852  -41.6196 C.3       9 UNK        -0.1800 
     29 N           0.7604  -20.2607  -42.8576 N.am      9 UNK        -0.5000 
     30 C          -0.5068  -20.2437  -43.2883 C.2       8 UNK         0.5000 
     31 O          -1.2105  -21.2467  -43.3944 O.2       8 UNK        -0.5000 
     32 CA         -1.0586  -18.8750  -43.7185 C.3       8 UNK         0.1400 
     33 CB         -1.5164  -18.0520  -42.5067 C.3       8 UNK        -0.1800 
     34 N          -0.0850  -18.1254  -44.5061 N.am      8 UNK        -0.5000 
     35 C           0.3065  -18.4929  -45.7347 C.2       7 UNK         0.5000 
     36 O          -0.1317  -19.4857  -46.3210 O.2       7 UNK        -0.5000 
     37 CA          1.3897  -17.6354  -46.4119 C.3       7 UNK         0.1400 
     38 CB          0.7415  -16.5750  -47.3059 C.3       7 UNK        -0.1800 
     39 N           2.3019  -16.9864  -45.4697 N.am      7 UNK        -0.5000 
     40 C           3.1364  -17.6434  -44.6509 C.2       6 UNK         0.5000 
     41 O           3.2359  -18.8698  -44.6195 O.2       6 UNK        -0.5000 
     42 CA          3.9540  -16.7987  -43.6576 C.3       6 UNK         0.1400 
     43 CB          5.3509  -16.5094  -44.2247 C.3       6 UNK        -0.1800 
     44 N           3.2944  -15.5471  -43.2639 N.am      6 UNK        -0.5000 
     45 C           2.1260  -15.5003  -42.6038 C.2       5 UNK         0.5000 
     46 O           1.4785  -16.5118  -42.3278 O.2       5 UNK        -0.5000 
     47 CA          1.5717  -14.1305  -42.1723 C.3       5 UNK         0.1400 
     48 CB          2.5156  -12.9422  -42.4254 C.3       5 UNK        -0.1800 
     49 N           0.2837  -13.8916  -42.8268 N.am      5 UNK        -0.5000 
     50 C          -0.9064  -14.1699  -42.2734 C.2       4 UNK         0.5000 
     51 O          -1.0352  -14.6266  -41.1365 O.2       4 UNK        -0.5000 
     52 CA         -2.1798  -13.8745  -43.0897 C.3       4 UNK         0.1400 
     53 CB         -2.9664  -12.7195  -42.4479 C.3       4 UNK        -0.1800 
     54 N          -1.9147  -13.5201  -44.4823 N.am      4 UNK        -0.5000 
     55 C          -1.9961  -14.3448  -45.5309 C.2       3 UNK         0.5000 
     56 O          -2.2336  -15.5482  -45.4343 O.2       3 UNK        -0.5000 
     57 CA         -1.7747  -13.7257  -46.9295 C.3       3 UNK         0.1400 
     58 CB         -3.0461  -13.0170  -47.4331 C.3       3 UNK        -0.1800 
     59 N          -0.5944  -12.8536  -47.0259 N.am      3 UNK        -0.5000 
     60 C          -0.3433  -11.6927  -46.4033 C.2       2 UNK         0.5000 
     61 O          -1.1716  -11.1077  -45.7031 O.2       2 UNK        -0.5000 
     62 CA          1.0766  -11.0962  -46.5465 C.3       2 UNK         0.1400 
     63 CB          1.5337  -10.4200  -45.2394 C.3       2 UNK        -0.1800 
     64 N           2.1288  -12.0101  -47.0216 N.am      2 UNK        -0.5000 
     65 C           2.4767  -13.2191  -46.5499 C.2       1 UNK         0.5000 
     66 O           1.8626  -13.8372  -45.6783 O.2       1 UNK        -0.5000 
     67 C          -1.4630  -22.8103  -47.3771 C.2       11 UNK         0.5000 
     68 O          -1.9427  -23.9353  -47.5133 O.2       11 UNK        -0.5000 
     69 N          -2.0639  -21.8256  -46.6882 N.am      12 UNK        -0.5000 
     70 CA         -3.4680  -21.8886  -46.2488 C.3       12 UNK         0.1400 
     71 CB         -3.9050  -20.5525  -45.6345 C.3       12 UNK        -0.1800 
     72 C          -3.7994  -23.0563  -45.2993 C.2       12 UNK         0.5000 
     73 O          -4.8994  -23.6037  -45.3756 O.2       12 UNK        -0.5000 
     74 N          -2.8336  -23.4349  -44.4532 N.am      13 UNK        -0.5000 
     75 CA         -2.9045  -24.5900  -43.5588 C.3       13 UNK         0.1400 
     76 CB         -1.7197  -24.5376  -42.5823 C.3       13 UNK        -0.1800 
     77 C          -2.9348  -25.9456  -44.2951 C.2       13 UNK         0.5000 
     78 O          -3.4750  -26.9085  -43.7487 O.2       13 UNK        -0.5000 
     79 N          -2.3639  -26.0056  -45.5068 N.am      14 UNK        -0.5000 
     80 CA         -2.3942  -27.1817  -46.3747 C.3       14 UNK         0.1400 
     81 CB         -1.1261  -27.2249  -47.2434 C.3       14 UNK        -0.1800 
     82 C          -3.6649  -27.1842  -47.2401 C.2       14 UNK         0.5000 
     83 O          -4.3616  -28.1990  -47.2887 O.2       14 UNK        -0.5000 
     84 N          -3.9610  -26.0462  -47.8798 N.am      15 UNK        -0.5000 
     85 CA         -5.1643  -25.8166  -48.6717 C.3       15 UNK         0.1400 
     86 CB         -5.0353  -26.4735  -50.0567 C.3       15 UNK        -0.1800 
     87 C          -5.3763  -24.3054  -48.8013 C.2       15 UNK         0.5000 
     88 O          -4.4364  -23.5983  -49.1716 O.2       15 UNK        -0.5000 
     89 N          -6.6003  -23.8437  -48.5103 N.am      16 UNK        -0.5000 
     90 CA         -7.0131  -22.4374  -48.4533 C.3       16 UNK         0.1400 
     91 CB         -8.5346  -22.3688  -48.2524 C.3       16 UNK        -0.1800 
     92 C          -6.5939  -21.6234  -49.6914 C.2       16 UNK         0.5000 
     93 O          -6.9843  -21.9705  -50.8082 O.2       16 UNK        -0.5000 
     94 N          -5.7699  -20.5898  -49.4640 N.am      17 UNK        -0.5000 
     95 CA         -5.1688  -19.7046  -50.4685 C.3       17 UNK         0.1400 
     96 CB         -6.2323  -18.7493  -51.0478 C.3       17 UNK        -0.1800 
     97 C          -4.3800  -20.4616  -51.5592 C.2       17 UNK         0.5000 
     98 O          -4.4656  -20.1050  -52.7336 O.2       17 UNK        -0.5000 
     99 N          -3.6470  -21.5091  -51.1513 N.am      18 UNK        -0.5000 
    100 CA        -2.8692  -22.4189  -52.0026 C.3       18 UNK         0.1400 
    101 CB        -1.7539  -21.6568  -52.7535 C.3       18 UNK        -0.1800 
    102 C         -3.7756  -23.2334  -52.9477 C.2       18 UNK         0.5000 
    103 O         -3.4679  -23.3744  -54.1310 O.2       18 UNK        -0.5000 
    104 N         -4.9069  -23.7131  -52.4097 N.am      19 UNK        -0.5000 
    105 CA        -6.0220  -24.3438  -53.1290 C.3       19 UNK         0.1400 
    106 CB        -5.6002  -25.6952  -53.7451 C.3       19 UNK        -0.1800 
    107 C         -6.6436  -23.3741  -54.1571 C.2       19 UNK         0.5000 
    108 O         -6.8429  -23.7310  -55.3191 O.2       19 UNK        -0.5000 
    109 N         -6.8883  -22.1406  -53.6948 N.am      20 UNK        -0.5000 
    110 CA        -7.3947  -20.9684  -54.4157 C.3       20 UNK         0.1400 
    111 CB        -8.7937  -21.2413  -55.0042 C.3       20 UNK        -0.1800 
    112 C         -6.4381  -20.3656  -55.4687 C.2       20 UNK         0.5000 
    113 O         -6.7859  -19.3404  -56.0576 O.2       20 UNK        -0.5000 
    114 N         -5.2494  -20.9511  -55.6808 N.am      21 UNK        -0.5000 
    115 CA        -4.2606  -20.4896  -56.6621 C.3       21 UNK         0.1400 
    116 CB        -3.1521  -21.5408  -56.8134 C.3       21 UNK        -0.1800 
    117 C         -3.6550  -19.1100  -56.3354 C.2       21 UNK         0.5000 
    118 O         -3.2780  -18.3849  -57.2571 O.2       21 UNK        -0.5000 
    119 N         -3.5969  -18.7641  -55.0440 N.am      22 UNK        -0.5000 
    120 CA        -3.2185  -17.4389  -54.5338 C.3       22 UNK         0.1400 
    121 C         -4.4250  -16.4522  -54.4271 C.2       22 UNK         0.5000 
    122 N         -5.6388  -16.8217  -54.8228 N.am      22 UNK        -0.7600 
    123 O         -4.2631  -15.3157  -53.9930 O.2       22 UNK        -0.5000 
    124 C124       -2.4257  -17.5685  -53.2024 C.3       23 UNK        -0.0398 
    125 S125       -1.2239  -16.2156  -52.9628 S.3       23 UNK        -0.2404 
    126 C126       -0.8835  -16.3173  -51.1772 C.3       23 UNK        -0.0205 
    127 H127        7.4802  -12.5189  -45.0518 H         1 UNK         0.0600 
    128 H128        6.4380  -11.1047  -44.8626 H         1 UNK         0.0600 
    129 H129        6.9841  -11.5910  -46.4704 H         1 UNK         0.0600 
    130 H130        5.3990  -12.6211  -47.6325 H         1 UNK         0.3000 
    131 H131        3.8645  -14.8250  -46.7119 H         1 UNK         0.0600 
    132 H132        2.6062  -14.4660  -48.9307 H         1 UNK         0.0800 
    133 H133        3.6346  -13.0947  -49.2300 H         1 UNK         0.0800 
    134 H134        3.8739  -14.7548  -51.5338 H         1 UNK         0.0800 
    135 H135        4.8738  -16.1844  -51.5425 H         1 UNK         0.0800 
    136 H136        1.4974  -15.0436  -51.4151 H         1 UNK         0.1150 
    137 H137       -0.2002  -18.8137  -50.3147 H         1 UNK         0.1150 
    138 H138        4.0463  -18.2149  -50.0846 H         1 UNK         0.1150 
    139 H139        3.2067  -20.3834  -49.7170 H         1 UNK         0.0800 
    140 H140        2.0010  -20.0504  -48.5041 H         1 UNK         0.0800 
    141 H141       -1.1729  -21.6020  -49.7374 H         1 UNK         0.0800 
    142 H142       -0.4224  -20.4287  -48.6985 H         1 UNK         0.0800 
    143 H143        0.1558  -23.4248  -48.5675 H         1 UNK         0.0600 
    144 H144        0.7165  -21.3338  -46.4949 H         1 UNK         0.3000 
    145 H145        3.6460  -23.1433  -45.5227 H         1 UNK         0.0600 
    146 H146        4.8572  -21.0630  -45.8958 H         1 UNK         0.0600 
    147 H147        4.4644  -21.7605  -47.4599 H         1 UNK         0.0600 
    148 H148        3.5416  -20.3921  -46.8483 H         1 UNK         0.0600 
    149 H149        2.5959  -20.6363  -44.6362 H         1 UNK         0.3000 
    150 H150        0.8172  -22.0876  -41.8578 H         1 UNK         0.0600 
    151 H151        2.3936  -20.5562  -40.7160 H         1 UNK         0.0600 
    152 H152        3.2511  -21.9712  -41.3068 H         1 UNK         0.0600 
    153 H153        3.3871  -20.4423  -42.1679 H         1 UNK         0.0600 
    154 H154        1.2770  -19.3929  -42.8385 H         1 UNK         0.3000 
    155 H155       -1.9271  -19.0345  -44.3538 H         1 UNK         0.0600 
    156 H156       -0.7017  -17.8648  -41.8073 H         1 UNK         0.0600 
    157 H157       -2.3022  -18.5738  -41.9593 H         1 UNK         0.0600 
    158 H158       -1.9215  -17.0897  -42.8177 H         1 UNK         0.0600 
    159 H159        0.3529  -17.3304  -44.0583 H         1 UNK         0.3000 
    160 H160        1.9816  -18.2979  -47.0434 H         1 UNK         0.0600 
    161 H161        0.3050  -15.7741  -46.7133 H         1 UNK         0.0600 
    162 H162       -0.0531  -17.0011  -47.9194 H         1 UNK         0.0600 
    163 H163        1.4742  -16.1413  -47.9815 H         1 UNK         0.0600 
    164 H164        2.2417  -15.9781  -45.3915 H         1 UNK         0.3000 
    165 H165        4.0795  -17.3971  -42.7528 H         1 UNK         0.0600 
    166 H166        5.9465  -15.9162  -43.5306 H         1 UNK         0.0600 
    167 H167        5.8938  -17.4373  -44.4089 H         1 UNK         0.0600 
    168 H168        5.3002  -15.9714  -45.1708 H         1 UNK         0.0600 
    169 H169        3.7630  -14.6840  -43.5236 H         1 UNK         0.3000 
    170 H170        1.4339  -14.1892  -41.0909 H         1 UNK         0.0600 
    171 H171        3.4787  -13.0903  -41.9354 H         1 UNK         0.0600 
    172 H172        2.7038  -12.7880  -43.4846 H         1 UNK         0.0600 
    173 H173        2.0931  -12.0192  -42.0286 H         1 UNK         0.0600 
    174 H174        0.3200  -13.5866  -43.7900 H         1 UNK         0.3000 
    175 H175       -2.8049  -14.7688  -43.0506 H         1 UNK         0.0600 
    176 H176       -2.3912  -11.7927  -42.4493 H         1 UNK         0.0600 
    177 H177       -3.8998  -12.5353  -42.9802 H         1 UNK         0.0600 
    178 H178       -3.2246  -12.9455  -41.4124 H         1 UNK         0.0600 
    179 H179       -1.7111  -12.5427  -44.6782 H         1 UNK         0.3000 
    180 H180       -1.5831  -14.5558  -47.6111 H         1 UNK         0.0600 
    181 H181       -3.3332  -12.1825  -46.7929 H         1 UNK         0.0600 
    182 H182       -3.8892  -13.7084  -47.4604 H         1 UNK         0.0600 
    183 H183       -2.9083  -12.6327  -48.4437 H         1 UNK         0.0600 
    184 H184        0.1783  -13.2500  -47.5395 H         1 UNK         0.3000 
    185 H185        0.9946  -10.3183  -47.3068 H         1 UNK         0.0600 
    186 H186        0.9001   -9.5659  -44.9974 H         1 UNK         0.0600 
    187 H187        1.4835  -11.1071  -44.3967 H         1 UNK         0.0600 
    188 H188        2.5567  -10.0515  -45.3152 H         1 UNK         0.0600 
    189 H189        2.7130  -11.6179  -47.7463 H         1 UNK         0.3000 
    190 H190       -1.5797  -20.9428  -46.5639 H         1 UNK         0.3000 
    191 H191       -4.0600  -22.0318  -47.1522 H         1 UNK         0.0600 
    192 H192       -3.5328  -19.6999  -46.2030 H         1 UNK         0.0600 
    193 H193       -4.9929  -20.4809  -45.6127 H         1 UNK         0.0600 
    194 H194       -3.5658  -20.4597  -44.6038 H         1 UNK         0.0600 
    195 H195       -2.0018  -22.8578  -44.3874 H         1 UNK         0.3000 
    196 H196       -3.8273  -24.5100  -42.9806 H         1 UNK         0.0600 
    197 H197       -1.7481  -25.3755  -41.8847 H         1 UNK         0.0600 
    198 H198       -1.7355  -23.6222  -41.9905 H         1 UNK         0.0600 
    199 H199       -0.7655  -24.5794  -43.1088 H         1 UNK         0.0600 
    200 H200       -2.0086  -25.1524  -45.9238 H         1 UNK         0.3000 
    201 H201       -2.4015  -28.0853  -45.7613 H         1 UNK         0.0600 
    202 H202       -0.2276  -27.2399  -46.6265 H         1 UNK         0.0600 
    203 H203       -1.0559  -26.3683  -47.9136 H         1 UNK         0.0600 
    204 H204       -1.1115  -28.1232  -47.8616 H         1 UNK         0.0600 
    205 H205       -3.3388  -25.2440  -47.7959 H         1 UNK         0.3000 
    206 H206       -6.0187  -26.2503  -48.1478 H         1 UNK         0.0600 
    207 H207       -4.9101  -27.5532  -49.9778 H         1 UNK         0.0600 
    208 H208       -5.9308  -26.2962  -50.6528 H         1 UNK         0.0600 
    209 H209       -4.1827  -26.0779  -50.6102 H         1 UNK         0.0600 
    210 H210       -7.3092  -24.5115  -48.2452 H         1 UNK         0.3000 
    211 H211       -6.5402  -22.0029  -47.5708 H         1 UNK         0.0600 
    212 H212       -9.0702  -22.8434  -49.0758 H         1 UNK         0.0600 
    213 H213       -8.8752  -21.3342  -48.1927 H         1 UNK         0.0600 
    214 H214       -8.8345  -22.8619  -47.3276 H         1 UNK         0.0600 
    215 H215       -5.5053  -20.3940  -48.5097 H         1 UNK         0.3000 
    216 H216       -4.4329  -19.0940  -49.9436 H         1 UNK         0.0600 
    217 H217       -7.0203  -19.2906  -51.5698 H         1 UNK         0.0600 
    218 H218       -6.7012  -18.1616  -50.2588 H         1 UNK         0.0600 
    219 H219       -5.7918  -18.0450  -51.7549 H         1 UNK         0.0600 
    220 H220       -3.7337  -21.8008  -50.1848 H         1 UNK         0.3000 
    221 H221       -2.3933  -23.1370  -51.3332 H         1 UNK         0.0600 
    222 H222       -2.1513  -21.0425  -53.5612 H         1 UNK         0.0600 
    223 H223       -1.1990  -20.9976  -52.0883 H         1 UNK         0.0600 
    224 H224       -1.0405  -22.3519  -53.1968 H         1 UNK         0.0600 
    225 H225       -5.0769  -23.5036  -51.4344 H         1 UNK         0.3000 
    226 H226       -6.7949  -24.5441  -52.3856 H         1 UNK         0.0600 
    227 H227       -5.1413  -26.3471  -53.0030 H         1 UNK         0.0600 
    228 H228       -6.4648  -26.2222  -54.1497 H         1 UNK         0.0600 
    229 H229       -4.8879  -25.5681  -54.5607 H         1 UNK         0.0600 
    230 H230       -6.7116  -21.9815  -52.7057 H         1 UNK         0.3000 
    231 H231       -7.5118  -20.1949  -53.6572 H         1 UNK         0.0600 
    232 H232       -8.7580  -21.9595  -55.8236 H         1 UNK         0.0600 
    233 H233       -9.2381  -20.3257  -55.3961 H         1 UNK         0.0600 
    234 H234       -9.4724  -21.6296  -54.2447 H         1 UNK         0.0600 
    235 H235       -5.0055  -21.7690  -55.1384 H         1 UNK         0.3000 
    236 H236       -4.7717  -20.4020  -57.6231 H         1 UNK         0.0600 
    237 H237       -3.5645  -22.5240  -57.0409 H         1 UNK         0.0600 
    238 H238       -2.4734  -21.2756  -57.6249 H         1 UNK         0.0600 
    239 H239       -2.5545  -21.6279  -55.9062 H         1 UNK         0.0600 
    240 H240       -3.9569  -19.4099  -54.3432 H         1 UNK         0.3000 
    241 H241       -2.5468  -16.9910  -55.2682 H         1 UNK         0.0600 
    242 H242       -6.3968  -16.1620  -54.7521 H         1 UNK         0.3800 
    243 H243       -5.8113  -17.7348  -55.2255 H         1 UNK         0.3800 
    244 H244       -1.8545  -18.4979  -53.1888 H         1 UNK         0.0800 
    245 H245       -3.1075  -17.6228  -52.3525 H         1 UNK         0.0800 
    246 H246       -0.9545  -15.3149  -50.7524 H         1 UNK         0.0800 
    247 H247       -1.6457  -16.9102  -50.6701 H         1 UNK         0.0800 
@<TRIPOS>BOND
     1    1    2 1    
     2    1  127 1    
     3    1  128 1    
     4    1  129 1    
     5    2    3 2    
     6    2    4 am   BACKBONE|DICT|INTERRES
     7    4    5 1    
     8    4  130 1    
     9    5    6 1    
    10    5   65 1    
    11    5  131 1    
    12    6    7 1    
    13    6  132 1    
    14    6  133 1    
    15    7    8 1    
    16    8    9 1    
    17    8  134 1    
    18    8  135 1    
    19    9   10 ar   
    20    9   14 ar   
    21   10   11 ar   
    22   10  136 1    
    23   11   12 ar   
    24   11  126 1    
    25   12   13 ar   
    26   12  137 1    
    27   13   14 ar   
    28   13   15 1    
    29   14  138 1    
    30   15   16 1    
    31   15  139 1    
    32   15  140 1    
    33   16   17 1    
    34   17   18 1    
    35   17  141 1    
    36   17  142 1    
    37   18   19 1    
    38   18   67 1    
    39   18  143 1    
    40   19   20 am   BACKBONE|DICT|INTERRES
    41   19  144 1    
    42   20   21 2    
    43   20   22 1    
    44   22   23 1    
    45   22   24 1    
    46   22  145 1    
    47   23  146 1    
    48   23  147 1    
    49   23  148 1    
    50   24   25 am   BACKBONE|DICT|INTERRES
    51   24  149 1    
    52   25   26 2    
    53   25   27 1    
    54   27   28 1    
    55   27   29 1    
    56   27  150 1    
    57   28  151 1    
    58   28  152 1    
    59   28  153 1    
    60   29   30 am   BACKBONE|DICT|INTERRES
    61   29  154 1    
    62   30   31 2    
    63   30   32 1    
    64   32   33 1    
    65   32   34 1    
    66   32  155 1    
    67   33  156 1    
    68   33  157 1    
    69   33  158 1    
    70   34   35 am   BACKBONE|DICT|INTERRES
    71   34  159 1    
    72   35   36 2    
    73   35   37 1    
    74   37   38 1    
    75   37   39 1    
    76   37  160 1    
    77   38  161 1    
    78   38  162 1    
    79   38  163 1    
    80   39   40 am   BACKBONE|DICT|INTERRES
    81   39  164 1    
    82   40   41 2    
    83   40   42 1    
    84   42   43 1    
    85   42   44 1    
    86   42  165 1    
    87   43  166 1    
    88   43  167 1    
    89   43  168 1    
    90   44   45 am   BACKBONE|DICT|INTERRES
    91   44  169 1    
    92   45   46 2    
    93   45   47 1    
    94   47   48 1    
    95   47   49 1    
    96   47  170 1    
    97   48  171 1    
    98   48  172 1    
    99   48  173 1    
   100   49   50 am   BACKBONE|DICT|INTERRES
   101   49  174 1    
   102   50   51 2    
   103   50   52 1    
   104   52   53 1    
   105   52   54 1    
   106   52  175 1    
   107   53  176 1    
   108   53  177 1    
   109   53  178 1    
   110   54   55 am   BACKBONE|DICT|INTERRES
   111   54  179 1    
   112   55   56 2    
   113   55   57 1    
   114   57   58 1    
   115   57   59 1    
   116   57  180 1    
   117   58  181 1    
   118   58  182 1    
   119   58  183 1    
   120   59   60 am   BACKBONE|DICT|INTERRES
   121   59  184 1    
   122   60   61 2    
   123   60   62 1    
   124   62   63 1    
   125   62   64 1    
   126   62  185 1    
   127   63  186 1    
   128   63  187 1    
   129   63  188 1    
   130   64   65 am   BACKBONE|DICT|INTERRES
   131   64  189 1    
   132   65   66 2    
   133   67   68 2    
   134   67   69 am   BACKBONE|DICT|INTERRES
   135   69   70 1    
   136   69  190 1    
   137   70   71 1    
   138   70   72 1    
   139   70  191 1    
   140   71  192 1    
   141   71  193 1    
   142   71  194 1    
   143   72   73 2    
   144   72   74 am   BACKBONE|DICT|INTERRES
   145   74   75 1    
   146   74  195 1    
   147   75   76 1    
   148   75   77 1    
   149   75  196 1    
   150   76  197 1    
   151   76  198 1    
   152   76  199 1    
   153   77   78 2    
   154   77   79 am   BACKBONE|DICT|INTERRES
   155   79   80 1    
   156   79  200 1    
   157   80   81 1    
   158   80   82 1    
   159   80  201 1    
   160   81  202 1    
   161   81  203 1    
   162   81  204 1    
   163   82   83 2    
   164   82   84 am   BACKBONE|DICT|INTERRES
   165   84   85 1    
   166   84  205 1    
   167   85   86 1    
   168   85   87 1    
   169   85  206 1    
   170   86  207 1    
   171   86  208 1    
   172   86  209 1    
   173   87   88 2    
   174   87   89 am   BACKBONE|DICT|INTERRES
   175   89   90 1    
   176   89  210 1    
   177   90   91 1    
   178   90   92 1    
   179   90  211 1    
   180   91  212 1    
   181   91  213 1    
   182   91  214 1    
   183   92   93 2    
   184   92   94 am   BACKBONE|DICT|INTERRES
   185   94   95 1    
   186   94  215 1    
   187   95   96 1    
   188   95   97 1    
   189   95  216 1    
   190   96  217 1    
   191   96  218 1    
   192   96  219 1    
   193   97   98 2    
   194   97   99 am   BACKBONE|DICT|INTERRES
   195   99  100 1    
   196   99  220 1    
   197  100  101 1    
   198  100  102 1    
   199  100  221 1    
   200  101  222 1    
   201  101  223 1    
   202  101  224 1    
   203  102  103 2    
   204  102  104 am   BACKBONE|DICT|INTERRES
   205  104  105 1    
   206  104  225 1    
   207  105  106 1    
   208  105  107 1    
   209  105  226 1    
   210  106  227 1    
   211  106  228 1    
   212  106  229 1    
   213  107  108 2    
   214  107  109 am   BACKBONE|DICT|INTERRES
   215  109  110 1    
   216  109  230 1    
   217  110  111 1    
   218  110  112 1    
   219  110  231 1    
   220  111  232 1    
   221  111  233 1    
   222  111  234 1    
   223  112  113 2    
   224  112  114 am   BACKBONE|DICT|INTERRES
   225  114  115 1    
   226  114  235 1    
   227  115  116 1    
   228  115  117 1    
   229  115  236 1    
   230  116  237 1    
   231  116  238 1    
   232  116  239 1    
   233  117  118 2    
   234  117  119 am   BACKBONE|DICT|INTERRES
   235  119  120 1    
   236  119  240 1    
   237  120  121 1    
   238  120  124 1    
   239  120  241 1    
   240  121  122 am   BACKBONE|DICT|INTERRES
   241  121  123 2    
   242  122  242 1    
   243  122  243 1    
   244  124  125 1    
   245  124  244 1    
   246  124  245 1    
   247  125  126 1    
   248  126  246 1    
   249  126  247 1    
@<TRIPOS>SUBSTRUCTURE
     1 UNK         1 GROUP             0       ****    0 ROOT    
