@<TRIPOS>MOLECULE
3R540
247   249    1
SMALL
USER_CHARGES


@<TRIPOS>ATOM
      1 CA         -1.0241  -14.5441  -43.8814 C.3       0 UNK        -0.1800 
      2 C          -0.4498  -13.7505  -45.0440 C.2       0 UNK         0.5000 
      3 O          -1.0788  -12.7962  -45.5016 O.2       0 UNK        -0.5000 
      4 N           0.7301  -14.1538  -45.5271 N.am      1 UNK        -0.5000 
      5 CA          1.4082  -13.5565  -46.6794 C.3       1 UNK         0.1400 
      6 C6          1.9980  -14.6225  -47.6341 C.3       23 UNK        -0.0398 
      7 S7          0.7298  -15.7188  -48.3516 S.3       23 UNK        -0.2404 
      8 C8          1.5891  -16.2564  -49.8609 C.3       23 UNK        -0.0205 
      9 C9          0.8980  -17.4458  -50.5089 C.ar      23 UNK        -0.0193 
     10 C10        -0.2778  -17.2663  -51.2430 C.ar      23 UNK        -0.1150 
     11 C11        -0.9007  -18.3545  -51.8607 C.ar      23 UNK        -0.0193 
     12 C12        -0.3382  -19.6274  -51.7360 C.ar      23 UNK        -0.1150 
     13 C13         0.8231  -19.8306  -50.9844 C.ar      23 UNK        -0.0193 
     14 C14         1.4426  -18.7274  -50.3844 C.ar      23 UNK        -0.1150 
     15 C15         1.3842  -21.2453  -50.8501 C.3       23 UNK        -0.0205 
     16 S16         2.1150  -21.5964  -49.2138 S.3       23 UNK        -0.2404 
     17 C17         1.8111  -23.3940  -49.0352 C.3       23 UNK        -0.0398 
     18 CA          0.7389  -23.7422  -47.9696 C.3       11 UNK         0.1400 
     19 N           1.0071  -23.0796  -46.6916 N.am      11 UNK        -0.5000 
     20 C           0.3684  -23.3124  -45.5382 C.2       10 UNK         0.5000 
     21 O          -0.4840  -24.1867  -45.3905 O.2       10 UNK        -0.5000 
     22 CA          0.7002  -22.3610  -44.3719 C.3       10 UNK         0.1400 
     23 CB          1.9054  -22.8787  -43.5739 C.3       10 UNK        -0.1800 
     24 N           0.9623  -20.9849  -44.8073 N.am      10 UNK        -0.5000 
     25 C           0.0815  -20.2084  -45.4559 C.2       9 UNK         0.5000 
     26 O          -1.0525  -20.5862  -45.7484 O.2       9 UNK        -0.5000 
     27 CA          0.5267  -18.7910  -45.8563 C.3       9 UNK         0.1400 
     28 CB         -0.5147  -17.7541  -45.4090 C.3       9 UNK        -0.1800 
     29 N           1.8261  -18.4398  -45.2788 N.am      9 UNK        -0.5000 
     30 C           2.9551  -18.2290  -45.9720 C.2       8 UNK         0.5000 
     31 O           3.0324  -18.3419  -47.1945 O.2       8 UNK        -0.5000 
     32 CA          4.2272  -17.8662  -45.1691 C.3       8 UNK         0.1400 
     33 CB          5.0972  -16.7999  -45.8684 C.3       8 UNK        -0.1800 
     34 N           3.9767  -17.5013  -43.7696 N.am      8 UNK        -0.5000 
     35 C           3.2852  -16.4480  -43.3163 C.2       7 UNK         0.5000 
     36 O           2.7853  -15.5762  -44.0331 O.2       7 UNK        -0.5000 
     37 CA          3.0751  -16.3959  -41.7963 C.3       7 UNK         0.1400 
     38 CB          3.7803  -15.1872  -41.1713 C.3       7 UNK        -0.1800 
     39 N           1.6524  -16.3555  -41.4732 N.am      7 UNK        -0.5000 
     40 C           0.8024  -17.3737  -41.6685 C.2       6 UNK         0.5000 
     41 O           1.1339  -18.4289  -42.2148 O.2       6 UNK        -0.5000 
     42 CA         -0.6566  -17.1836  -41.1941 C.3       6 UNK         0.1400 
     43 CB         -1.2798  -18.5004  -40.6874 C.3       6 UNK        -0.1800 
     44 N          -0.8407  -16.1077  -40.2100 N.am      6 UNK        -0.5000 
     45 C          -0.3114  -16.0037  -38.9817 C.2       5 UNK         0.5000 
     46 O           0.4396  -16.8494  -38.4930 O.2       5 UNK        -0.5000 
     47 CA         -0.6694  -14.7317  -38.1737 C.3       5 UNK         0.1400 
     48 CB          0.2726  -14.5117  -36.9758 C.3       5 UNK        -0.1800 
     49 N          -0.6808  -13.5072  -38.9818 N.am      5 UNK        -0.5000 
     50 C          -1.6428  -13.1331  -39.8352 C.2       4 UNK         0.5000 
     51 O          -2.6514  -13.8055  -40.0507 O.2       4 UNK        -0.5000 
     52 CA         -1.4419  -11.8121  -40.6045 C.3       4 UNK         0.1400 
     53 CB         -2.2402  -10.6827  -39.9354 C.3       4 UNK        -0.1800 
     54 N          -0.0503  -11.3749  -40.7670 N.am      4 UNK        -0.5000 
     55 C           0.9210  -12.0617  -41.3813 C.2       3 UNK         0.5000 
     56 O           0.8122  -13.2314  -41.7587 O.2       3 UNK        -0.5000 
     57 CA          2.2443  -11.3191  -41.6005 C.3       3 UNK         0.1400 
     58 CB          3.1342  -11.4008  -40.3458 C.3       3 UNK        -0.1800 
     59 N           2.9012  -11.9302  -42.7490 N.am      3 UNK        -0.5000 
     60 C           3.9307  -11.4385  -43.4450 C.2       2 UNK         0.5000 
     61 O           4.4852  -10.3693  -43.1880 O.2       2 UNK        -0.5000 
     62 CA          4.4167  -12.2795  -44.6392 C.3       2 UNK         0.1400 
     63 CB          5.5420  -13.2329  -44.2088 C.3       2 UNK        -0.1800 
     64 N           3.3331  -13.0599  -45.2399 N.am      2 UNK        -0.5000 
     65 C           2.5094  -12.5991  -46.1919 C.2       1 UNK         0.5000 
     66 O           2.5883  -11.4690  -46.6756 O.2       1 UNK        -0.5000 
     67 C          -0.6932  -23.4643  -48.4752 C.2       11 UNK         0.5000 
     68 O          -1.3920  -24.3998  -48.8648 O.2       11 UNK        -0.5000 
     69 N          -1.1161  -22.1933  -48.4137 N.am      12 UNK        -0.5000 
     70 CA         -2.4519  -21.7342  -48.7917 C.3       12 UNK         0.1400 
     71 CB         -2.4841  -20.1979  -48.8160 C.3       12 UNK        -0.1800 
     72 C          -3.5341  -22.2763  -47.8457 C.2       12 UNK         0.5000 
     73 O          -4.6002  -22.6724  -48.3102 O.2       12 UNK        -0.5000 
     74 N          -3.2330  -22.3124  -46.5416 N.am      13 UNK        -0.5000 
     75 CA         -4.1018  -22.8756  -45.5098 C.3       13 UNK         0.1400 
     76 CB         -3.5294  -22.5413  -44.1238 C.3       13 UNK        -0.1800 
     77 C          -4.3073  -24.3944  -45.6696 C.2       13 UNK         0.5000 
     78 O          -5.4264  -24.8758  -45.4897 O.2       13 UNK        -0.5000 
     79 N          -3.2308  -25.1158  -46.0100 N.am      14 UNK        -0.5000 
     80 CA         -3.2339  -26.5634  -46.2034 C.3       14 UNK         0.1400 
     81 CB         -1.7919  -27.0920  -46.1382 C.3       14 UNK        -0.1800 
     82 C          -3.9118  -26.9950  -47.5155 C.2       14 UNK         0.5000 
     83 O          -4.7891  -27.8593  -47.4867 O.2       14 UNK        -0.5000 
     84 N          -3.4750  -26.4170  -48.6423 N.am      15 UNK        -0.5000 
     85 CA         -3.8638  -26.8587  -49.9850 C.3       15 UNK         0.1400 
     86 CB         -2.6740  -26.6484  -50.9347 C.3       15 UNK        -0.1800 
     87 C          -5.1211  -26.1635  -50.5389 C.2       15 UNK         0.5000 
     88 O          -5.6584  -26.6430  -51.5369 O.2       15 UNK        -0.5000 
     89 N          -5.5518  -25.0680  -49.8954 N.am      16 UNK        -0.5000 
     90 CA         -6.5433  -24.0746  -50.3266 C.3       16 UNK         0.1400 
     91 CB         -7.8515  -24.6953  -50.8559 C.3       16 UNK        -0.1800 
     92 C          -5.9214  -23.0990  -51.3412 C.2       16 UNK         0.5000 
     93 O          -5.3467  -23.5296  -52.3425 O.2       16 UNK        -0.5000 
     94 N          -6.0548  -21.7933  -51.0688 N.am      17 UNK        -0.5000 
     95 CA         -5.4373  -20.6949  -51.8217 C.3       17 UNK         0.1400 
     96 CB         -5.8324  -19.3567  -51.1793 C.3       17 UNK        -0.1800 
     97 C          -5.7766  -20.6816  -53.3233 C.2       17 UNK         0.5000 
     98 O          -4.9123  -20.3592  -54.1367 O.2       17 UNK        -0.5000 
     99 N          -7.0180  -21.0600  -53.6577 N.am      18 UNK        -0.5000 
    100 CA        -7.5161  -21.1609  -55.0293 C.3       18 UNK         0.1400 
    101 CB        -9.0306  -21.4158  -54.9993 C.3       18 UNK        -0.1800 
    102 C         -6.8001  -22.2465  -55.8551 C.2       18 UNK         0.5000 
    103 O         -6.5573  -22.0405  -57.0448 O.2       18 UNK        -0.5000 
    104 N         -6.4637  -23.3705  -55.2078 N.am      19 UNK        -0.5000 
    105 CA        -5.7007  -24.4645  -55.8054 C.3       19 UNK         0.1400 
    106 CB        -6.0022  -25.7685  -55.0539 C.3       19 UNK        -0.1800 
    107 C         -4.1932  -24.1639  -55.7955 C.2       19 UNK         0.5000 
    108 O         -3.5044  -24.4695  -56.7700 O.2       19 UNK        -0.5000 
    109 N         -3.7105  -23.5375  -54.7141 N.am      20 UNK        -0.5000 
    110 CA        -2.3239  -23.1235  -54.4976 C.3       20 UNK         0.1400 
    111 CB        -2.0926  -22.9507  -52.9862 C.3       20 UNK        -0.1800 
    112 C         -1.9377  -21.8643  -55.3062 C.2       20 UNK         0.5000 
    113 O         -1.4352  -20.8952  -54.7399 O.2       20 UNK        -0.5000 
    114 N         -2.1758  -21.9094  -56.6227 N.am      21 UNK        -0.5000 
    115 CA        -1.8059  -20.9528  -57.6737 C.3       21 UNK         0.1400 
    116 CB        -0.2755  -20.7805  -57.7408 C.3       21 UNK        -0.1800 
    117 C         -2.5099  -19.5792  -57.6462 C.2       21 UNK         0.5000 
    118 O         -2.5681  -18.9370  -58.6963 O.2       21 UNK        -0.5000 
    119 N         -3.0320  -19.1379  -56.4956 N.am      22 UNK        -0.5000 
    120 CA        -3.6893  -17.8268  -56.3345 C.3       22 UNK         0.1400 
    121 C         -5.1392  -17.7482  -56.8993 C.2       22 UNK         0.5000 
    122 N         -5.7449  -18.8381  -57.3535 N.am      22 UNK        -0.7600 
    123 O         -5.7226  -16.6683  -56.9440 O.2       22 UNK        -0.5000 
    124 C124       -3.6304  -17.2953  -54.8782 C.3       23 UNK        -0.0398 
    125 S125       -1.9404  -17.2567  -54.1867 S.3       23 UNK        -0.2404 
    126 C126       -2.1979  -18.1650  -52.6321 C.3       23 UNK        -0.0205 
    127 H127       -1.4374  -13.8744  -43.1283 H         1 UNK         0.0600 
    128 H128       -0.2541  -15.1523  -43.4096 H         1 UNK         0.0600 
    129 H129       -1.8214  -15.2004  -44.2293 H         1 UNK         0.0600 
    130 H130        1.2346  -14.9014  -45.0615 H         1 UNK         0.3000 
    131 H131        0.6992  -12.9621  -47.2598 H         1 UNK         0.0600 
    132 H132        2.5362  -14.1364  -48.4501 H         1 UNK         0.0800 
    133 H133        2.7227  -15.2501  -47.1163 H         1 UNK         0.0800 
    134 H134        1.6366  -15.4270  -50.5680 H         1 UNK         0.0800 
    135 H135        2.6205  -16.5136  -49.6128 H         1 UNK         0.0800 
    136 H136       -0.7080  -16.2788  -51.3348 H         1 UNK         0.1150 
    137 H137       -0.8206  -20.4674  -52.2121 H         1 UNK         0.1150 
    138 H138        2.3492  -18.8629  -49.8117 H         1 UNK         0.1150 
    139 H139        0.5871  -21.9652  -51.0403 H         1 UNK         0.0800 
    140 H140        2.1392  -21.4045  -51.6206 H         1 UNK         0.0800 
    141 H141        1.5645  -23.8398  -50.0005 H         1 UNK         0.0800 
    142 H142        2.7579  -23.8506  -48.7441 H         1 UNK         0.0800 
    143 H143        0.7993  -24.8176  -47.7879 H         1 UNK         0.0600 
    144 H144        1.6800  -22.3274  -46.7225 H         1 UNK         0.3000 
    145 H145       -0.1657  -22.3388  -43.7075 H         1 UNK         0.0600 
    146 H146        2.0945  -22.2571  -42.6985 H         1 UNK         0.0600 
    147 H147        1.7298  -23.8948  -43.2180 H         1 UNK         0.0600 
    148 H148        2.8131  -22.8943  -44.1784 H         1 UNK         0.0600 
    149 H149        1.8703  -20.6019  -44.5921 H         1 UNK         0.3000 
    150 H150        0.5740  -18.7716  -46.9473 H         1 UNK         0.0600 
    151 H151       -0.2053  -16.7497  -45.6881 H         1 UNK         0.0600 
    152 H152       -0.6685  -17.7748  -44.3309 H         1 UNK         0.0600 
    153 H153       -1.4800  -17.9349  -45.8833 H         1 UNK         0.0600 
    154 H154        1.8462  -18.3433  -44.2698 H         1 UNK         0.3000 
    155 H155        4.8143  -18.7850  -45.1350 H         1 UNK         0.0600 
    156 H156        5.3601  -17.1055  -46.8817 H         1 UNK         0.0600 
    157 H157        6.0309  -16.6433  -45.3284 H         1 UNK         0.0600 
    158 H158        4.5936  -15.8376  -45.9390 H         1 UNK         0.0600 
    159 H159        4.3228  -18.1650  -43.0903 H         1 UNK         0.3000 
    160 H160        3.4943  -17.2969  -41.3431 H         1 UNK         0.0600 
    161 H161        3.4161  -14.2555  -41.5959 H         1 UNK         0.0600 
    162 H162        4.8564  -15.2299  -41.3425 H         1 UNK         0.0600 
    163 H163        3.6220  -15.1496  -40.0934 H         1 UNK         0.0600 
    164 H164        1.2918  -15.4831  -41.1106 H         1 UNK         0.3000 
    165 H165       -1.2230  -16.8812  -42.0745 H         1 UNK         0.0600 
    166 H166       -0.7269  -18.9109  -39.8422 H         1 UNK         0.0600 
    167 H167       -2.3131  -18.3527  -40.3734 H         1 UNK         0.0600 
    168 H168       -1.2870  -19.2586  -41.4716 H         1 UNK         0.0600 
    169 H169       -1.4618  -15.3567  -40.4924 H         1 UNK         0.3000 
    170 H170       -1.6744  -14.8887  -37.7769 H         1 UNK         0.0600 
    171 H171        0.2513  -15.3637  -36.2951 H         1 UNK         0.0600 
    172 H172        1.3052  -14.3723  -37.2982 H         1 UNK         0.0600 
    173 H173       -0.0206  -13.6343  -36.3990 H         1 UNK         0.0600 
    174 H174        0.1296  -12.9112  -38.9012 H         1 UNK         0.3000 
    175 H175       -1.8494  -11.9640  -41.6058 H         1 UNK         0.0600 
    176 H176       -1.8541  -10.4526  -38.9415 H         1 UNK         0.0600 
    177 H177       -2.2074   -9.7692  -40.5294 H         1 UNK         0.0600 
    178 H178       -3.2904  -10.9567  -39.8241 H         1 UNK         0.0600 
    179 H179        0.1478  -10.4314  -40.4661 H         1 UNK         0.3000 
    180 H180        2.0291  -10.2746  -41.8346 H         1 UNK         0.0600 
    181 H181        3.3558  -12.4320  -40.0713 H         1 UNK         0.0600 
    182 H182        2.6447  -10.9343  -39.4902 H         1 UNK         0.0600 
    183 H183        4.0823  -10.8838  -40.4926 H         1 UNK         0.0600 
    184 H184        2.4728  -12.8002  -43.0418 H         1 UNK         0.3000 
    185 H185        4.8270  -11.5935  -45.3834 H         1 UNK         0.0600 
    186 H186        5.9435  -13.7779  -45.0632 H         1 UNK         0.0600 
    187 H187        6.3687  -12.6835  -43.7566 H         1 UNK         0.0600 
    188 H188        5.1958  -13.9642  -43.4794 H         1 UNK         0.0600 
    189 H189        3.1838  -13.9942  -44.8652 H         1 UNK         0.3000 
    190 H190       -0.4912  -21.4959  -48.0373 H         1 UNK         0.3000 
    191 H191       -2.6604  -22.1012  -49.7991 H         1 UNK         0.0600 
    192 H192       -3.3990  -19.8380  -49.2848 H         1 UNK         0.0600 
    193 H193       -1.6478  -19.7868  -49.3763 H         1 UNK         0.0600 
    194 H194       -2.4441  -19.7705  -47.8141 H         1 UNK         0.0600 
    195 H195       -2.3563  -21.8986  -46.2357 H         1 UNK         0.3000 
    196 H196       -5.0787  -22.3958  -45.5982 H         1 UNK         0.0600 
    197 H197       -4.1890  -22.9002  -43.3329 H         1 UNK         0.0600 
    198 H198       -3.4167  -21.4649  -43.9921 H         1 UNK         0.0600 
    199 H199       -2.5530  -23.0006  -43.9700 H         1 UNK         0.0600 
    200 H200       -2.3321  -24.6499  -46.0819 H         1 UNK         0.3000 
    201 H201       -3.7892  -27.0163  -45.3792 H         1 UNK         0.0600 
    202 H202       -1.3433  -26.8884  -45.1657 H         1 UNK         0.0600 
    203 H203       -1.1583  -26.6342  -46.8990 H         1 UNK         0.0600 
    204 H204       -1.7623  -28.1717  -46.2899 H         1 UNK         0.0600 
    205 H205       -2.7518  -25.7025  -48.5941 H         1 UNK         0.3000 
    206 H206       -4.0765  -27.9297  -49.9635 H         1 UNK         0.0600 
    207 H207       -1.7982  -27.2037  -50.5990 H         1 UNK         0.0600 
    208 H208       -2.9088  -26.9884  -51.9442 H         1 UNK         0.0600 
    209 H209       -2.3979  -25.5973  -50.9989 H         1 UNK         0.0600 
    210 H210       -5.0052  -24.7703  -49.0972 H         1 UNK         0.3000 
    211 H211       -6.8025  -23.5156  -49.4268 H         1 UNK         0.0600 
    212 H212       -7.7236  -25.1522  -51.8377 H         1 UNK         0.0600 
    213 H213       -8.6234  -23.9320  -50.9590 H         1 UNK         0.0600 
    214 H214       -8.2338  -25.4557  -50.1751 H         1 UNK         0.0600 
    215 H215       -6.5339  -21.5307  -50.2195 H         1 UNK         0.3000 
    216 H216       -4.3562  -20.8061  -51.7286 H         1 UNK         0.0600 
    217 H217       -5.3413  -18.5222  -51.6815 H         1 UNK         0.0600 
    218 H218       -5.5458  -19.3175  -50.1289 H         1 UNK         0.0600 
    219 H219       -6.9082  -19.1860  -51.2367 H         1 UNK         0.0600 
    220 H220       -7.6574  -21.3122  -52.9189 H         1 UNK         0.3000 
    221 H221       -7.3433  -20.2005  -55.5176 H         1 UNK         0.0600 
    222 H222       -9.4360  -21.4752  -56.0103 H         1 UNK         0.0600 
    223 H223       -9.2725  -22.3511  -54.4929 H         1 UNK         0.0600 
    224 H224       -9.5563  -20.6100  -54.4869 H         1 UNK         0.0600 
    225 H225       -6.6313  -23.4295  -54.2123 H         1 UNK         0.3000 
    226 H226       -6.0130  -24.5944  -56.8439 H         1 UNK         0.0600 
    227 H227       -7.0653  -26.0071  -55.0862 H         1 UNK         0.0600 
    228 H228       -5.4651  -26.6080  -55.4969 H         1 UNK         0.0600 
    229 H229       -5.7050  -25.7052  -54.0074 H         1 UNK         0.0600 
    230 H230       -4.3504  -23.3561  -53.9453 H         1 UNK         0.3000 
    231 H231       -1.6725  -23.9310  -54.8374 H         1 UNK         0.0600 
    232 H232       -1.0372  -22.7853  -52.7695 H         1 UNK         0.0600 
    233 H233       -2.4011  -23.8380  -52.4366 H         1 UNK         0.0600 
    234 H234       -2.6521  -22.1049  -52.5891 H         1 UNK         0.0600 
    235 H235       -2.6299  -22.7551  -56.9562 H         1 UNK         0.3000 
    236 H236       -2.1177  -21.4257  -58.6062 H         1 UNK         0.0600 
    237 H237        0.1169  -20.2881  -56.8505 H         1 UNK         0.0600 
    238 H238        0.2268  -21.7425  -57.8427 H         1 UNK         0.0600 
    239 H239        0.0114  -20.1727  -58.5997 H         1 UNK         0.0600 
    240 H240       -2.9195  -19.6977  -55.6582 H         1 UNK         0.3000 
    241 H241       -3.1191  -17.1152  -56.9349 H         1 UNK         0.0600 
    242 H242       -6.6733  -18.7663  -57.7373 H         1 UNK         0.3800 
    243 H243       -5.2875  -19.7354  -57.3089 H         1 UNK         0.3800 
    244 H244       -4.2814  -17.8845  -54.2331 H         1 UNK         0.0800 
    245 H245       -4.0178  -16.2761  -54.8345 H         1 UNK         0.0800 
    246 H246       -2.6504  -19.1322  -52.8576 H         1 UNK         0.0800 
    247 H247       -2.9113  -17.6240  -52.0090 H         1 UNK         0.0800 
@<TRIPOS>BOND
     1    1    2 1    
     2    1  127 1    
     3    1  128 1    
     4    1  129 1    
     5    2    3 2    
     6    2    4 am   BACKBONE|DICT|INTERRES
     7    4    5 1    
     8    4  130 1    
     9    5    6 1    
    10    5   65 1    
    11    5  131 1    
    12    6    7 1    
    13    6  132 1    
    14    6  133 1    
    15    7    8 1    
    16    8    9 1    
    17    8  134 1    
    18    8  135 1    
    19    9   10 ar   
    20    9   14 ar   
    21   10   11 ar   
    22   10  136 1    
    23   11   12 ar   
    24   11  126 1    
    25   12   13 ar   
    26   12  137 1    
    27   13   14 ar   
    28   13   15 1    
    29   14  138 1    
    30   15   16 1    
    31   15  139 1    
    32   15  140 1    
    33   16   17 1    
    34   17   18 1    
    35   17  141 1    
    36   17  142 1    
    37   18   19 1    
    38   18   67 1    
    39   18  143 1    
    40   19   20 am   BACKBONE|DICT|INTERRES
    41   19  144 1    
    42   20   21 2    
    43   20   22 1    
    44   22   23 1    
    45   22   24 1    
    46   22  145 1    
    47   23  146 1    
    48   23  147 1    
    49   23  148 1    
    50   24   25 am   BACKBONE|DICT|INTERRES
    51   24  149 1    
    52   25   26 2    
    53   25   27 1    
    54   27   28 1    
    55   27   29 1    
    56   27  150 1    
    57   28  151 1    
    58   28  152 1    
    59   28  153 1    
    60   29   30 am   BACKBONE|DICT|INTERRES
    61   29  154 1    
    62   30   31 2    
    63   30   32 1    
    64   32   33 1    
    65   32   34 1    
    66   32  155 1    
    67   33  156 1    
    68   33  157 1    
    69   33  158 1    
    70   34   35 am   BACKBONE|DICT|INTERRES
    71   34  159 1    
    72   35   36 2    
    73   35   37 1    
    74   37   38 1    
    75   37   39 1    
    76   37  160 1    
    77   38  161 1    
    78   38  162 1    
    79   38  163 1    
    80   39   40 am   BACKBONE|DICT|INTERRES
    81   39  164 1    
    82   40   41 2    
    83   40   42 1    
    84   42   43 1    
    85   42   44 1    
    86   42  165 1    
    87   43  166 1    
    88   43  167 1    
    89   43  168 1    
    90   44   45 am   BACKBONE|DICT|INTERRES
    91   44  169 1    
    92   45   46 2    
    93   45   47 1    
    94   47   48 1    
    95   47   49 1    
    96   47  170 1    
    97   48  171 1    
    98   48  172 1    
    99   48  173 1    
   100   49   50 am   BACKBONE|DICT|INTERRES
   101   49  174 1    
   102   50   51 2    
   103   50   52 1    
   104   52   53 1    
   105   52   54 1    
   106   52  175 1    
   107   53  176 1    
   108   53  177 1    
   109   53  178 1    
   110   54   55 am   BACKBONE|DICT|INTERRES
   111   54  179 1    
   112   55   56 2    
   113   55   57 1    
   114   57   58 1    
   115   57   59 1    
   116   57  180 1    
   117   58  181 1    
   118   58  182 1    
   119   58  183 1    
   120   59   60 am   BACKBONE|DICT|INTERRES
   121   59  184 1    
   122   60   61 2    
   123   60   62 1    
   124   62   63 1    
   125   62   64 1    
   126   62  185 1    
   127   63  186 1    
   128   63  187 1    
   129   63  188 1    
   130   64   65 am   BACKBONE|DICT|INTERRES
   131   64  189 1    
   132   65   66 2    
   133   67   68 2    
   134   67   69 am   BACKBONE|DICT|INTERRES
   135   69   70 1    
   136   69  190 1    
   137   70   71 1    
   138   70   72 1    
   139   70  191 1    
   140   71  192 1    
   141   71  193 1    
   142   71  194 1    
   143   72   73 2    
   144   72   74 am   BACKBONE|DICT|INTERRES
   145   74   75 1    
   146   74  195 1    
   147   75   76 1    
   148   75   77 1    
   149   75  196 1    
   150   76  197 1    
   151   76  198 1    
   152   76  199 1    
   153   77   78 2    
   154   77   79 am   BACKBONE|DICT|INTERRES
   155   79   80 1    
   156   79  200 1    
   157   80   81 1    
   158   80   82 1    
   159   80  201 1    
   160   81  202 1    
   161   81  203 1    
   162   81  204 1    
   163   82   83 2    
   164   82   84 am   BACKBONE|DICT|INTERRES
   165   84   85 1    
   166   84  205 1    
   167   85   86 1    
   168   85   87 1    
   169   85  206 1    
   170   86  207 1    
   171   86  208 1    
   172   86  209 1    
   173   87   88 2    
   174   87   89 am   BACKBONE|DICT|INTERRES
   175   89   90 1    
   176   89  210 1    
   177   90   91 1    
   178   90   92 1    
   179   90  211 1    
   180   91  212 1    
   181   91  213 1    
   182   91  214 1    
   183   92   93 2    
   184   92   94 am   BACKBONE|DICT|INTERRES
   185   94   95 1    
   186   94  215 1    
   187   95   96 1    
   188   95   97 1    
   189   95  216 1    
   190   96  217 1    
   191   96  218 1    
   192   96  219 1    
   193   97   98 2    
   194   97   99 am   BACKBONE|DICT|INTERRES
   195   99  100 1    
   196   99  220 1    
   197  100  101 1    
   198  100  102 1    
   199  100  221 1    
   200  101  222 1    
   201  101  223 1    
   202  101  224 1    
   203  102  103 2    
   204  102  104 am   BACKBONE|DICT|INTERRES
   205  104  105 1    
   206  104  225 1    
   207  105  106 1    
   208  105  107 1    
   209  105  226 1    
   210  106  227 1    
   211  106  228 1    
   212  106  229 1    
   213  107  108 2    
   214  107  109 am   BACKBONE|DICT|INTERRES
   215  109  110 1    
   216  109  230 1    
   217  110  111 1    
   218  110  112 1    
   219  110  231 1    
   220  111  232 1    
   221  111  233 1    
   222  111  234 1    
   223  112  113 2    
   224  112  114 am   BACKBONE|DICT|INTERRES
   225  114  115 1    
   226  114  235 1    
   227  115  116 1    
   228  115  117 1    
   229  115  236 1    
   230  116  237 1    
   231  116  238 1    
   232  116  239 1    
   233  117  118 2    
   234  117  119 am   BACKBONE|DICT|INTERRES
   235  119  120 1    
   236  119  240 1    
   237  120  121 1    
   238  120  124 1    
   239  120  241 1    
   240  121  122 am   BACKBONE|DICT|INTERRES
   241  121  123 2    
   242  122  242 1    
   243  122  243 1    
   244  124  125 1    
   245  124  244 1    
   246  124  245 1    
   247  125  126 1    
   248  126  246 1    
   249  126  247 1    
@<TRIPOS>SUBSTRUCTURE
     1 UNK         1 GROUP             0       ****    0 ROOT    
