@<TRIPOS>MOLECULE
3R540
247   249    1
SMALL
USER_CHARGES


@<TRIPOS>ATOM
      1 CA         -2.3808   -9.8599  -47.0844 C.3       0 UNK        -0.1800 
      2 C          -2.7966  -11.3236  -47.0438 C.2       0 UNK         0.5000 
      3 O          -3.9804  -11.6174  -46.8805 O.2       0 UNK        -0.5000 
      4 N          -1.8253  -12.2364  -47.1883 N.am      1 UNK        -0.5000 
      5 CA         -1.9961  -13.6961  -47.1568 C.3       1 UNK         0.1400 
      6 C6         -2.8445  -14.2315  -48.3425 C.3       23 UNK        -0.0398 
      7 S7         -2.3793  -15.9295  -48.8229 S.3       23 UNK        -0.2404 
      8 C8         -1.1416  -15.6020  -50.1135 C.3       23 UNK        -0.0205 
      9 C9         -0.6523  -16.8973  -50.7401 C.ar      23 UNK        -0.0193 
     10 C10        -1.1793  -17.3348  -51.9578 C.ar      23 UNK        -0.1150 
     11 C11        -0.7357  -18.5272  -52.5369 C.ar      23 UNK        -0.0193 
     12 C12         0.2422  -19.2856  -51.8870 C.ar      23 UNK        -0.1150 
     13 C13         0.7753  -18.8590  -50.6664 C.ar      23 UNK        -0.0193 
     14 C14         0.3277  -17.6611  -50.1015 C.ar      23 UNK        -0.1150 
     15 C15         1.8217  -19.6983  -49.9450 C.3       23 UNK        -0.0205 
     16 S16         1.1691  -21.3131  -49.4092 S.3       23 UNK        -0.2404 
     17 C17        -0.3525  -20.8122  -48.5400 C.3       23 UNK        -0.0398 
     18 CA         -0.8158  -21.8756  -47.5214 C.3       11 UNK         0.1400 
     19 N           0.0145  -21.9041  -46.3139 N.am      11 UNK        -0.5000 
     20 C          -0.0484  -22.8595  -45.3758 C.2       10 UNK         0.5000 
     21 O          -0.8013  -23.8298  -45.4422 O.2       10 UNK        -0.5000 
     22 CA          0.8274  -22.6726  -44.1241 C.3       10 UNK         0.1400 
     23 CB          2.2964  -23.0084  -44.4195 C.3       10 UNK        -0.1800 
     24 N           0.7240  -21.3226  -43.5703 N.am      10 UNK        -0.5000 
     25 C          -0.4088  -20.7850  -43.0951 C.2       9 UNK         0.5000 
     26 O          -1.4775  -21.3911  -43.0251 O.2       9 UNK        -0.5000 
     27 CA         -0.3538  -19.3060  -42.6777 C.3       9 UNK         0.1400 
     28 CB          0.1892  -19.1549  -41.2494 C.3       9 UNK        -0.1800 
     29 N           0.4372  -18.5009  -43.6095 N.am      9 UNK        -0.5000 
     30 C           0.0704  -18.2456  -44.8738 C.2       8 UNK         0.5000 
     31 O          -0.9941  -18.6161  -45.3661 O.2       8 UNK        -0.5000 
     32 CA          1.0924  -17.5064  -45.7530 C.3       8 UNK         0.1400 
     33 CB          1.0096  -15.9893  -45.5398 C.3       8 UNK        -0.1800 
     34 N           2.4594  -17.9716  -45.5178 N.am      8 UNK        -0.5000 
     35 C           2.8924  -19.1913  -45.8680 C.2       7 UNK         0.5000 
     36 O           2.1837  -20.0249  -46.4279 O.2       7 UNK        -0.5000 
     37 CA          4.3391  -19.5654  -45.4999 C.3       7 UNK         0.1400 
     38 CB          5.3038  -19.1318  -46.6133 C.3       7 UNK        -0.1800 
     39 N           4.7846  -19.0031  -44.2248 N.am      7 UNK        -0.5000 
     40 C           4.2208  -19.2479  -43.0341 C.2       6 UNK         0.5000 
     41 O           3.2444  -19.9847  -42.8831 O.2       6 UNK        -0.5000 
     42 CA          4.8216  -18.5358  -41.8034 C.3       6 UNK         0.1400 
     43 CB          6.0845  -17.6984  -42.1089 C.3       6 UNK        -0.1800 
     44 N           3.8325  -17.7074  -41.1071 N.am      6 UNK        -0.5000 
     45 C           3.0881  -16.7220  -41.6316 C.2       5 UNK         0.5000 
     46 O           3.0878  -16.4273  -42.8281 O.2       5 UNK        -0.5000 
     47 CA          2.1740  -15.9324  -40.6689 C.3       5 UNK         0.1400 
     48 CB          2.2016  -16.4299  -39.2061 C.3       5 UNK        -0.1800 
     49 N           2.4300  -14.4912  -40.7192 N.am      5 UNK        -0.5000 
     50 C           3.5984  -13.8597  -40.5181 C.2       4 UNK         0.5000 
     51 O           4.6430  -14.4404  -40.2188 O.2       4 UNK        -0.5000 
     52 CA          3.6116  -12.3165  -40.6150 C.3       4 UNK         0.1400 
     53 CB          4.7458  -11.8040  -41.5275 C.3       4 UNK        -0.1800 
     54 N           2.3203  -11.7082  -40.9672 N.am      4 UNK        -0.5000 
     55 C           1.6746  -11.7616  -42.1400 C.2       3 UNK         0.5000 
     56 O           2.1095  -12.3074  -43.1558 O.2       3 UNK        -0.5000 
     57 CA          0.2789  -11.1104  -42.1650 C.3       3 UNK         0.1400 
     58 CB          0.3265   -9.7566  -42.8903 C.3       3 UNK        -0.1800 
     59 N          -0.7233  -11.9616  -42.8084 N.am      3 UNK        -0.5000 
     60 C          -1.0353  -13.2164  -42.4451 C.2       2 UNK         0.5000 
     61 O          -0.5235  -13.8062  -41.4923 O.2       2 UNK        -0.5000 
     62 CA         -2.0837  -13.9326  -43.3070 C.3       2 UNK         0.1400 
     63 CB         -3.5048  -13.5470  -42.8509 C.3       2 UNK        -0.1800 
     64 N          -1.8678  -13.6087  -44.7172 N.am      2 UNK        -0.5000 
     65 C          -2.4565  -14.1984  -45.7649 C.2       1 UNK         0.5000 
     66 O          -3.3038  -15.0860  -45.6601 O.2       1 UNK        -0.5000 
     67 C          -2.3145  -21.7011  -47.2112 C.2       11 UNK         0.5000 
     68 O          -3.1357  -22.2804  -47.9226 O.2       11 UNK        -0.5000 
     69 N          -2.6576  -20.9333  -46.1684 N.am      12 UNK        -0.5000 
     70 CA         -4.0308  -20.7913  -45.6849 C.3       12 UNK         0.1400 
     71 CB         -4.1202  -19.6274  -44.6868 C.3       12 UNK        -0.1800 
     72 C          -4.5641  -22.0987  -45.0709 C.2       12 UNK         0.5000 
     73 O          -5.6793  -22.5067  -45.3949 O.2       12 UNK        -0.5000 
     74 N          -3.7460  -22.7507  -44.2321 N.am      13 UNK        -0.5000 
     75 CA         -4.0548  -24.0279  -43.5846 C.3       13 UNK         0.1400 
     76 CB         -2.9899  -24.3314  -42.5197 C.3       13 UNK        -0.1800 
     77 C          -4.1787  -25.1972  -44.5796 C.2       13 UNK         0.5000 
     78 O          -5.0887  -26.0160  -44.4456 O.2       13 UNK        -0.5000 
     79 N          -3.2791  -25.2412  -45.5715 N.am      14 UNK        -0.5000 
     80 CA         -3.2666  -26.2351  -46.6483 C.3       14 UNK         0.1400 
     81 CB         -1.8723  -26.2417  -47.2959 C.3       14 UNK        -0.1800 
     82 C          -4.3446  -25.9946  -47.7244 C.2       14 UNK         0.5000 
     83 O          -4.5736  -26.8795  -48.5491 O.2       14 UNK        -0.5000 
     84 N          -4.9504  -24.7978  -47.7211 N.am      15 UNK        -0.5000 
     85 CA         -5.9074  -24.2643  -48.6972 C.3       15 UNK         0.1400 
     86 CB         -7.1819  -25.1281  -48.7820 C.3       15 UNK        -0.1800 
     87 C          -5.2884  -23.9823  -50.0828 C.2       15 UNK         0.5000 
     88 O          -6.0222  -23.7417  -51.0417 O.2       15 UNK        -0.5000 
     89 N          -3.9512  -23.9382  -50.1600 N.am      16 UNK        -0.5000 
     90 CA         -3.1816  -23.5345  -51.3375 C.3       16 UNK         0.1400 
     91 CB         -1.6908  -23.8020  -51.0879 C.3       16 UNK        -0.1800 
     92 C          -3.4126  -22.0577  -51.7043 C.2       16 UNK         0.5000 
     93 O          -3.4098  -21.7164  -52.8854 O.2       16 UNK        -0.5000 
     94 N          -3.6689  -21.2210  -50.6885 N.am      17 UNK        -0.5000 
     95 CA         -4.0578  -19.8197  -50.8467 C.3       17 UNK         0.1400 
     96 CB         -4.0709  -19.1445  -49.4680 C.3       17 UNK        -0.1800 
     97 C          -5.4217  -19.6463  -51.5458 C.2       17 UNK         0.5000 
     98 O          -5.6074  -18.6729  -52.2760 O.2       17 UNK        -0.5000 
     99 N          -6.3417  -20.5947  -51.3181 N.am      18 UNK        -0.5000 
    100 CA        -7.6651  -20.6312  -51.9388 C.3       18 UNK         0.1400 
    101 CB        -8.6463  -21.3609  -51.0074 C.3       18 UNK        -0.1800 
    102 C         -7.6244  -21.2989  -53.3241 C.2       18 UNK         0.5000 
    103 O         -8.2644  -20.8045  -54.2528 O.2       18 UNK        -0.5000 
    104 N         -6.8725  -22.4035  -53.4407 N.am      19 UNK        -0.5000 
    105 CA        -6.6970  -23.1696  -54.6776 C.3       19 UNK         0.1400 
    106 CB        -6.0289  -24.5124  -54.3471 C.3       19 UNK        -0.1800 
    107 C         -5.8922  -22.4210  -55.7582 C.2       19 UNK         0.5000 
    108 O         -6.1191  -22.6548  -56.9463 O.2       19 UNK        -0.5000 
    109 N         -4.9849  -21.5356  -55.3241 N.am      20 UNK        -0.5000 
    110 CA        -4.0778  -20.7219  -56.1314 C.3       20 UNK         0.1400 
    111 CB        -4.8581  -19.7298  -57.0236 C.3       20 UNK        -0.1800 
    112 C         -3.0355  -21.5824  -56.8774 C.2       20 UNK         0.5000 
    113 O         -2.5448  -22.5606  -56.3104 O.2       20 UNK        -0.5000 
    114 N         -2.6747  -21.1734  -58.1041 N.am      21 UNK        -0.5000 
    115 CA        -1.6221  -21.7422  -58.9619 C.3       21 UNK         0.1400 
    116 CB        -1.9417  -23.2013  -59.3504 C.3       21 UNK        -0.1800 
    117 C         -0.1958  -21.5729  -58.3865 C.2       21 UNK         0.5000 
    118 O          0.7222  -22.2918  -58.7845 O.2       21 UNK        -0.5000 
    119 N         -0.0363  -20.6088  -57.4729 N.am      22 UNK        -0.5000 
    120 CA         1.2197  -20.2297  -56.8087 C.3       22 UNK         0.1400 
    121 C          2.1225  -19.2603  -57.6289 C.2       22 UNK         0.5000 
    122 N          1.6913  -18.7551  -58.7786 N.am      22 UNK        -0.7600 
    123 O          3.2463  -18.9756  -57.2238 O.2       22 UNK        -0.5000 
    124 C124        0.9568  -19.7077  -55.3691 C.3       23 UNK        -0.0398 
    125 S125       -0.3476  -18.4246  -55.2746 S.3       23 UNK        -0.2404 
    126 C126       -1.3319  -18.9966  -53.8541 C.3       23 UNK        -0.0205 
    127 H127       -1.3067   -9.7461  -47.2326 H         1 UNK         0.0600 
    128 H128       -2.6484   -9.3680  -46.1491 H         1 UNK         0.0600 
    129 H129       -2.8924   -9.3472  -47.8989 H         1 UNK         0.0600 
    130 H130       -0.8774  -11.9165  -47.3330 H         1 UNK         0.3000 
    131 H131       -0.9837  -14.0813  -47.2843 H         1 UNK         0.0600 
    132 H132       -3.9105  -14.2032  -48.1104 H         1 UNK         0.0800 
    133 H133       -2.7219  -13.5880  -49.2146 H         1 UNK         0.0800 
    134 H134       -0.2997  -15.0578  -49.6832 H         1 UNK         0.0800 
    135 H135       -1.5730  -14.9540  -50.8781 H         1 UNK         0.0800 
    136 H136       -1.9395  -16.7482  -52.4544 H         1 UNK         0.1150 
    137 H137        0.5815  -20.2151  -52.3212 H         1 UNK         0.1150 
    138 H138        0.7321  -17.3247  -49.1578 H         1 UNK         0.1150 
    139 H139        2.2084  -19.1692  -49.0728 H         1 UNK         0.0800 
    140 H140        2.6725  -19.8607  -50.6077 H         1 UNK         0.0800 
    141 H141       -1.1073  -20.6458  -49.3110 H         1 UNK         0.0800 
    142 H142       -0.2013  -19.8511  -48.0451 H         1 UNK         0.0800 
    143 H143       -0.7208  -22.8568  -47.9906 H         1 UNK         0.0600 
    144 H144        0.7042  -21.1616  -46.2226 H         1 UNK         0.3000 
    145 H145        0.4700  -23.3682  -43.3620 H         1 UNK         0.0600 
    146 H146        2.3975  -24.0404  -44.7573 H         1 UNK         0.0600 
    147 H147        2.9150  -22.8940  -43.5291 H         1 UNK         0.0600 
    148 H148        2.7091  -22.3690  -45.1988 H         1 UNK         0.0600 
    149 H149        1.5762  -20.7709  -43.5408 H         1 UNK         0.3000 
    150 H150       -1.3773  -18.9252  -42.6870 H         1 UNK         0.0600 
    151 H151        1.2437  -19.4222  -41.1821 H         1 UNK         0.0600 
    152 H152       -0.3552  -19.7976  -40.5562 H         1 UNK         0.0600 
    153 H153        0.0718  -18.1329  -40.8933 H         1 UNK         0.0600 
    154 H154        1.3580  -18.2131  -43.3096 H         1 UNK         0.3000 
    155 H155        0.8397  -17.7121  -46.7950 H         1 UNK         0.0600 
    156 H156        1.7099  -15.4580  -46.1843 H         1 UNK         0.0600 
    157 H157        1.2171  -15.7057  -44.5080 H         1 UNK         0.0600 
    158 H158        0.0109  -15.6322  -45.7789 H         1 UNK         0.0600 
    159 H159        3.0712  -17.3585  -44.9944 H         1 UNK         0.3000 
    160 H160        4.3870  -20.6524  -45.4145 H         1 UNK         0.0600 
    161 H161        5.3287  -18.0471  -46.7254 H         1 UNK         0.0600 
    162 H162        5.0055  -19.5544  -47.5740 H         1 UNK         0.0600 
    163 H163        6.3193  -19.4729  -46.4112 H         1 UNK         0.0600 
    164 H164        5.5688  -18.3684  -44.2607 H         1 UNK         0.3000 
    165 H165        5.1090  -19.3265  -41.1091 H         1 UNK         0.0600 
    166 H166        6.8725  -18.3118  -42.5477 H         1 UNK         0.0600 
    167 H167        5.8769  -16.8739  -42.7923 H         1 UNK         0.0600 
    168 H168        6.4915  -17.2664  -41.1945 H         1 UNK         0.0600 
    169 H169        3.7384  -17.8885  -40.1180 H         1 UNK         0.3000 
    170 H170        1.1592  -16.0646  -41.0447 H         1 UNK         0.0600 
    171 H171        1.4939  -15.8699  -38.5947 H         1 UNK         0.0600 
    172 H172        3.1869  -16.3180  -38.7520 H         1 UNK         0.0600 
    173 H173        1.9162  -17.4803  -39.1369 H         1 UNK         0.0600 
    174 H174        1.6297  -13.9314  -40.9863 H         1 UNK         0.3000 
    175 H175        3.8299  -11.9647  -39.6057 H         1 UNK         0.0600 
    176 H176        4.6604  -12.1926  -42.5424 H         1 UNK         0.0600 
    177 H177        5.7206  -12.1109  -41.1468 H         1 UNK         0.0600 
    178 H178        4.7489  -10.7154  -41.5819 H         1 UNK         0.0600 
    179 H179        1.8554  -11.2440  -40.1986 H         1 UNK         0.3000 
    180 H180       -0.0509  -10.9393  -41.1382 H         1 UNK         0.0600 
    181 H181        0.6140   -9.8707  -43.9364 H         1 UNK         0.0600 
    182 H182        1.0506   -9.0883  -42.4224 H         1 UNK         0.0600 
    183 H183       -0.6418   -9.2567  -42.8601 H         1 UNK         0.0600 
    184 H184       -1.2299  -11.5408  -43.5717 H         1 UNK         0.3000 
    185 H185       -1.9453  -15.0079  -43.1746 H         1 UNK         0.0600 
    186 H186       -3.6305  -13.7154  -41.7805 H         1 UNK         0.0600 
    187 H187       -3.7180  -12.4955  -43.0463 H         1 UNK         0.0600 
    188 H188       -4.2652  -14.1408  -43.3575 H         1 UNK         0.0600 
    189 H189       -1.1447  -12.9277  -44.9007 H         1 UNK         0.3000 
    190 H190       -1.9408  -20.4146  -45.6725 H         1 UNK         0.3000 
    191 H191       -4.6658  -20.5453  -46.5380 H         1 UNK         0.0600 
    192 H192       -3.8090  -18.6896  -45.1481 H         1 UNK         0.0600 
    193 H193       -5.1439  -19.4928  -44.3358 H         1 UNK         0.0600 
    194 H194       -3.4927  -19.7932  -43.8117 H         1 UNK         0.0600 
    195 H195       -2.8549  -22.3255  -43.9891 H         1 UNK         0.3000 
    196 H196       -5.0169  -23.9206  -43.0796 H         1 UNK         0.0600 
    197 H197       -3.2028  -25.2715  -42.0092 H         1 UNK         0.0600 
    198 H198       -2.9580  -23.5490  -41.7613 H         1 UNK         0.0600 
    199 H199       -1.9943  -24.4118  -42.9573 H         1 UNK         0.0600 
    200 H200       -2.5129  -24.5710  -45.5663 H         1 UNK         0.3000 
    201 H201       -3.4481  -27.2207  -46.2150 H         1 UNK         0.0600 
    202 H202       -1.8041  -26.9992  -48.0777 H         1 UNK         0.0600 
    203 H203       -1.0977  -26.4639  -46.5616 H         1 UNK         0.0600 
    204 H204       -1.6361  -25.2785  -47.7501 H         1 UNK         0.0600 
    205 H205       -4.6695  -24.1433  -47.0026 H         1 UNK         0.3000 
    206 H206       -6.2035  -23.2897  -48.3066 H         1 UNK         0.0600 
    207 H207       -7.5979  -25.3150  -47.7920 H         1 UNK         0.0600 
    208 H208       -7.9536  -24.6275  -49.3679 H         1 UNK         0.0600 
    209 H209       -6.9914  -26.0912  -49.2556 H         1 UNK         0.0600 
    210 H210       -3.4365  -24.0492  -49.2976 H         1 UNK         0.3000 
    211 H211       -3.5043  -24.1474  -52.1802 H         1 UNK         0.0600 
    212 H212       -1.5097  -24.8525  -50.8596 H         1 UNK         0.0600 
    213 H213       -1.0980  -23.5526  -51.9690 H         1 UNK         0.0600 
    214 H214       -1.3086  -23.2070  -50.2595 H         1 UNK         0.0600 
    215 H215       -3.6414  -21.5897  -49.7435 H         1 UNK         0.3000 
    216 H216       -3.3055  -19.3264  -51.4636 H         1 UNK         0.0600 
    217 H217       -4.7569  -19.6428  -48.7829 H         1 UNK         0.0600 
    218 H218       -4.3869  -18.1038  -49.5477 H         1 UNK         0.0600 
    219 H219       -3.0795  -19.1457  -49.0151 H         1 UNK         0.0600 
    220 H220       -6.0901  -21.3862  -50.7449 H         1 UNK         0.3000 
    221 H221       -8.0279  -19.6093  -52.0690 H         1 UNK         0.0600 
    222 H222       -8.3526  -22.3966  -50.8351 H         1 UNK         0.0600 
    223 H223       -8.7114  -20.8659  -50.0384 H         1 UNK         0.0600 
    224 H224       -9.6501  -21.3730  -51.4338 H         1 UNK         0.0600 
    225 H225       -6.4350  -22.7867  -52.6068 H         1 UNK         0.3000 
    226 H226       -7.6881  -23.3752  -55.0872 H         1 UNK         0.0600 
    227 H227       -6.6045  -25.0711  -53.6088 H         1 UNK         0.0600 
    228 H228       -5.9463  -25.1367  -55.2376 H         1 UNK         0.0600 
    229 H229       -5.0230  -24.3708  -53.9525 H         1 UNK         0.0600 
    230 H230       -4.7948  -21.5106  -54.3277 H         1 UNK         0.3000 
    231 H231       -3.5103  -20.1296  -55.4147 H         1 UNK         0.0600 
    232 H232       -5.3797  -20.2325  -57.8387 H         1 UNK         0.0600 
    233 H233       -4.1947  -18.9831  -57.4613 H         1 UNK         0.0600 
    234 H234       -5.6026  -19.1868  -56.4409 H         1 UNK         0.0600 
    235 H235       -3.1444  -20.3620  -58.4818 H         1 UNK         0.3000 
    236 H236       -1.6389  -21.1542  -59.8805 H         1 UNK         0.0600 
    237 H237       -1.8517  -23.8784  -58.5008 H         1 UNK         0.0600 
    238 H238       -2.9534  -23.2915  -59.7460 H         1 UNK         0.0600 
    239 H239       -1.2597  -23.5582  -60.1229 H         1 UNK         0.0600 
    240 H240       -0.8399  -20.0561  -57.2143 H         1 UNK         0.3000 
    241 H241        1.8173  -21.1372  -56.7036 H         1 UNK         0.0600 
    242 H242        0.7732  -18.9799  -59.1259 H         1 UNK         0.3800 
    243 H243        2.2882  -18.1350  -59.3034 H         1 UNK         0.3800 
    244 H244        1.8683  -19.3191  -54.9115 H         1 UNK         0.0800 
    245 H245        0.6643  -20.5554  -54.7491 H         1 UNK         0.0800 
    246 H246       -2.3455  -18.6053  -53.9529 H         1 UNK         0.0800 
    247 H247       -1.4287  -20.0833  -53.8657 H         1 UNK         0.0800 
@<TRIPOS>BOND
     1    1    2 1    
     2    1  127 1    
     3    1  128 1    
     4    1  129 1    
     5    2    3 2    
     6    2    4 am   BACKBONE|DICT|INTERRES
     7    4    5 1    
     8    4  130 1    
     9    5    6 1    
    10    5   65 1    
    11    5  131 1    
    12    6    7 1    
    13    6  132 1    
    14    6  133 1    
    15    7    8 1    
    16    8    9 1    
    17    8  134 1    
    18    8  135 1    
    19    9   10 ar   
    20    9   14 ar   
    21   10   11 ar   
    22   10  136 1    
    23   11   12 ar   
    24   11  126 1    
    25   12   13 ar   
    26   12  137 1    
    27   13   14 ar   
    28   13   15 1    
    29   14  138 1    
    30   15   16 1    
    31   15  139 1    
    32   15  140 1    
    33   16   17 1    
    34   17   18 1    
    35   17  141 1    
    36   17  142 1    
    37   18   19 1    
    38   18   67 1    
    39   18  143 1    
    40   19   20 am   BACKBONE|DICT|INTERRES
    41   19  144 1    
    42   20   21 2    
    43   20   22 1    
    44   22   23 1    
    45   22   24 1    
    46   22  145 1    
    47   23  146 1    
    48   23  147 1    
    49   23  148 1    
    50   24   25 am   BACKBONE|DICT|INTERRES
    51   24  149 1    
    52   25   26 2    
    53   25   27 1    
    54   27   28 1    
    55   27   29 1    
    56   27  150 1    
    57   28  151 1    
    58   28  152 1    
    59   28  153 1    
    60   29   30 am   BACKBONE|DICT|INTERRES
    61   29  154 1    
    62   30   31 2    
    63   30   32 1    
    64   32   33 1    
    65   32   34 1    
    66   32  155 1    
    67   33  156 1    
    68   33  157 1    
    69   33  158 1    
    70   34   35 am   BACKBONE|DICT|INTERRES
    71   34  159 1    
    72   35   36 2    
    73   35   37 1    
    74   37   38 1    
    75   37   39 1    
    76   37  160 1    
    77   38  161 1    
    78   38  162 1    
    79   38  163 1    
    80   39   40 am   BACKBONE|DICT|INTERRES
    81   39  164 1    
    82   40   41 2    
    83   40   42 1    
    84   42   43 1    
    85   42   44 1    
    86   42  165 1    
    87   43  166 1    
    88   43  167 1    
    89   43  168 1    
    90   44   45 am   BACKBONE|DICT|INTERRES
    91   44  169 1    
    92   45   46 2    
    93   45   47 1    
    94   47   48 1    
    95   47   49 1    
    96   47  170 1    
    97   48  171 1    
    98   48  172 1    
    99   48  173 1    
   100   49   50 am   BACKBONE|DICT|INTERRES
   101   49  174 1    
   102   50   51 2    
   103   50   52 1    
   104   52   53 1    
   105   52   54 1    
   106   52  175 1    
   107   53  176 1    
   108   53  177 1    
   109   53  178 1    
   110   54   55 am   BACKBONE|DICT|INTERRES
   111   54  179 1    
   112   55   56 2    
   113   55   57 1    
   114   57   58 1    
   115   57   59 1    
   116   57  180 1    
   117   58  181 1    
   118   58  182 1    
   119   58  183 1    
   120   59   60 am   BACKBONE|DICT|INTERRES
   121   59  184 1    
   122   60   61 2    
   123   60   62 1    
   124   62   63 1    
   125   62   64 1    
   126   62  185 1    
   127   63  186 1    
   128   63  187 1    
   129   63  188 1    
   130   64   65 am   BACKBONE|DICT|INTERRES
   131   64  189 1    
   132   65   66 2    
   133   67   68 2    
   134   67   69 am   BACKBONE|DICT|INTERRES
   135   69   70 1    
   136   69  190 1    
   137   70   71 1    
   138   70   72 1    
   139   70  191 1    
   140   71  192 1    
   141   71  193 1    
   142   71  194 1    
   143   72   73 2    
   144   72   74 am   BACKBONE|DICT|INTERRES
   145   74   75 1    
   146   74  195 1    
   147   75   76 1    
   148   75   77 1    
   149   75  196 1    
   150   76  197 1    
   151   76  198 1    
   152   76  199 1    
   153   77   78 2    
   154   77   79 am   BACKBONE|DICT|INTERRES
   155   79   80 1    
   156   79  200 1    
   157   80   81 1    
   158   80   82 1    
   159   80  201 1    
   160   81  202 1    
   161   81  203 1    
   162   81  204 1    
   163   82   83 2    
   164   82   84 am   BACKBONE|DICT|INTERRES
   165   84   85 1    
   166   84  205 1    
   167   85   86 1    
   168   85   87 1    
   169   85  206 1    
   170   86  207 1    
   171   86  208 1    
   172   86  209 1    
   173   87   88 2    
   174   87   89 am   BACKBONE|DICT|INTERRES
   175   89   90 1    
   176   89  210 1    
   177   90   91 1    
   178   90   92 1    
   179   90  211 1    
   180   91  212 1    
   181   91  213 1    
   182   91  214 1    
   183   92   93 2    
   184   92   94 am   BACKBONE|DICT|INTERRES
   185   94   95 1    
   186   94  215 1    
   187   95   96 1    
   188   95   97 1    
   189   95  216 1    
   190   96  217 1    
   191   96  218 1    
   192   96  219 1    
   193   97   98 2    
   194   97   99 am   BACKBONE|DICT|INTERRES
   195   99  100 1    
   196   99  220 1    
   197  100  101 1    
   198  100  102 1    
   199  100  221 1    
   200  101  222 1    
   201  101  223 1    
   202  101  224 1    
   203  102  103 2    
   204  102  104 am   BACKBONE|DICT|INTERRES
   205  104  105 1    
   206  104  225 1    
   207  105  106 1    
   208  105  107 1    
   209  105  226 1    
   210  106  227 1    
   211  106  228 1    
   212  106  229 1    
   213  107  108 2    
   214  107  109 am   BACKBONE|DICT|INTERRES
   215  109  110 1    
   216  109  230 1    
   217  110  111 1    
   218  110  112 1    
   219  110  231 1    
   220  111  232 1    
   221  111  233 1    
   222  111  234 1    
   223  112  113 2    
   224  112  114 am   BACKBONE|DICT|INTERRES
   225  114  115 1    
   226  114  235 1    
   227  115  116 1    
   228  115  117 1    
   229  115  236 1    
   230  116  237 1    
   231  116  238 1    
   232  116  239 1    
   233  117  118 2    
   234  117  119 am   BACKBONE|DICT|INTERRES
   235  119  120 1    
   236  119  240 1    
   237  120  121 1    
   238  120  124 1    
   239  120  241 1    
   240  121  122 am   BACKBONE|DICT|INTERRES
   241  121  123 2    
   242  122  242 1    
   243  122  243 1    
   244  124  125 1    
   245  124  244 1    
   246  124  245 1    
   247  125  126 1    
   248  126  246 1    
   249  126  247 1    
@<TRIPOS>SUBSTRUCTURE
     1 UNK         1 GROUP             0       ****    0 ROOT    
