@<TRIPOS>MOLECULE
3R540
247   249    1
SMALL
USER_CHARGES


@<TRIPOS>ATOM
      1 CA         -2.3886   -9.0305  -47.7053 C.3       0 UNK        -0.1800 
      2 C          -1.6508  -10.3330  -47.9763 C.2       0 UNK         0.5000 
      3 O          -0.4996  -10.4778  -47.5673 O.2       0 UNK        -0.5000 
      4 N          -2.3130  -11.2833  -48.6494 N.am      1 UNK        -0.5000 
      5 CA         -1.7955  -12.6147  -48.9958 C.3       1 UNK         0.1400 
      6 C6         -2.7988  -13.4173  -49.8668 C.3       23 UNK        -0.0398 
      7 S7         -4.4706  -13.5769  -49.1365 S.3       23 UNK        -0.2404 
      8 C8         -5.4801  -14.0165  -50.5865 C.3       23 UNK        -0.0205 
      9 C9         -5.0714  -15.3497  -51.1963 C.ar      23 UNK        -0.0193 
     10 C10        -4.5394  -15.3972  -52.4879 C.ar      23 UNK        -0.1150 
     11 C11        -4.1539  -16.6159  -53.0532 C.ar      23 UNK        -0.0193 
     12 C12        -4.3136  -17.7944  -52.3190 C.ar      23 UNK        -0.1150 
     13 C13        -4.8556  -17.7627  -51.0303 C.ar      23 UNK        -0.0193 
     14 C14        -5.2328  -16.5370  -50.4747 C.ar      23 UNK        -0.1150 
     15 C15        -5.0027  -19.0472  -50.2299 C.3       23 UNK        -0.0205 
     16 S16        -6.7104  -19.6703  -50.2355 S.3       23 UNK        -0.2404 
     17 C17        -6.5806  -21.3983  -49.6349 C.3       23 UNK        -0.0398 
     18 CA         -5.4242  -21.7431  -48.6580 C.3       11 UNK         0.1400 
     19 N          -5.4561  -20.9296  -47.4332 N.am      11 UNK        -0.5000 
     20 C          -4.5302  -20.9763  -46.4646 C.2       10 UNK         0.5000 
     21 O          -3.5813  -21.7632  -46.4691 O.2       10 UNK        -0.5000 
     22 CA         -4.7308  -20.0436  -45.2621 C.3       10 UNK         0.1400 
     23 CB         -5.5515  -20.7543  -44.1749 C.3       10 UNK        -0.1800 
     24 N          -3.4326  -19.6661  -44.7041 N.am      10 UNK        -0.5000 
     25 C          -2.7821  -18.5344  -44.9978 C.2       9 UNK         0.5000 
     26 O          -3.2544  -17.6425  -45.7024 O.2       9 UNK        -0.5000 
     27 CA         -1.3768  -18.3405  -44.3957 C.3       9 UNK         0.1400 
     28 CB         -1.4140  -17.3220  -43.2473 C.3       9 UNK        -0.1800 
     29 N          -0.7406  -19.5596  -43.8957 N.am      9 UNK        -0.5000 
     30 C          -0.1786  -20.5030  -44.6624 C.2       8 UNK         0.5000 
     31 O          -0.2557  -20.5263  -45.8879 O.2       8 UNK        -0.5000 
     32 CA          0.6739  -21.5463  -43.9088 C.3       8 UNK         0.1400 
     33 CB          1.3700  -22.5525  -44.8494 C.3       8 UNK        -0.1800 
     34 N           1.6480  -20.9027  -43.0131 N.am      8 UNK        -0.5000 
     35 C           2.5813  -20.0045  -43.3665 C.2       7 UNK         0.5000 
     36 O           2.8123  -19.6640  -44.5286 O.2       7 UNK        -0.5000 
     37 CA          3.3955  -19.3711  -42.2286 C.3       7 UNK         0.1400 
     38 CB          4.8055  -19.9774  -42.1639 C.3       7 UNK        -0.1800 
     39 N           3.5035  -17.9380  -42.4824 N.am      7 UNK        -0.5000 
     40 C           2.6793  -17.0041  -41.9984 C.2       6 UNK         0.5000 
     41 O           1.8115  -17.2324  -41.1549 O.2       6 UNK        -0.5000 
     42 CA          2.8277  -15.5790  -42.5672 C.3       6 UNK         0.1400 
     43 CB          4.1665  -14.9310  -42.1647 C.3       6 UNK        -0.1800 
     44 N           2.5973  -15.4981  -44.0142 N.am      6 UNK        -0.5000 
     45 C           3.3176  -16.0284  -45.0147 C.2       5 UNK         0.5000 
     46 O           4.3667  -16.6551  -44.8570 O.2       5 UNK        -0.5000 
     47 CA          2.7777  -15.8005  -46.4378 C.3       5 UNK         0.1400 
     48 CB          1.5089  -16.6283  -46.6842 C.3       5 UNK        -0.1800 
     49 N           2.4951  -14.3917  -46.7065 N.am      5 UNK        -0.5000 
     50 C           3.4270  -13.4348  -46.8161 C.2       4 UNK         0.5000 
     51 O           4.6393  -13.6462  -46.7622 O.2       4 UNK        -0.5000 
     52 CA          2.9192  -11.9930  -47.0009 C.3       4 UNK         0.1400 
     53 CB          2.5634  -11.7190  -48.4705 C.3       4 UNK        -0.1800 
     54 N           1.7649  -11.6956  -46.1535 N.am      4 UNK        -0.5000 
     55 C           1.8030  -11.6179  -44.8157 C.2       3 UNK         0.5000 
     56 O           2.8338  -11.7225  -44.1505 O.2       3 UNK        -0.5000 
     57 CA          0.4593  -11.4075  -44.0962 C.3       3 UNK         0.1400 
     58 CB          0.0916   -9.9166  -44.0444 C.3       3 UNK        -0.1800 
     59 N          -0.6309  -12.1567  -44.7199 N.am      3 UNK        -0.5000 
     60 C          -0.7599  -13.4898  -44.6730 C.2       2 UNK         0.5000 
     61 O           0.0217  -14.2358  -44.0837 O.2       2 UNK        -0.5000 
     62 CA         -1.9489  -14.0919  -45.4417 C.3       2 UNK         0.1400 
     63 CB         -3.2325  -14.0192  -44.5995 C.3       2 UNK        -0.1800 
     64 N          -2.1905  -13.4366  -46.7243 N.am      2 UNK        -0.5000 
     65 C          -1.3339  -13.4100  -47.7543 C.2       1 UNK         0.5000 
     66 O          -0.2075  -13.9059  -47.7220 O.2       1 UNK        -0.5000 
     67 C          -5.4136  -23.2625  -48.3702 C.2       11 UNK         0.5000 
     68 O          -4.7286  -24.0099  -49.0699 O.2       11 UNK        -0.5000 
     69 N          -6.1450  -23.6771  -47.3251 N.am      12 UNK        -0.5000 
     70 CA         -6.1943  -25.0543  -46.8344 C.3       12 UNK         0.1400 
     71 CB         -7.4056  -25.2149  -45.9040 C.3       12 UNK        -0.1800 
     72 C          -4.9016  -25.4792  -46.1133 C.2       12 UNK         0.5000 
     73 O          -4.4969  -26.6352  -46.2361 O.2       12 UNK        -0.5000 
     74 N          -4.2681  -24.5405  -45.3927 N.am      13 UNK        -0.5000 
     75 CA         -3.0000  -24.7530  -44.6885 C.3       13 UNK         0.1400 
     76 CB         -2.7445  -23.6053  -43.7000 C.3       13 UNK        -0.1800 
     77 C          -1.8211  -24.9126  -45.6627 C.2       13 UNK         0.5000 
     78 O          -0.9219  -25.7131  -45.4050 O.2       13 UNK        -0.5000 
     79 N          -1.8832  -24.2082  -46.8003 N.am      14 UNK        -0.5000 
     80 CA         -0.9949  -24.3416  -47.9569 C.3       14 UNK         0.1400 
     81 CB         -1.1194  -23.0694  -48.8127 C.3       14 UNK        -0.1800 
     82 C          -1.2548  -25.6334  -48.7667 C.2       14 UNK         0.5000 
     83 O          -1.4056  -25.5780  -49.9882 O.2       14 UNK        -0.5000 
     84 N          -1.3347  -26.7744  -48.0654 N.am      15 UNK        -0.5000 
     85 CA         -1.5152  -28.1480  -48.5578 C.3       15 UNK         0.1400 
     86 CB         -0.2353  -28.6067  -49.2866 C.3       15 UNK        -0.1800 
     87 C          -2.7785  -28.3716  -49.4207 C.2       15 UNK         0.5000 
     88 O          -2.8234  -29.3304  -50.1929 O.2       15 UNK        -0.5000 
     89 N          -3.7580  -27.4608  -49.3109 N.am      16 UNK        -0.5000 
     90 CA         -4.9316  -27.2984  -50.1794 C.3       16 UNK         0.1400 
     91 CB         -5.8770  -28.5122  -50.0730 C.3       16 UNK        -0.1800 
     92 C          -4.5809  -26.9400  -51.6442 C.2       16 UNK         0.5000 
     93 O          -5.4546  -27.0023  -52.5104 O.2       16 UNK        -0.5000 
     94 N          -3.3229  -26.5528  -51.8974 N.am      17 UNK        -0.5000 
     95 CA         -2.8043  -26.1284  -53.1962 C.3       17 UNK         0.1400 
     96 CB         -1.3491  -26.6058  -53.3250 C.3       17 UNK        -0.1800 
     97 C          -2.8835  -24.6019  -53.3691 C.2       17 UNK         0.5000 
     98 O          -2.7626  -24.1192  -54.4949 O.2       17 UNK        -0.5000 
     99 N          -3.0673  -23.8706  -52.2586 N.am      18 UNK        -0.5000 
    100 CA        -3.2842  -22.4248  -52.1239 C.3       18 UNK         0.1400 
    101 CB        -4.5425  -21.9878  -52.8979 C.3       18 UNK        -0.1800 
    102 C         -2.0821  -21.5250  -52.4743 C.2       18 UNK         0.5000 
    103 O         -1.9792  -20.4341  -51.9158 O.2       18 UNK        -0.5000 
    104 N         -1.1925  -21.9790  -53.3649 N.am      19 UNK        -0.5000 
    105 CA        -0.0626  -21.2272  -53.9170 C.3       19 UNK         0.1400 
    106 CB         0.6896  -22.1171  -54.9178 C.3       19 UNK        -0.1800 
    107 C          0.9081  -20.6547  -52.8668 C.2       19 UNK         0.5000 
    108 O          1.3551  -19.5183  -53.0181 O.2       19 UNK        -0.5000 
    109 N          1.1904  -21.4290  -51.8093 N.am      20 UNK        -0.5000 
    110 CA         2.0779  -21.0245  -50.7130 C.3       20 UNK         0.1400 
    111 CB         2.5167  -22.2679  -49.9229 C.3       20 UNK        -0.1800 
    112 C          1.4588  -19.9675  -49.7749 C.2       20 UNK         0.5000 
    113 O          2.2031  -19.2439  -49.1136 O.2       20 UNK        -0.5000 
    114 N          0.1222  -19.8882  -49.7447 N.am      21 UNK        -0.5000 
    115 CA        -0.6356  -18.9014  -48.9749 C.3       21 UNK         0.1400 
    116 CB        -1.9730  -19.5232  -48.5573 C.3       21 UNK        -0.1800 
    117 C         -0.8809  -17.6031  -49.7646 C.2       21 UNK         0.5000 
    118 O         -1.2803  -16.6048  -49.1685 O.2       21 UNK        -0.5000 
    119 N         -0.6673  -17.6432  -51.0846 N.am      22 UNK        -0.5000 
    120 CA        -0.8194  -16.5096  -52.0000 C.3       22 UNK         0.1400 
    121 C          0.2837  -15.4260  -51.8228 C.2       22 UNK         0.5000 
    122 N          0.0031  -14.1841  -52.1959 N.am      22 UNK        -0.7600 
    123 O          1.4001  -15.6997  -51.3881 O.2       22 UNK        -0.5000 
    124 C124       -0.9299  -17.0110  -53.4638 C.3       23 UNK        -0.0398 
    125 S125       -1.9061  -15.8892  -54.5223 S.3       23 UNK        -0.2404 
    126 C126       -3.5585  -16.6557  -54.4538 C.3       23 UNK        -0.0205 
    127 H127       -2.4480   -8.8506  -46.6319 H         1 UNK         0.0600 
    128 H128       -3.4029   -9.0476  -48.1048 H         1 UNK         0.0600 
    129 H129       -1.8558   -8.1969  -48.1625 H         1 UNK         0.0600 
    130 H130       -3.2635  -11.1052  -48.9416 H         1 UNK         0.3000 
    131 H131       -0.9024  -12.4522  -49.6030 H         1 UNK         0.0600 
    132 H132       -2.4131  -14.4151  -50.0759 H         1 UNK         0.0800 
    133 H133       -2.8955  -12.9302  -50.8378 H         1 UNK         0.0800 
    134 H134       -5.4191  -13.2133  -51.3225 H         1 UNK         0.0800 
    135 H135       -6.5261  -14.0732  -50.2824 H         1 UNK         0.0800 
    136 H136       -4.4128  -14.4849  -53.0540 H         1 UNK         0.1150 
    137 H137       -4.0044  -18.7364  -52.7481 H         1 UNK         0.1150 
    138 H138       -5.6438  -16.5049  -49.4754 H         1 UNK         0.1150 
    139 H139       -4.6901  -18.8702  -49.2014 H         1 UNK         0.0800 
    140 H140       -4.3438  -19.8065  -50.6465 H         1 UNK         0.0800 
    141 H141       -6.5105  -22.0280  -50.5234 H         1 UNK         0.0800 
    142 H142       -7.5393  -21.6486  -49.1771 H         1 UNK         0.0800 
    143 H143       -4.4748  -21.5289  -49.1468 H         1 UNK         0.0600 
    144 H144       -6.2196  -20.2726  -47.3569 H         1 UNK         0.3000 
    145 H145       -5.2791  -19.1570  -45.5874 H         1 UNK         0.0600 
    146 H146       -5.7084  -20.1033  -43.3147 H         1 UNK         0.0600 
    147 H147       -6.5361  -21.0387  -44.5484 H         1 UNK         0.0600 
    148 H148       -5.0602  -21.6606  -43.8208 H         1 UNK         0.0600 
    149 H149       -2.9451  -20.3727  -44.1750 H         1 UNK         0.3000 
    150 H150       -0.7502  -17.9333  -45.1908 H         1 UNK         0.0600 
    151 H151       -1.9641  -17.7035  -42.3864 H         1 UNK         0.0600 
    152 H152       -1.8966  -16.3979  -43.5571 H         1 UNK         0.0600 
    153 H153       -0.4078  -17.0616  -42.9186 H         1 UNK         0.0600 
    154 H154       -0.6118  -19.6147  -42.8960 H         1 UNK         0.3000 
    155 H155       -0.0125  -22.1089  -43.2751 H         1 UNK         0.0600 
    156 H156        2.0608  -22.0599  -45.5344 H         1 UNK         0.0600 
    157 H157        0.6386  -23.0861  -45.4564 H         1 UNK         0.0600 
    158 H158        1.9299  -23.2981  -44.2853 H         1 UNK         0.0600 
    159 H159        1.5447  -21.1215  -42.0318 H         1 UNK         0.3000 
    160 H160        2.8957  -19.5504  -41.2743 H         1 UNK         0.0600 
    161 H161        5.3509  -19.8305  -43.0972 H         1 UNK         0.0600 
    162 H162        4.7602  -21.0505  -41.9742 H         1 UNK         0.0600 
    163 H163        5.3900  -19.5285  -41.3607 H         1 UNK         0.0600 
    164 H164        4.0921  -17.6671  -43.2663 H         1 UNK         0.3000 
    165 H165        2.0344  -14.9798  -42.1171 H         1 UNK         0.0600 
    166 H166        4.2223  -13.9003  -42.5157 H         1 UNK         0.0600 
    167 H167        5.0247  -15.4681  -42.5687 H         1 UNK         0.0600 
    168 H168        4.2766  -14.9122  -41.0799 H         1 UNK         0.0600 
    169 H169        1.7344  -15.0178  -44.2585 H         1 UNK         0.3000 
    170 H170        3.5404  -16.1369  -47.1431 H         1 UNK         0.0600 
    171 H171        1.6726  -17.6821  -46.4524 H         1 UNK         0.0600 
    172 H172        0.6746  -16.2771  -46.0770 H         1 UNK         0.0600 
    173 H173        1.2067  -16.5661  -47.7295 H         1 UNK         0.0600 
    174 H174        1.5198  -14.1386  -46.8401 H         1 UNK         0.3000 
    175 H175        3.7277  -11.3158  -46.7174 H         1 UNK         0.0600 
    176 H176        1.7453  -12.3529  -48.8137 H         1 UNK         0.0600 
    177 H177        2.2638  -10.6809  -48.6160 H         1 UNK         0.0600 
    178 H178        3.4188  -11.9062  -49.1206 H         1 UNK         0.0600 
    179 H179        0.8810  -11.5369  -46.6282 H         1 UNK         0.3000 
    180 H180        0.5728  -11.7640  -43.0700 H         1 UNK         0.0600 
    181 H181       -0.0477   -9.4986  -45.0418 H         1 UNK         0.0600 
    182 H182        0.8768   -9.3394  -43.5544 H         1 UNK         0.0600 
    183 H183       -0.8281   -9.7564  -43.4817 H         1 UNK         0.0600 
    184 H184       -1.2906  -11.6269  -45.2697 H         1 UNK         0.3000 
    185 H185       -1.7202  -15.1407  -45.6417 H         1 UNK         0.0600 
    186 H186       -3.5769  -12.9915  -44.4779 H         1 UNK         0.0600 
    187 H187       -4.0366  -14.5908  -45.0636 H         1 UNK         0.0600 
    188 H188       -3.0794  -14.4275  -43.6003 H         1 UNK         0.0600 
    189 H189       -3.0921  -12.9993  -46.8490 H         1 UNK         0.3000 
    190 H190       -6.6797  -22.9932  -46.8104 H         1 UNK         0.3000 
    191 H191       -6.3346  -25.7205  -47.6874 H         1 UNK         0.0600 
    192 H192       -7.4827  -26.2395  -45.5374 H         1 UNK         0.0600 
    193 H193       -8.3357  -24.9871  -46.4249 H         1 UNK         0.0600 
    194 H194       -7.3376  -24.5595  -45.0348 H         1 UNK         0.0600 
    195 H195       -4.6245  -23.5967  -45.4047 H         1 UNK         0.3000 
    196 H196       -3.0839  -25.6786  -44.1148 H         1 UNK         0.0600 
    197 H197       -2.6048  -22.6524  -44.2091 H         1 UNK         0.0600 
    198 H198       -3.5707  -23.4976  -42.9974 H         1 UNK         0.0600 
    199 H199       -1.8456  -23.7969  -43.1131 H         1 UNK         0.0600 
    200 H200       -2.6341  -23.5318  -46.8914 H         1 UNK         0.3000 
    201 H201        0.0353  -24.4018  -47.6011 H         1 UNK         0.0600 
    202 H202       -2.1586  -22.8441  -49.0508 H         1 UNK         0.0600 
    203 H203       -0.5781  -23.1541  -49.7547 H         1 UNK         0.0600 
    204 H204       -0.7024  -22.2178  -48.2773 H         1 UNK         0.0600 
    205 H205       -1.2121  -26.6881  -47.0605 H         1 UNK         0.3000 
    206 H206       -1.6398  -28.7742  -47.6734 H         1 UNK         0.0600 
    207 H207        0.6472  -28.4609  -48.6637 H         1 UNK         0.0600 
    208 H208       -0.2803  -29.6674  -49.5360 H         1 UNK         0.0600 
    209 H209       -0.0838  -28.0573  -50.2166 H         1 UNK         0.0600 
    210 H210       -3.6224  -26.7255  -48.6303 H         1 UNK         0.3000 
    211 H211       -5.4729  -26.4362  -49.7923 H         1 UNK         0.0600 
    212 H212       -6.8224  -28.3165  -50.5800 H         1 UNK         0.0600 
    213 H213       -6.1098  -28.7396  -49.0327 H         1 UNK         0.0600 
    214 H214       -5.4461  -29.4057  -50.5250 H         1 UNK         0.0600 
    215 H215       -2.6712  -26.4795  -51.1210 H         1 UNK         0.3000 
    216 H216       -3.3881  -26.5868  -53.9969 H         1 UNK         0.0600 
    217 H217       -0.7065  -26.1536  -52.5686 H         1 UNK         0.0600 
    218 H218       -0.9378  -26.3480  -54.3018 H         1 UNK         0.0600 
    219 H219       -1.2794  -27.6885  -53.2181 H         1 UNK         0.0600 
    220 H220       -3.0877  -24.3820  -51.3857 H         1 UNK         0.3000 
    221 H221       -3.4790  -22.2657  -51.0649 H         1 UNK         0.0600 
    222 H222       -5.4010  -22.6062  -52.6368 H         1 UNK         0.0600 
    223 H223       -4.3997  -22.0550  -53.9767 H         1 UNK         0.0600 
    224 H224       -4.8076  -20.9555  -52.6733 H         1 UNK         0.0600 
    225 H225       -1.4116  -22.8627  -53.8119 H         1 UNK         0.3000 
    226 H226       -0.4803  -20.3803  -54.4651 H         1 UNK         0.0600 
    227 H227        1.0900  -23.0114  -54.4388 H         1 UNK         0.0600 
    228 H228        0.0359  -22.4365  -55.7297 H         1 UNK         0.0600 
    229 H229        1.5266  -21.5810  -55.3673 H         1 UNK         0.0600 
    230 H230        0.7802  -22.3498  -51.7583 H         1 UNK         0.3000 
    231 H231        2.9734  -20.5790  -51.1518 H         1 UNK         0.0600 
    232 H232        1.6784  -22.7571  -49.4298 H         1 UNK         0.0600 
    233 H233        3.2351  -21.9995  -49.1472 H         1 UNK         0.0600 
    234 H234        2.9997  -22.9989  -50.5716 H         1 UNK         0.0600 
    235 H235       -0.4184  -20.4749  -50.3664 H         1 UNK         0.3000 
    236 H236       -0.0904  -18.6408  -48.0662 H         1 UNK         0.0600 
    237 H237       -1.8320  -20.3087  -47.8211 H         1 UNK         0.0600 
    238 H238       -2.6304  -18.7807  -48.1056 H         1 UNK         0.0600 
    239 H239       -2.4893  -19.9646  -49.4044 H         1 UNK         0.0600 
    240 H240       -0.3242  -18.5029  -51.4880 H         1 UNK         0.3000 
    241 H241       -1.7658  -16.0411  -51.7280 H         1 UNK         0.0600 
    242 H242        0.7163  -13.4774  -52.1109 H         1 UNK         0.3800 
    243 H243       -0.8757  -13.9553  -52.6330 H         1 UNK         0.3800 
    244 H244       -1.4043  -17.9934  -53.4952 H         1 UNK         0.0800 
    245 H245        0.0579  -17.1518  -53.9062 H         1 UNK         0.0800 
    246 H246       -3.4981  -17.6803  -54.8241 H         1 UNK         0.0800 
    247 H247       -4.2219  -16.1237  -55.1370 H         1 UNK         0.0800 
@<TRIPOS>BOND
     1    1    2 1    
     2    1  127 1    
     3    1  128 1    
     4    1  129 1    
     5    2    3 2    
     6    2    4 am   BACKBONE|DICT|INTERRES
     7    4    5 1    
     8    4  130 1    
     9    5    6 1    
    10    5   65 1    
    11    5  131 1    
    12    6    7 1    
    13    6  132 1    
    14    6  133 1    
    15    7    8 1    
    16    8    9 1    
    17    8  134 1    
    18    8  135 1    
    19    9   10 ar   
    20    9   14 ar   
    21   10   11 ar   
    22   10  136 1    
    23   11   12 ar   
    24   11  126 1    
    25   12   13 ar   
    26   12  137 1    
    27   13   14 ar   
    28   13   15 1    
    29   14  138 1    
    30   15   16 1    
    31   15  139 1    
    32   15  140 1    
    33   16   17 1    
    34   17   18 1    
    35   17  141 1    
    36   17  142 1    
    37   18   19 1    
    38   18   67 1    
    39   18  143 1    
    40   19   20 am   BACKBONE|DICT|INTERRES
    41   19  144 1    
    42   20   21 2    
    43   20   22 1    
    44   22   23 1    
    45   22   24 1    
    46   22  145 1    
    47   23  146 1    
    48   23  147 1    
    49   23  148 1    
    50   24   25 am   BACKBONE|DICT|INTERRES
    51   24  149 1    
    52   25   26 2    
    53   25   27 1    
    54   27   28 1    
    55   27   29 1    
    56   27  150 1    
    57   28  151 1    
    58   28  152 1    
    59   28  153 1    
    60   29   30 am   BACKBONE|DICT|INTERRES
    61   29  154 1    
    62   30   31 2    
    63   30   32 1    
    64   32   33 1    
    65   32   34 1    
    66   32  155 1    
    67   33  156 1    
    68   33  157 1    
    69   33  158 1    
    70   34   35 am   BACKBONE|DICT|INTERRES
    71   34  159 1    
    72   35   36 2    
    73   35   37 1    
    74   37   38 1    
    75   37   39 1    
    76   37  160 1    
    77   38  161 1    
    78   38  162 1    
    79   38  163 1    
    80   39   40 am   BACKBONE|DICT|INTERRES
    81   39  164 1    
    82   40   41 2    
    83   40   42 1    
    84   42   43 1    
    85   42   44 1    
    86   42  165 1    
    87   43  166 1    
    88   43  167 1    
    89   43  168 1    
    90   44   45 am   BACKBONE|DICT|INTERRES
    91   44  169 1    
    92   45   46 2    
    93   45   47 1    
    94   47   48 1    
    95   47   49 1    
    96   47  170 1    
    97   48  171 1    
    98   48  172 1    
    99   48  173 1    
   100   49   50 am   BACKBONE|DICT|INTERRES
   101   49  174 1    
   102   50   51 2    
   103   50   52 1    
   104   52   53 1    
   105   52   54 1    
   106   52  175 1    
   107   53  176 1    
   108   53  177 1    
   109   53  178 1    
   110   54   55 am   BACKBONE|DICT|INTERRES
   111   54  179 1    
   112   55   56 2    
   113   55   57 1    
   114   57   58 1    
   115   57   59 1    
   116   57  180 1    
   117   58  181 1    
   118   58  182 1    
   119   58  183 1    
   120   59   60 am   BACKBONE|DICT|INTERRES
   121   59  184 1    
   122   60   61 2    
   123   60   62 1    
   124   62   63 1    
   125   62   64 1    
   126   62  185 1    
   127   63  186 1    
   128   63  187 1    
   129   63  188 1    
   130   64   65 am   BACKBONE|DICT|INTERRES
   131   64  189 1    
   132   65   66 2    
   133   67   68 2    
   134   67   69 am   BACKBONE|DICT|INTERRES
   135   69   70 1    
   136   69  190 1    
   137   70   71 1    
   138   70   72 1    
   139   70  191 1    
   140   71  192 1    
   141   71  193 1    
   142   71  194 1    
   143   72   73 2    
   144   72   74 am   BACKBONE|DICT|INTERRES
   145   74   75 1    
   146   74  195 1    
   147   75   76 1    
   148   75   77 1    
   149   75  196 1    
   150   76  197 1    
   151   76  198 1    
   152   76  199 1    
   153   77   78 2    
   154   77   79 am   BACKBONE|DICT|INTERRES
   155   79   80 1    
   156   79  200 1    
   157   80   81 1    
   158   80   82 1    
   159   80  201 1    
   160   81  202 1    
   161   81  203 1    
   162   81  204 1    
   163   82   83 2    
   164   82   84 am   BACKBONE|DICT|INTERRES
   165   84   85 1    
   166   84  205 1    
   167   85   86 1    
   168   85   87 1    
   169   85  206 1    
   170   86  207 1    
   171   86  208 1    
   172   86  209 1    
   173   87   88 2    
   174   87   89 am   BACKBONE|DICT|INTERRES
   175   89   90 1    
   176   89  210 1    
   177   90   91 1    
   178   90   92 1    
   179   90  211 1    
   180   91  212 1    
   181   91  213 1    
   182   91  214 1    
   183   92   93 2    
   184   92   94 am   BACKBONE|DICT|INTERRES
   185   94   95 1    
   186   94  215 1    
   187   95   96 1    
   188   95   97 1    
   189   95  216 1    
   190   96  217 1    
   191   96  218 1    
   192   96  219 1    
   193   97   98 2    
   194   97   99 am   BACKBONE|DICT|INTERRES
   195   99  100 1    
   196   99  220 1    
   197  100  101 1    
   198  100  102 1    
   199  100  221 1    
   200  101  222 1    
   201  101  223 1    
   202  101  224 1    
   203  102  103 2    
   204  102  104 am   BACKBONE|DICT|INTERRES
   205  104  105 1    
   206  104  225 1    
   207  105  106 1    
   208  105  107 1    
   209  105  226 1    
   210  106  227 1    
   211  106  228 1    
   212  106  229 1    
   213  107  108 2    
   214  107  109 am   BACKBONE|DICT|INTERRES
   215  109  110 1    
   216  109  230 1    
   217  110  111 1    
   218  110  112 1    
   219  110  231 1    
   220  111  232 1    
   221  111  233 1    
   222  111  234 1    
   223  112  113 2    
   224  112  114 am   BACKBONE|DICT|INTERRES
   225  114  115 1    
   226  114  235 1    
   227  115  116 1    
   228  115  117 1    
   229  115  236 1    
   230  116  237 1    
   231  116  238 1    
   232  116  239 1    
   233  117  118 2    
   234  117  119 am   BACKBONE|DICT|INTERRES
   235  119  120 1    
   236  119  240 1    
   237  120  121 1    
   238  120  124 1    
   239  120  241 1    
   240  121  122 am   BACKBONE|DICT|INTERRES
   241  121  123 2    
   242  122  242 1    
   243  122  243 1    
   244  124  125 1    
   245  124  244 1    
   246  124  245 1    
   247  125  126 1    
   248  126  246 1    
   249  126  247 1    
@<TRIPOS>SUBSTRUCTURE
     1 UNK         1 GROUP             0       ****    0 ROOT    
