@<TRIPOS>MOLECULE
3R540
247   249    1
SMALL
USER_CHARGES


@<TRIPOS>ATOM
      1 CA         -2.9968   -7.3982  -42.7545 C.3       0 UNK        -0.1800 
      2 C          -3.0682   -8.3918  -43.9057 C.2       0 UNK         0.5000 
      3 O          -3.8058   -8.1656  -44.8653 O.2       0 UNK        -0.5000 
      4 N          -2.3122   -9.4926  -43.8108 N.am      1 UNK        -0.5000 
      5 CA         -2.1974  -10.5233  -44.8448 C.3       1 UNK         0.1400 
      6 C6         -1.5736  -11.8177  -44.2689 C.3       23 UNK        -0.0398 
      7 S7         -1.7185  -13.2619  -45.3751 S.3       23 UNK        -0.2404 
      8 C8         -3.3825  -13.8707  -44.9658 C.3       23 UNK        -0.0205 
      9 C9         -3.5736  -15.3275  -45.3658 C.ar      23 UNK        -0.0193 
     10 C10        -3.6645  -15.6923  -46.7120 C.ar      23 UNK        -0.1150 
     11 C11        -3.8883  -17.0246  -47.0732 C.ar      23 UNK        -0.0193 
     12 C12        -4.0355  -17.9923  -46.0745 C.ar      23 UNK        -0.1150 
     13 C13        -3.9628  -17.6428  -44.7188 C.ar      23 UNK        -0.0193 
     14 C14        -3.7118  -16.3093  -44.3809 C.ar      23 UNK        -0.1150 
     15 C15        -4.1904  -18.6360  -43.5754 C.3       23 UNK        -0.0205 
     16 S16        -4.8330  -20.2832  -44.0421 S.3       23 UNK        -0.2404 
     17 C17        -3.3186  -21.3052  -44.1405 C.3       23 UNK        -0.0398 
     18 CA         -2.9543  -21.7799  -45.5767 C.3       11 UNK         0.1400 
     19 N          -1.5172  -22.0486  -45.6818 N.am      11 UNK        -0.5000 
     20 C          -0.8599  -23.0922  -45.1561 C.2       10 UNK         0.5000 
     21 O          -1.4048  -24.0313  -44.5742 O.2       10 UNK        -0.5000 
     22 CA          0.6757  -23.0474  -45.2537 C.3       10 UNK         0.1400 
     23 CB          1.1598  -23.1307  -46.7106 C.3       10 UNK        -0.1800 
     24 N           1.2317  -21.8460  -44.6315 N.am      10 UNK        -0.5000 
     25 C           1.1750  -21.5555  -43.3237 C.2       9 UNK         0.5000 
     26 O           0.6720  -22.2940  -42.4764 O.2       9 UNK        -0.5000 
     27 CA          1.7889  -20.2142  -42.8827 C.3       9 UNK         0.1400 
     28 CB          3.3093  -20.3467  -42.7063 C.3       9 UNK        -0.1800 
     29 N           1.4924  -19.1286  -43.8175 N.am      9 UNK        -0.5000 
     30 C           0.2846  -18.5628  -43.9563 C.2       8 UNK         0.5000 
     31 O          -0.6787  -18.8403  -43.2436 O.2       8 UNK        -0.5000 
     32 CA          0.1164  -17.5274  -45.0861 C.3       8 UNK         0.1400 
     33 CB          0.5302  -16.1291  -44.6063 C.3       8 UNK        -0.1800 
     34 N           0.8780  -17.8650  -46.2877 N.am      8 UNK        -0.5000 
     35 C           0.6722  -18.9529  -47.0423 C.2       7 UNK         0.5000 
     36 O          -0.2036  -19.7892  -46.8194 O.2       7 UNK        -0.5000 
     37 CA          1.6607  -19.1749  -48.1998 C.3       7 UNK         0.1400 
     38 CB          1.3020  -18.3100  -49.4185 C.3       7 UNK        -0.1800 
     39 N           3.0409  -18.9050  -47.7942 N.am      7 UNK        -0.5000 
     40 C           3.7407  -19.6686  -46.9435 C.2       6 UNK         0.5000 
     41 O           3.2975  -20.6873  -46.4156 O.2       6 UNK        -0.5000 
     42 CA          5.1623  -19.1930  -46.5934 C.3       6 UNK         0.1400 
     43 CB          6.1539  -19.5789  -47.7013 C.3       6 UNK        -0.1800 
     44 N           5.2314  -17.7507  -46.3592 N.am      6 UNK        -0.5000 
     45 C           4.6380  -17.1228  -45.3344 C.2       5 UNK         0.5000 
     46 O           3.9954  -17.6992  -44.4587 O.2       5 UNK        -0.5000 
     47 CA          4.7397  -15.5866  -45.3097 C.3       5 UNK         0.1400 
     48 CB          6.0294  -15.1426  -44.6036 C.3       5 UNK        -0.1800 
     49 N           4.6721  -14.9651  -46.6362 N.am      5 UNK        -0.5000 
     50 C           3.6488  -15.1008  -47.4892 C.2       4 UNK         0.5000 
     51 O           2.6815  -15.8396  -47.2876 O.2       4 UNK        -0.5000 
     52 CA          3.7405  -14.3123  -48.8083 C.3       4 UNK         0.1400 
     53 CB          4.4491  -15.1547  -49.8803 C.3       4 UNK        -0.1800 
     54 N           2.4088  -13.9533  -49.2931 N.am      4 UNK        -0.5000 
     55 C           1.5871  -13.0965  -48.6745 C.2       3 UNK         0.5000 
     56 O           1.9262  -12.3814  -47.7274 O.2       3 UNK        -0.5000 
     57 CA          0.1330  -13.0954  -49.1782 C.3       3 UNK         0.1400 
     58 CB         -0.5793  -14.3770  -48.7207 C.3       3 UNK        -0.1800 
     59 N          -0.6246  -11.9451  -48.6910 N.am      3 UNK        -0.5000 
     60 C          -0.5053  -10.6941  -49.1540 C.2       2 UNK         0.5000 
     61 O           0.2484  -10.3784  -50.0762 O.2       2 UNK        -0.5000 
     62 CA         -1.3946   -9.6149  -48.5044 C.3       2 UNK         0.1400 
     63 CB         -2.5189   -9.1974  -49.4661 C.3       2 UNK        -0.1800 
     64 N          -1.9993  -10.0540  -47.2442 N.am      2 UNK        -0.5000 
     65 C          -1.4009   -9.9779  -46.0494 C.2       1 UNK         0.5000 
     66 O          -0.2769   -9.5027  -45.8714 O.2       1 UNK        -0.5000 
     67 C          -3.8428  -22.9407  -46.1072 C.2       11 UNK         0.5000 
     68 O          -3.4068  -23.7327  -46.9465 O.2       11 UNK        -0.5000 
     69 N          -5.0834  -23.0285  -45.6126 N.am      12 UNK        -0.5000 
     70 CA         -6.0736  -24.0532  -45.9532 C.3       12 UNK         0.1400 
     71 CB         -7.4495  -23.5854  -45.4533 C.3       12 UNK        -0.1800 
     72 C          -5.7429  -25.4574  -45.4042 C.2       12 UNK         0.5000 
     73 O          -6.3899  -26.4254  -45.8054 O.2       12 UNK        -0.5000 
     74 N          -4.7557  -25.5529  -44.5011 N.am      13 UNK        -0.5000 
     75 CA         -4.2002  -26.8161  -44.0127 C.3       13 UNK         0.1400 
     76 CB         -3.3963  -26.5516  -42.7306 C.3       13 UNK        -0.1800 
     77 C          -3.3257  -27.5167  -45.0722 C.2       13 UNK         0.5000 
     78 O          -3.2323  -28.7452  -45.0652 O.2       13 UNK        -0.5000 
     79 N          -2.7190  -26.7276  -45.9674 N.am      14 UNK        -0.5000 
     80 CA         -1.9989  -27.1906  -47.1488 C.3       14 UNK         0.1400 
     81 CB         -0.8529  -26.2053  -47.4263 C.3       14 UNK        -0.1800 
     82 C          -2.9484  -27.2815  -48.3578 C.2       14 UNK         0.5000 
     83 O          -4.1349  -26.9579  -48.2535 O.2       14 UNK        -0.5000 
     84 N          -2.4012  -27.6969  -49.5066 N.am      15 UNK        -0.5000 
     85 CA         -3.0823  -27.7434  -50.8010 C.3       15 UNK         0.1400 
     86 CB         -2.2572  -28.6203  -51.7598 C.3       15 UNK        -0.1800 
     87 C          -3.3174  -26.3241  -51.3597 C.2       15 UNK         0.5000 
     88 O          -2.5888  -25.8827  -52.2500 O.2       15 UNK        -0.5000 
     89 N          -4.3000  -25.6206  -50.7784 N.am      16 UNK        -0.5000 
     90 CA         -4.7238  -24.2495  -51.0812 C.3       16 UNK         0.1400 
     91 CB         -5.4227  -24.1972  -52.4554 C.3       16 UNK        -0.1800 
     92 C          -3.5541  -23.2538  -50.9636 C.2       16 UNK         0.5000 
     93 O          -3.2064  -22.5805  -51.9376 O.2       16 UNK        -0.5000 
     94 N          -2.9106  -23.2411  -49.7871 N.am      17 UNK        -0.5000 
     95 CA         -1.7264  -22.4472  -49.4294 C.3       17 UNK         0.1400 
     96 CB         -2.0599  -20.9416  -49.4866 C.3       17 UNK        -0.1800 
     97 C          -0.4542  -22.7822  -50.2381 C.2       17 UNK         0.5000 
     98 O           0.5483  -22.0848  -50.0906 O.2       17 UNK        -0.5000 
     99 N          -0.5235  -23.8106  -51.1008 N.am      18 UNK        -0.5000 
    100 CA         0.4360  -24.1483  -52.1582 C.3       18 UNK         0.1400 
    101 CB         1.7648  -24.6478  -51.5547 C.3       18 UNK        -0.1800 
    102 C          0.6239  -22.9958  -53.1736 C.2       18 UNK         0.5000 
    103 O          1.6850  -22.8848  -53.7904 O.2       18 UNK        -0.5000 
    104 N         -0.4032  -22.1441  -53.3083 N.am      19 UNK        -0.5000 
    105 CA        -0.3448  -20.8649  -54.0138 C.3       19 UNK         0.1400 
    106 CB         0.2007  -19.7861  -53.0546 C.3       19 UNK        -0.1800 
    107 C         -1.7108  -20.4752  -54.6062 C.2       19 UNK         0.5000 
    108 O         -1.9442  -19.2907  -54.8449 O.2       19 UNK        -0.5000 
    109 N         -2.5967  -21.4634  -54.8122 N.am      20 UNK        -0.5000 
    110 CA        -3.9666  -21.3279  -55.3263 C.3       20 UNK         0.1400 
    111 CB        -3.9506  -20.9286  -56.8166 C.3       20 UNK        -0.1800 
    112 C         -4.8279  -20.3874  -54.4568 C.2       20 UNK         0.5000 
    113 O         -5.4073  -19.4216  -54.9580 O.2       20 UNK        -0.5000 
    114 N         -4.8389  -20.6701  -53.1463 N.am      21 UNK        -0.5000 
    115 CA        -5.5066  -19.9214  -52.0742 C.3       21 UNK         0.1400 
    116 CB        -7.0401  -19.9894  -52.2250 C.3       21 UNK        -0.1800 
    117 C         -4.9692  -18.4823  -51.9358 C.2       21 UNK         0.5000 
    118 O         -5.7225  -17.5632  -51.6116 O.2       21 UNK        -0.5000 
    119 N         -3.6655  -18.3312  -52.1999 N.am      22 UNK        -0.5000 
    120 CA        -2.9087  -17.0703  -52.2416 C.3       22 UNK         0.1400 
    121 C         -3.2529  -16.1545  -53.4582 C.2       22 UNK         0.5000 
    122 N         -3.9866  -16.6189  -54.4637 N.am      22 UNK        -0.7600 
    123 O         -2.8263  -15.0039  -53.5078 O.2       22 UNK        -0.5000 
    124 C124       -2.9146  -16.2863  -50.8976 C.3       23 UNK        -0.0398 
    125 S125       -2.4532  -17.2952  -49.4403 S.3       23 UNK        -0.2404 
    126 C126       -4.0340  -17.4077  -48.5394 C.3       23 UNK        -0.0205 
    127 H127       -3.9835   -7.2669  -42.3103 H         1 UNK         0.0600 
    128 H128       -2.3137   -7.7312  -41.9727 H         1 UNK         0.0600 
    129 H129       -2.6528   -6.4293  -43.1163 H         1 UNK         0.0600 
    130 H130       -1.7040   -9.6031  -43.0120 H         1 UNK         0.3000 
    131 H131       -3.2113  -10.7621  -45.1738 H         1 UNK         0.0600 
    132 H132       -2.0433  -12.0681  -43.3168 H         1 UNK         0.0800 
    133 H133       -0.5167  -11.6669  -44.0411 H         1 UNK         0.0800 
    134 H134       -4.1258  -13.2545  -45.4733 H         1 UNK         0.0800 
    135 H135       -3.5638  -13.7510  -43.8968 H         1 UNK         0.0800 
    136 H136       -3.5699  -14.9374  -47.4795 H         1 UNK         0.1150 
    137 H137       -4.2391  -19.0093  -46.3678 H         1 UNK         0.1150 
    138 H138       -3.6564  -16.0288  -43.3382 H         1 UNK         0.1150 
    139 H139       -3.2758  -18.7367  -42.9921 H         1 UNK         0.0800 
    140 H140       -4.9229  -18.1975  -42.8961 H         1 UNK         0.0800 
    141 H141       -3.4191  -22.1562  -43.4645 H         1 UNK         0.0800 
    142 H142       -2.4920  -20.7232  -43.7329 H         1 UNK         0.0800 
    143 H143       -3.1201  -20.9501  -46.2623 H         1 UNK         0.0600 
    144 H144       -0.9729  -21.3088  -46.1231 H         1 UNK         0.3000 
    145 H145        1.0670  -23.9154  -44.7193 H         1 UNK         0.0600 
    146 H146        2.2456  -23.2129  -46.7575 H         1 UNK         0.0600 
    147 H147        0.7532  -23.9999  -47.2220 H         1 UNK         0.0600 
    148 H148        0.8714  -22.2508  -47.2845 H         1 UNK         0.0600 
    149 H149        1.7171  -21.2054  -45.2506 H         1 UNK         0.3000 
    150 H150        1.3608  -19.9559  -41.9118 H         1 UNK         0.0600 
    151 H151        3.5544  -21.1549  -42.0162 H         1 UNK         0.0600 
    152 H152        3.7389  -19.4314  -42.2992 H         1 UNK         0.0600 
    153 H153        3.8085  -20.5587  -43.6523 H         1 UNK         0.0600 
    154 H154        2.2632  -18.7898  -44.3828 H         1 UNK         0.3000 
    155 H155       -0.9398  -17.4976  -45.3624 H         1 UNK         0.0600 
    156 H156        1.5680  -16.1091  -44.2728 H         1 UNK         0.0600 
    157 H157       -0.0935  -15.8029  -43.7733 H         1 UNK         0.0600 
    158 H158        0.4232  -15.3927  -45.4025 H         1 UNK         0.0600 
    159 H159        1.6049  -17.2104  -46.5668 H         1 UNK         0.3000 
    160 H160        1.5957  -20.2222  -48.4990 H         1 UNK         0.0600 
    161 H161        1.9837  -18.4962  -50.2483 H         1 UNK         0.0600 
    162 H162        1.3360  -17.2457  -49.1859 H         1 UNK         0.0600 
    163 H163        0.2964  -18.5368  -49.7725 H         1 UNK         0.0600 
    164 H164        3.4488  -18.0421  -48.1215 H         1 UNK         0.3000 
    165 H165        5.4650  -19.6997  -45.6744 H         1 UNK         0.0600 
    166 H166        7.1756  -19.3195  -47.4235 H         1 UNK         0.0600 
    167 H167        6.1315  -20.6536  -47.8869 H         1 UNK         0.0600 
    168 H168        5.9241  -19.0782  -48.6427 H         1 UNK         0.0600 
    169 H169        5.7362  -17.1978  -47.0358 H         1 UNK         0.3000 
    170 H170        3.8913  -15.2143  -44.7320 H         1 UNK         0.0600 
    171 H171        6.0967  -15.5761  -43.6047 H         1 UNK         0.0600 
    172 H172        6.9182  -15.4506  -45.1558 H         1 UNK         0.0600 
    173 H173        6.0636  -14.0591  -44.4882 H         1 UNK         0.0600 
    174 H174        5.4366  -14.3531  -46.8829 H         1 UNK         0.3000 
    175 H175        4.3095  -13.3957  -48.6393 H         1 UNK         0.0600 
    176 H176        3.9125  -16.0824  -50.0845 H         1 UNK         0.0600 
    177 H177        4.5380  -14.6056  -50.8179 H         1 UNK         0.0600 
    178 H178        5.4586  -15.4219  -49.5655 H         1 UNK         0.0600 
    179 H179        2.0411  -14.5246  -50.0388 H         1 UNK         0.3000 
    180 H180        0.1385  -13.0672  -50.2699 H         1 UNK         0.0600 
    181 H181       -0.4517  -14.5561  -47.6531 H         1 UNK         0.0600 
    182 H182       -0.1813  -15.2497  -49.2385 H         1 UNK         0.0600 
    183 H183       -1.6483  -14.3335  -48.9252 H         1 UNK         0.0600 
    184 H184       -1.2213  -12.1065  -47.8937 H         1 UNK         0.3000 
    185 H185       -0.7669   -8.7406  -48.3189 H         1 UNK         0.0600 
    186 H186       -2.1115   -8.8273  -50.4079 H         1 UNK         0.0600 
    187 H187       -3.1800  -10.0328  -49.7004 H         1 UNK         0.0600 
    188 H188       -3.1253   -8.3976  -49.0402 H         1 UNK         0.0600 
    189 H189       -2.9327  -10.4352  -47.3048 H         1 UNK         0.3000 
    190 H190       -5.3783  -22.3275  -44.9444 H         1 UNK         0.3000 
    191 H191       -6.1141  -24.1364  -47.0414 H         1 UNK         0.0600 
    192 H192       -7.4655  -23.4736  -44.3685 H         1 UNK         0.0600 
    193 H193       -8.2289  -24.2998  -45.7217 H         1 UNK         0.0600 
    194 H194       -7.7246  -22.6269  -45.8941 H         1 UNK         0.0600 
    195 H195       -4.2758  -24.7100  -44.2230 H         1 UNK         0.3000 
    196 H196       -5.0255  -27.4869  -43.7648 H         1 UNK         0.0600 
    197 H197       -2.5561  -25.8806  -42.9124 H         1 UNK         0.0600 
    198 H198       -2.9922  -27.4803  -42.3258 H         1 UNK         0.0600 
    199 H199       -4.0218  -26.1053  -41.9574 H         1 UNK         0.0600 
    200 H200       -2.8919  -25.7309  -45.9255 H         1 UNK         0.3000 
    201 H201       -1.5763  -28.1806  -46.9662 H         1 UNK         0.0600 
    202 H202       -0.2176  -26.5436  -48.2453 H         1 UNK         0.0600 
    203 H203       -0.2147  -26.0972  -46.5491 H         1 UNK         0.0600 
    204 H204       -1.2331  -25.2180  -47.6902 H         1 UNK         0.0600 
    205 H205       -1.4197  -27.9329  -49.5182 H         1 UNK         0.3000 
    206 H206       -4.0574  -28.2176  -50.6705 H         1 UNK         0.0600 
    207 H207       -2.1666  -29.6389  -51.3823 H         1 UNK         0.0600 
    208 H208       -2.7320  -28.6793  -52.7401 H         1 UNK         0.0600 
    209 H209       -1.2506  -28.2261  -51.9055 H         1 UNK         0.0600 
    210 H210       -4.7443  -26.0507  -49.9730 H         1 UNK         0.3000 
    211 H211       -5.4552  -23.9686  -50.3220 H         1 UNK         0.0600 
    212 H212       -4.7314  -24.4051  -53.2730 H         1 UNK         0.0600 
    213 H213       -5.8608  -23.2157  -52.6345 H         1 UNK         0.0600 
    214 H214       -6.2328  -24.9242  -52.5116 H         1 UNK         0.0600 
    215 H215       -3.2628  -23.8199  -49.0314 H         1 UNK         0.3000 
    216 H216       -1.4855  -22.6951  -48.3969 H         1 UNK         0.0600 
    217 H217       -2.9143  -20.7010  -48.8547 H         1 UNK         0.0600 
    218 H218       -2.2848  -20.6053  -50.4984 H         1 UNK         0.0600 
    219 H219       -1.2233  -20.3406  -49.1356 H         1 UNK         0.0600 
    220 H220       -1.4026  -24.3086  -51.1626 H         1 UNK         0.3000 
    221 H221       -0.0039  -24.9750  -52.7175 H         1 UNK         0.0600 
    222 H222        2.3050  -23.8496  -51.0450 H         1 UNK         0.0600 
    223 H223        1.5939  -25.4493  -50.8361 H         1 UNK         0.0600 
    224 H224        2.4220  -25.0427  -52.3301 H         1 UNK         0.0600 
    225 H225       -1.2449  -22.3157  -52.7682 H         1 UNK         0.3000 
    226 H226        0.3360  -20.9507  -54.8629 H         1 UNK         0.0600 
    227 H227       -0.4578  -19.6447  -52.1967 H         1 UNK         0.0600 
    228 H228        1.1855  -20.0564  -52.6730 H         1 UNK         0.0600 
    229 H229        0.3050  -18.8228  -53.5551 H         1 UNK         0.0600 
    230 H230       -2.3155  -22.4025  -54.5680 H         1 UNK         0.3000 
    231 H231       -4.4246  -22.3156  -55.2550 H         1 UNK         0.0600 
    232 H232       -3.3658  -21.6340  -57.4067 H         1 UNK         0.0600 
    233 H233       -3.5283  -19.9347  -56.9675 H         1 UNK         0.0600 
    234 H234       -4.9605  -20.9201  -57.2284 H         1 UNK         0.0600 
    235 H235       -4.2586  -21.4455  -52.8292 H         1 UNK         0.3000 
    236 H236       -5.2463  -20.4276  -51.1435 H         1 UNK         0.0600 
    237 H237       -7.5374  -19.5544  -51.3573 H         1 UNK         0.0600 
    238 H238       -7.3857  -19.4463  -53.1050 H         1 UNK         0.0600 
    239 H239       -7.3824  -21.0206  -52.3106 H         1 UNK         0.0600 
    240 H240       -3.1550  -19.1454  -52.5058 H         1 UNK         0.3000 
    241 H241       -1.8774  -17.3761  -52.4201 H         1 UNK         0.0600 
    242 H242       -4.3263  -17.5723  -54.4650 H         1 UNK         0.3800 
    243 H243       -4.1881  -16.0178  -55.2464 H         1 UNK         0.3800 
    244 H244       -2.1954  -15.4689  -50.9562 H         1 UNK         0.0800 
    245 H245       -3.8807  -15.8066  -50.7409 H         1 UNK         0.0800 
    246 H246       -4.7927  -16.7667  -48.9882 H         1 UNK         0.0800 
    247 H247       -4.4115  -18.4263  -48.6379 H         1 UNK         0.0800 
@<TRIPOS>BOND
     1    1    2 1    
     2    1  127 1    
     3    1  128 1    
     4    1  129 1    
     5    2    3 2    
     6    2    4 am   BACKBONE|DICT|INTERRES
     7    4    5 1    
     8    4  130 1    
     9    5    6 1    
    10    5   65 1    
    11    5  131 1    
    12    6    7 1    
    13    6  132 1    
    14    6  133 1    
    15    7    8 1    
    16    8    9 1    
    17    8  134 1    
    18    8  135 1    
    19    9   10 ar   
    20    9   14 ar   
    21   10   11 ar   
    22   10  136 1    
    23   11   12 ar   
    24   11  126 1    
    25   12   13 ar   
    26   12  137 1    
    27   13   14 ar   
    28   13   15 1    
    29   14  138 1    
    30   15   16 1    
    31   15  139 1    
    32   15  140 1    
    33   16   17 1    
    34   17   18 1    
    35   17  141 1    
    36   17  142 1    
    37   18   19 1    
    38   18   67 1    
    39   18  143 1    
    40   19   20 am   BACKBONE|DICT|INTERRES
    41   19  144 1    
    42   20   21 2    
    43   20   22 1    
    44   22   23 1    
    45   22   24 1    
    46   22  145 1    
    47   23  146 1    
    48   23  147 1    
    49   23  148 1    
    50   24   25 am   BACKBONE|DICT|INTERRES
    51   24  149 1    
    52   25   26 2    
    53   25   27 1    
    54   27   28 1    
    55   27   29 1    
    56   27  150 1    
    57   28  151 1    
    58   28  152 1    
    59   28  153 1    
    60   29   30 am   BACKBONE|DICT|INTERRES
    61   29  154 1    
    62   30   31 2    
    63   30   32 1    
    64   32   33 1    
    65   32   34 1    
    66   32  155 1    
    67   33  156 1    
    68   33  157 1    
    69   33  158 1    
    70   34   35 am   BACKBONE|DICT|INTERRES
    71   34  159 1    
    72   35   36 2    
    73   35   37 1    
    74   37   38 1    
    75   37   39 1    
    76   37  160 1    
    77   38  161 1    
    78   38  162 1    
    79   38  163 1    
    80   39   40 am   BACKBONE|DICT|INTERRES
    81   39  164 1    
    82   40   41 2    
    83   40   42 1    
    84   42   43 1    
    85   42   44 1    
    86   42  165 1    
    87   43  166 1    
    88   43  167 1    
    89   43  168 1    
    90   44   45 am   BACKBONE|DICT|INTERRES
    91   44  169 1    
    92   45   46 2    
    93   45   47 1    
    94   47   48 1    
    95   47   49 1    
    96   47  170 1    
    97   48  171 1    
    98   48  172 1    
    99   48  173 1    
   100   49   50 am   BACKBONE|DICT|INTERRES
   101   49  174 1    
   102   50   51 2    
   103   50   52 1    
   104   52   53 1    
   105   52   54 1    
   106   52  175 1    
   107   53  176 1    
   108   53  177 1    
   109   53  178 1    
   110   54   55 am   BACKBONE|DICT|INTERRES
   111   54  179 1    
   112   55   56 2    
   113   55   57 1    
   114   57   58 1    
   115   57   59 1    
   116   57  180 1    
   117   58  181 1    
   118   58  182 1    
   119   58  183 1    
   120   59   60 am   BACKBONE|DICT|INTERRES
   121   59  184 1    
   122   60   61 2    
   123   60   62 1    
   124   62   63 1    
   125   62   64 1    
   126   62  185 1    
   127   63  186 1    
   128   63  187 1    
   129   63  188 1    
   130   64   65 am   BACKBONE|DICT|INTERRES
   131   64  189 1    
   132   65   66 2    
   133   67   68 2    
   134   67   69 am   BACKBONE|DICT|INTERRES
   135   69   70 1    
   136   69  190 1    
   137   70   71 1    
   138   70   72 1    
   139   70  191 1    
   140   71  192 1    
   141   71  193 1    
   142   71  194 1    
   143   72   73 2    
   144   72   74 am   BACKBONE|DICT|INTERRES
   145   74   75 1    
   146   74  195 1    
   147   75   76 1    
   148   75   77 1    
   149   75  196 1    
   150   76  197 1    
   151   76  198 1    
   152   76  199 1    
   153   77   78 2    
   154   77   79 am   BACKBONE|DICT|INTERRES
   155   79   80 1    
   156   79  200 1    
   157   80   81 1    
   158   80   82 1    
   159   80  201 1    
   160   81  202 1    
   161   81  203 1    
   162   81  204 1    
   163   82   83 2    
   164   82   84 am   BACKBONE|DICT|INTERRES
   165   84   85 1    
   166   84  205 1    
   167   85   86 1    
   168   85   87 1    
   169   85  206 1    
   170   86  207 1    
   171   86  208 1    
   172   86  209 1    
   173   87   88 2    
   174   87   89 am   BACKBONE|DICT|INTERRES
   175   89   90 1    
   176   89  210 1    
   177   90   91 1    
   178   90   92 1    
   179   90  211 1    
   180   91  212 1    
   181   91  213 1    
   182   91  214 1    
   183   92   93 2    
   184   92   94 am   BACKBONE|DICT|INTERRES
   185   94   95 1    
   186   94  215 1    
   187   95   96 1    
   188   95   97 1    
   189   95  216 1    
   190   96  217 1    
   191   96  218 1    
   192   96  219 1    
   193   97   98 2    
   194   97   99 am   BACKBONE|DICT|INTERRES
   195   99  100 1    
   196   99  220 1    
   197  100  101 1    
   198  100  102 1    
   199  100  221 1    
   200  101  222 1    
   201  101  223 1    
   202  101  224 1    
   203  102  103 2    
   204  102  104 am   BACKBONE|DICT|INTERRES
   205  104  105 1    
   206  104  225 1    
   207  105  106 1    
   208  105  107 1    
   209  105  226 1    
   210  106  227 1    
   211  106  228 1    
   212  106  229 1    
   213  107  108 2    
   214  107  109 am   BACKBONE|DICT|INTERRES
   215  109  110 1    
   216  109  230 1    
   217  110  111 1    
   218  110  112 1    
   219  110  231 1    
   220  111  232 1    
   221  111  233 1    
   222  111  234 1    
   223  112  113 2    
   224  112  114 am   BACKBONE|DICT|INTERRES
   225  114  115 1    
   226  114  235 1    
   227  115  116 1    
   228  115  117 1    
   229  115  236 1    
   230  116  237 1    
   231  116  238 1    
   232  116  239 1    
   233  117  118 2    
   234  117  119 am   BACKBONE|DICT|INTERRES
   235  119  120 1    
   236  119  240 1    
   237  120  121 1    
   238  120  124 1    
   239  120  241 1    
   240  121  122 am   BACKBONE|DICT|INTERRES
   241  121  123 2    
   242  122  242 1    
   243  122  243 1    
   244  124  125 1    
   245  124  244 1    
   246  124  245 1    
   247  125  126 1    
   248  126  246 1    
   249  126  247 1    
@<TRIPOS>SUBSTRUCTURE
     1 UNK         1 GROUP             0       ****    0 ROOT    
