@<TRIPOS>MOLECULE
3R540
247   249    1
SMALL
USER_CHARGES


@<TRIPOS>ATOM
      1 CA         -4.3833  -14.6229  -42.0438 C.3       0 UNK        -0.1800 
      2 C          -4.3902  -13.4366  -42.9988 C.2       0 UNK         0.5000 
      3 O          -4.6768  -12.3133  -42.5833 O.2       0 UNK        -0.5000 
      4 N          -4.0824  -13.6885  -44.2759 N.am      1 UNK        -0.5000 
      5 CA         -3.9572  -12.6805  -45.3360 C.3       1 UNK         0.1400 
      6 C6         -4.0531  -13.3155  -46.7503 C.3       23 UNK        -0.0398 
      7 S7         -5.5540  -14.3311  -46.9930 S.3       23 UNK        -0.2404 
      8 C8         -4.8902  -16.0307  -46.9768 C.3       23 UNK        -0.0205 
      9 C9         -4.0950  -16.3486  -48.2348 C.ar      23 UNK        -0.0193 
     10 C10        -4.7567  -16.6264  -49.4333 C.ar      23 UNK        -0.1150 
     11 C11        -4.0335  -16.9031  -50.5970 C.ar      23 UNK        -0.0193 
     12 C12        -2.6355  -16.9199  -50.5477 C.ar      23 UNK        -0.1150 
     13 C13        -1.9599  -16.6468  -49.3560 C.ar      23 UNK        -0.0193 
     14 C14        -2.6985  -16.3578  -48.2053 C.ar      23 UNK        -0.1150 
     15 C15        -0.4364  -16.6139  -49.3285 C.3       23 UNK        -0.0205 
     16 S16         0.3038  -18.2375  -48.9549 S.3       23 UNK        -0.2404 
     17 C17        -0.2009  -18.4902  -47.2245 C.3       23 UNK        -0.0398 
     18 CA         -1.2773  -19.5984  -47.1025 C.3       11 UNK         0.1400 
     19 N          -0.6780  -20.9249  -47.0004 N.am      11 UNK        -0.5000 
     20 C          -1.2729  -22.0693  -47.3523 C.2       10 UNK         0.5000 
     21 O          -2.4091  -22.1297  -47.8191 O.2       10 UNK        -0.5000 
     22 CA         -0.4692  -23.3619  -47.1447 C.3       10 UNK         0.1400 
     23 CB          0.5642  -23.5473  -48.2662 C.3       10 UNK        -0.1800 
     24 N           0.2298  -23.3478  -45.8607 N.am      10 UNK        -0.5000 
     25 C          -0.0813  -24.1224  -44.8139 C.2       9 UNK         0.5000 
     26 O          -1.0019  -24.9402  -44.8174 O.2       9 UNK        -0.5000 
     27 CA          0.7840  -23.9804  -43.5440 C.3       9 UNK         0.1400 
     28 CB          1.8369  -25.0979  -43.4882 C.3       9 UNK        -0.1800 
     29 N           1.4616  -22.6887  -43.4133 N.am      9 UNK        -0.5000 
     30 C           0.8383  -21.5208  -43.2151 C.2       8 UNK         0.5000 
     31 O          -0.3835  -21.3985  -43.1555 O.2       8 UNK        -0.5000 
     32 CA          1.7237  -20.2675  -43.0980 C.3       8 UNK         0.1400 
     33 CB          2.2434  -20.1270  -41.6594 C.3       8 UNK        -0.1800 
     34 N           2.8544  -20.1815  -44.0311 N.am      8 UNK        -0.5000 
     35 C           2.8345  -20.4217  -45.3515 C.2       7 UNK         0.5000 
     36 O           1.8880  -20.9416  -45.9436 O.2       7 UNK        -0.5000 
     37 CA          4.0631  -19.9480  -46.1412 C.3       7 UNK         0.1400 
     38 CB          3.8710  -20.0306  -47.6680 C.3       7 UNK        -0.1800 
     39 N           4.3661  -18.5730  -45.7535 N.am      7 UNK        -0.5000 
     40 C           5.5921  -18.0420  -45.6780 C.2       6 UNK         0.5000 
     41 O           6.6191  -18.6519  -45.9787 O.2       6 UNK        -0.5000 
     42 CA          5.7005  -16.5886  -45.1700 C.3       6 UNK         0.1400 
     43 CB          5.8655  -15.6209  -46.3516 C.3       6 UNK        -0.1800 
     44 N           4.5617  -16.1514  -44.3575 N.am      6 UNK        -0.5000 
     45 C           4.2217  -16.6599  -43.1628 C.2       5 UNK         0.5000 
     46 O           4.8505  -17.5583  -42.6032 O.2       5 UNK        -0.5000 
     47 CA          2.9576  -16.0936  -42.4828 C.3       5 UNK         0.1400 
     48 CB          3.3428  -15.1238  -41.3559 C.3       5 UNK        -0.1800 
     49 N           2.0404  -15.4132  -43.3980 N.am      5 UNK        -0.5000 
     50 C           1.3809  -15.9930  -44.4093 C.2       4 UNK         0.5000 
     51 O           1.4513  -17.1936  -44.6727 O.2       4 UNK        -0.5000 
     52 CA          0.5044  -15.0806  -45.2849 C.3       4 UNK         0.1400 
     53 CB         -0.9673  -15.2447  -44.8935 C.3       4 UNK        -0.1800 
     54 N           0.8571  -13.6573  -45.2361 N.am      4 UNK        -0.5000 
     55 C           2.0109  -13.1398  -45.6872 C.2       3 UNK         0.5000 
     56 O           2.9331  -13.8371  -46.1138 O.2       3 UNK        -0.5000 
     57 CA          2.1850  -11.6047  -45.6176 C.3       3 UNK         0.1400 
     58 CB          3.0699  -11.0596  -46.7584 C.3       3 UNK        -0.1800 
     59 N           0.9260  -10.8522  -45.5242 N.am      3 UNK        -0.5000 
     60 C          -0.0549  -10.7826  -46.4361 C.2       2 UNK         0.5000 
     61 O          -0.0333  -11.3497  -47.5302 O.2       2 UNK        -0.5000 
     62 CA         -1.2981   -9.9638  -46.0297 C.3       2 UNK         0.1400 
     63 CB         -1.5357   -8.8001  -47.0051 C.3       2 UNK        -0.1800 
     64 N          -2.5038  -10.7946  -45.9658 N.am      2 UNK        -0.5000 
     65 C          -2.6457  -11.8716  -45.1808 C.2       1 UNK         0.5000 
     66 O          -1.7746  -12.2392  -44.3857 O.2       1 UNK        -0.5000 
     67 C          -2.2496  -19.3725  -45.9310 C.2       11 UNK         0.5000 
     68 O          -3.4503  -19.5684  -46.1099 O.2       11 UNK        -0.5000 
     69 N          -1.7352  -18.9588  -44.7634 N.am      12 UNK        -0.5000 
     70 CA         -2.5315  -18.5098  -43.6131 C.3       12 UNK         0.1400 
     71 CB         -1.5910  -18.0736  -42.4771 C.3       12 UNK        -0.1800 
     72 C          -3.5533  -19.5365  -43.0891 C.2       12 UNK         0.5000 
     73 O          -4.6646  -19.1552  -42.7205 O.2       12 UNK        -0.5000 
     74 N          -3.1545  -20.8117  -43.0625 N.am      13 UNK        -0.5000 
     75 CA         -3.9387  -21.9083  -42.5046 C.3       13 UNK         0.1400 
     76 CB         -2.9714  -23.0060  -42.0325 C.3       13 UNK        -0.1800 
     77 C          -4.9831  -22.5046  -43.4669 C.2       13 UNK         0.5000 
     78 O          -5.8289  -23.2656  -42.9921 O.2       13 UNK        -0.5000 
     79 N          -4.9097  -22.2144  -44.7768 N.am      14 UNK        -0.5000 
     80 CA         -5.6956  -22.9487  -45.7772 C.3       14 UNK         0.1400 
     81 CB         -4.9279  -24.2184  -46.1930 C.3       14 UNK        -0.1800 
     82 C          -6.1202  -22.1531  -47.0219 C.2       14 UNK         0.5000 
     83 O          -7.1546  -22.4964  -47.5966 O.2       14 UNK        -0.5000 
     84 N          -5.3320  -21.1546  -47.4500 N.am      15 UNK        -0.5000 
     85 CA         -5.4240  -20.4654  -48.7471 C.3       15 UNK         0.1400 
     86 CB         -6.6619  -19.5471  -48.7985 C.3       15 UNK        -0.1800 
     87 C          -5.3583  -21.4674  -49.9222 C.2       15 UNK         0.5000 
     88 O          -6.2517  -21.5053  -50.7720 O.2       15 UNK        -0.5000 
     89 N          -4.3315  -22.3268  -49.8857 N.am      16 UNK        -0.5000 
     90 CA         -4.1633  -23.5053  -50.7310 C.3       16 UNK         0.1400 
     91 CB         -3.1370  -24.4413  -50.0712 C.3       16 UNK        -0.1800 
     92 C          -3.7948  -23.1680  -52.1886 C.2       16 UNK         0.5000 
     93 O          -2.6688  -23.4180  -52.6257 O.2       16 UNK        -0.5000 
     94 N          -4.7706  -22.6497  -52.9425 N.am      17 UNK        -0.5000 
     95 CA         -4.6870  -22.4024  -54.3847 C.3       17 UNK         0.1400 
     96 CB         -5.9939  -21.7547  -54.8640 C.3       17 UNK        -0.1800 
     97 C          -4.3794  -23.6737  -55.2021 C.2       17 UNK         0.5000 
     98 O          -3.6691  -23.5941  -56.2034 O.2       17 UNK        -0.5000 
     99 N          -4.8568  -24.8309  -54.7206 N.am      18 UNK        -0.5000 
    100 CA        -4.5664  -26.1604  -55.2649 C.3       18 UNK         0.1400 
    101 CB        -5.4938  -27.1845  -54.5934 C.3       18 UNK        -0.1800 
    102 C         -3.0910  -26.5873  -55.1075 C.2       18 UNK         0.5000 
    103 O         -2.6130  -27.4018  -55.8974 O.2       18 UNK        -0.5000 
    104 N         -2.3929  -26.0184  -54.1142 N.am      19 UNK        -0.5000 
    105 CA        -0.9562  -26.1903  -53.8824 C.3       19 UNK         0.1400 
    106 CB        -0.7053  -26.2708  -52.3667 C.3       19 UNK        -0.1800 
    107 C         -0.1325  -25.0477  -54.5139 C.2       19 UNK         0.5000 
    108 O          1.0796  -24.9930  -54.3034 O.2       19 UNK        -0.5000 
    109 N         -0.8017  -24.1512  -55.2560 N.am      20 UNK        -0.5000 
    110 CA        -0.2805  -22.9506  -55.9129 C.3       20 UNK         0.1400 
    111 CB         0.7902  -23.3057  -56.9659 C.3       20 UNK        -0.1800 
    112 C          0.1822  -21.8502  -54.9354 C.2       20 UNK         0.5000 
    113 O          0.9165  -20.9508  -55.3485 O.2       20 UNK        -0.5000 
    114 N         -0.2878  -21.8873  -53.6770 N.am      21 UNK        -0.5000 
    115 CA         0.0171  -20.8817  -52.6496 C.3       21 UNK         0.1400 
    116 CB        -0.5261  -21.3580  -51.2938 C.3       21 UNK        -0.1800 
    117 C         -0.5460  -19.4910  -53.0015 C.2       21 UNK         0.5000 
    118 O          0.0680  -18.4747  -52.6783 O.2       21 UNK        -0.5000 
    119 N         -1.6839  -19.4914  -53.7033 N.am      22 UNK        -0.5000 
    120 CA        -2.3487  -18.3096  -54.2678 C.3       22 UNK         0.1400 
    121 C         -1.8361  -17.9164  -55.6860 C.2       22 UNK         0.5000 
    122 N         -0.8153  -18.5615  -56.2404 N.am      22 UNK        -0.7600 
    123 O         -2.3684  -16.9944  -56.2977 O.2       22 UNK        -0.5000 
    124 C124       -3.8918  -18.4631  -54.2342 C.3       23 UNK        -0.0398 
    125 S125       -4.5304  -18.8108  -52.5565 S.3       23 UNK        -0.2404 
    126 C126       -4.7611  -17.1231  -51.9151 C.3       23 UNK        -0.0205 
    127 H127       -4.1419  -15.5555  -42.5546 H         1 UNK         0.0600 
    128 H128       -5.3618  -14.7355  -41.5770 H         1 UNK         0.0600 
    129 H129       -3.6448  -14.4662  -41.2576 H         1 UNK         0.0600 
    130 H130       -3.8537  -14.6312  -44.5460 H         1 UNK         0.3000 
    131 H131       -4.7857  -11.9773  -45.2272 H         1 UNK         0.0600 
    132 H132       -4.0775  -12.5340  -47.5112 H         1 UNK         0.0800 
    133 H133       -3.1689  -13.9082  -46.9766 H         1 UNK         0.0800 
    134 H134       -4.2820  -16.1849  -46.0847 H         1 UNK         0.0800 
    135 H135       -5.7227  -16.7308  -46.8954 H         1 UNK         0.0800 
    136 H136       -5.8370  -16.6016  -49.4614 H         1 UNK         0.1150 
    137 H137       -2.0672  -17.1298  -51.4407 H         1 UNK         0.1150 
    138 H138       -2.1880  -16.1243  -47.2859 H         1 UNK         0.1150 
    139 H139       -0.0851  -15.8737  -48.6087 H         1 UNK         0.0800 
    140 H140       -0.0633  -16.2846  -50.2996 H         1 UNK         0.0800 
    141 H141       -0.5451  -17.5393  -46.8266 H         1 UNK         0.0800 
    142 H142        0.6860  -18.7361  -46.6430 H         1 UNK         0.0800 
    143 H143       -1.8932  -19.5677  -48.0051 H         1 UNK         0.0600 
    144 H144        0.2687  -20.9589  -46.6277 H         1 UNK         0.3000 
    145 H145       -1.1705  -24.1976  -47.1941 H         1 UNK         0.0600 
    146 H146        0.0739  -23.6599  -49.2316 H         1 UNK         0.0600 
    147 H147        1.1615  -24.4447  -48.1052 H         1 UNK         0.0600 
    148 H148        1.2473  -22.6993  -48.3355 H         1 UNK         0.0600 
    149 H149        0.9719  -22.6632  -45.7573 H         1 UNK         0.3000 
    150 H150        0.1193  -24.0965  -42.6854 H         1 UNK         0.0600 
    151 H151        2.5480  -25.0209  -44.3116 H         1 UNK         0.0600 
    152 H152        1.3681  -26.0810  -43.5500 H         1 UNK         0.0600 
    153 H153        2.3980  -25.0660  -42.5540 H         1 UNK         0.0600 
    154 H154        2.4690  -22.6922  -43.4763 H         1 UNK         0.3000 
    155 H155        1.0846  -19.4094  -43.3066 H         1 UNK         0.0600 
    156 H156        2.9100  -20.9478  -41.3921 H         1 UNK         0.0600 
    157 H157        1.4198  -20.1256  -40.9440 H         1 UNK         0.0600 
    158 H158        2.7926  -19.1970  -41.5208 H         1 UNK         0.0600 
    159 H159        3.6912  -19.7580  -43.6545 H         1 UNK         0.3000 
    160 H160        4.8877  -20.6050  -45.8573 H         1 UNK         0.0600 
    161 H161        3.0491  -19.3967  -48.0024 H         1 UNK         0.0600 
    162 H162        3.6493  -21.0513  -47.9821 H         1 UNK         0.0600 
    163 H163        4.7711  -19.7173  -48.1967 H         1 UNK         0.0600 
    164 H164        3.5727  -18.0116  -45.4672 H         1 UNK         0.3000 
    165 H165        6.5963  -16.5266  -44.5488 H         1 UNK         0.0600 
    166 H166        6.0117  -14.5969  -46.0071 H         1 UNK         0.0600 
    167 H167        6.7321  -15.8865  -46.9584 H         1 UNK         0.0600 
    168 H168        4.9912  -15.6325  -47.0039 H         1 UNK         0.0600 
    169 H169        3.9836  -15.4215  -44.7548 H         1 UNK         0.3000 
    170 H170        2.4183  -16.9333  -42.0418 H         1 UNK         0.0600 
    171 H171        2.4625  -14.7798  -40.8125 H         1 UNK         0.0600 
    172 H172        3.8651  -14.2471  -41.7411 H         1 UNK         0.0600 
    173 H173        4.0008  -15.6064  -40.6319 H         1 UNK         0.0600 
    174 H174        1.9137  -14.4218  -43.2582 H         1 UNK         0.3000 
    175 H175        0.6266  -15.4138  -46.3168 H         1 UNK         0.0600 
    176 H176       -1.2850  -16.2811  -44.9715 H         1 UNK         0.0600 
    177 H177       -1.1535  -14.9161  -43.8701 H         1 UNK         0.0600 
    178 H178       -1.6045  -14.6656  -45.5546 H         1 UNK         0.0600 
    179 H179        0.1397  -13.0277  -44.8922 H         1 UNK         0.3000 
    180 H180        2.7129  -11.4148  -44.6822 H         1 UNK         0.0600 
    181 H181        2.6497  -11.2817  -47.7396 H         1 UNK         0.0600 
    182 H182        4.0675  -11.4994  -46.7255 H         1 UNK         0.0600 
    183 H183        3.1921   -9.9792  -46.6817 H         1 UNK         0.0600 
    184 H184        0.7822  -10.3747  -44.6448 H         1 UNK         0.3000 
    185 H185       -1.1350   -9.5412  -45.0360 H         1 UNK         0.0600 
    186 H186       -0.6566   -8.1573  -47.0660 H         1 UNK         0.0600 
    187 H187       -1.7520   -9.1562  -48.0132 H         1 UNK         0.0600 
    188 H188       -2.3705   -8.1777  -46.6822 H         1 UNK         0.0600 
    189 H189       -3.2441  -10.5491  -46.6065 H         1 UNK         0.3000 
    190 H190       -0.7336  -18.8737  -44.6726 H         1 UNK         0.3000 
    191 H191       -3.0966  -17.6344  -43.9390 H         1 UNK         0.0600 
    192 H192       -0.8797  -17.3175  -42.8054 H         1 UNK         0.0600 
    193 H193       -2.1568  -17.6450  -41.6489 H         1 UNK         0.0600 
    194 H194       -1.0227  -18.9148  -42.0799 H         1 UNK         0.0600 
    195 H195       -2.1938  -21.0261  -43.3229 H         1 UNK         0.3000 
    196 H196       -4.4785  -21.5429  -41.6283 H         1 UNK         0.0600 
    197 H197       -3.5071  -23.8221  -41.5461 H         1 UNK         0.0600 
    198 H198       -2.2510  -22.6167  -41.3129 H         1 UNK         0.0600 
    199 H199       -2.4147  -23.4312  -42.8678 H         1 UNK         0.0600 
    200 H200       -4.2305  -21.5393  -45.1017 H         1 UNK         0.3000 
    201 H201       -6.6375  -23.2678  -45.3256 H         1 UNK         0.0600 
    202 H202       -5.4643  -24.7715  -46.9652 H         1 UNK         0.0600 
    203 H203       -4.7920  -24.8939  -45.3482 H         1 UNK         0.0600 
    204 H204       -3.9408  -23.9778  -46.5875 H         1 UNK         0.0600 
    205 H205       -4.5174  -20.8902  -46.9048 H         1 UNK         0.3000 
    206 H206       -4.5390  -19.8320  -48.8290 H         1 UNK         0.0600 
    207 H207       -6.6502  -18.8278  -47.9803 H         1 UNK         0.0600 
    208 H208       -6.6845  -18.9820  -49.7309 H         1 UNK         0.0600 
    209 H209       -7.5928  -20.1109  -48.7374 H         1 UNK         0.0600 
    210 H210       -3.6477  -22.2204  -49.1375 H         1 UNK         0.3000 
    211 H211       -5.1164  -24.0374  -50.7549 H         1 UNK         0.0600 
    212 H212       -2.1507  -23.9807  -50.0202 H         1 UNK         0.0600 
    213 H213       -3.0414  -25.3723  -50.6303 H         1 UNK         0.0600 
    214 H214       -3.4356  -24.7035  -49.0561 H         1 UNK         0.0600 
    215 H215       -5.6285  -22.3766  -52.4728 H         1 UNK         0.3000 
    216 H216       -3.8696  -21.6993  -54.5516 H         1 UNK         0.0600 
    217 H217       -6.8480  -22.4169  -54.7177 H         1 UNK         0.0600 
    218 H218       -5.9431  -21.5115  -55.9261 H         1 UNK         0.0600 
    219 H219       -6.1961  -20.8275  -54.3276 H         1 UNK         0.0600 
    220 H220       -5.4359  -24.7984  -53.8945 H         1 UNK         0.3000 
    221 H221       -4.7904  -26.1432  -56.3336 H         1 UNK         0.0600 
    222 H222       -5.3284  -27.2317  -53.5162 H         1 UNK         0.0600 
    223 H223       -6.5423  -26.9387  -54.7628 H         1 UNK         0.0600 
    224 H224       -5.3275  -28.1850  -54.9950 H         1 UNK         0.0600 
    225 H225       -2.8424  -25.3187  -53.5367 H         1 UNK         0.3000 
    226 H226       -0.6154  -27.1254  -54.3311 H         1 UNK         0.0600 
    227 H227       -1.3303  -27.0323  -51.9001 H         1 UNK         0.0600 
    228 H228        0.3326  -26.5312  -52.1566 H         1 UNK         0.0600 
    229 H229       -0.9057  -25.3194  -51.8740 H         1 UNK         0.0600 
    230 H230       -1.7980  -24.2901  -55.3696 H         1 UNK         0.3000 
    231 H231       -1.1267  -22.5215  -56.4508 H         1 UNK         0.0600 
    232 H232        1.7147  -23.6544  -56.5055 H         1 UNK         0.0600 
    233 H233        1.0402  -22.4379  -57.5773 H         1 UNK         0.0600 
    234 H234        0.4359  -24.0841  -57.6418 H         1 UNK         0.0600 
    235 H235       -0.9248  -22.6301  -53.4079 H         1 UNK         0.3000 
    236 H236        1.1034  -20.7997  -52.5753 H         1 UNK         0.0600 
    237 H237       -1.6138  -21.2997  -51.2470 H         1 UNK         0.0600 
    238 H238       -0.2373  -22.3894  -51.0985 H         1 UNK         0.0600 
    239 H239       -0.1341  -20.7486  -50.4800 H         1 UNK         0.0600 
    240 H240       -2.1036  -20.3824  -53.9163 H         1 UNK         0.3000 
    241 H241       -2.1019  -17.4495  -53.6456 H         1 UNK         0.0600 
    242 H242       -0.5004  -18.2813  -57.1559 H         1 UNK         0.3800 
    243 H243       -0.3196  -19.2944  -55.7488 H         1 UNK         0.3800 
    244 H244       -4.2013  -19.2766  -54.8908 H         1 UNK         0.0800 
    245 H245       -4.3838  -17.5699  -54.6224 H         1 UNK         0.0800 
    246 H246       -4.4019  -16.3833  -52.6311 H         1 UNK         0.0800 
    247 H247       -5.8308  -16.9403  -51.8029 H         1 UNK         0.0800 
@<TRIPOS>BOND
     1    1    2 1    
     2    1  127 1    
     3    1  128 1    
     4    1  129 1    
     5    2    3 2    
     6    2    4 am   BACKBONE|DICT|INTERRES
     7    4    5 1    
     8    4  130 1    
     9    5    6 1    
    10    5   65 1    
    11    5  131 1    
    12    6    7 1    
    13    6  132 1    
    14    6  133 1    
    15    7    8 1    
    16    8    9 1    
    17    8  134 1    
    18    8  135 1    
    19    9   10 ar   
    20    9   14 ar   
    21   10   11 ar   
    22   10  136 1    
    23   11   12 ar   
    24   11  126 1    
    25   12   13 ar   
    26   12  137 1    
    27   13   14 ar   
    28   13   15 1    
    29   14  138 1    
    30   15   16 1    
    31   15  139 1    
    32   15  140 1    
    33   16   17 1    
    34   17   18 1    
    35   17  141 1    
    36   17  142 1    
    37   18   19 1    
    38   18   67 1    
    39   18  143 1    
    40   19   20 am   BACKBONE|DICT|INTERRES
    41   19  144 1    
    42   20   21 2    
    43   20   22 1    
    44   22   23 1    
    45   22   24 1    
    46   22  145 1    
    47   23  146 1    
    48   23  147 1    
    49   23  148 1    
    50   24   25 am   BACKBONE|DICT|INTERRES
    51   24  149 1    
    52   25   26 2    
    53   25   27 1    
    54   27   28 1    
    55   27   29 1    
    56   27  150 1    
    57   28  151 1    
    58   28  152 1    
    59   28  153 1    
    60   29   30 am   BACKBONE|DICT|INTERRES
    61   29  154 1    
    62   30   31 2    
    63   30   32 1    
    64   32   33 1    
    65   32   34 1    
    66   32  155 1    
    67   33  156 1    
    68   33  157 1    
    69   33  158 1    
    70   34   35 am   BACKBONE|DICT|INTERRES
    71   34  159 1    
    72   35   36 2    
    73   35   37 1    
    74   37   38 1    
    75   37   39 1    
    76   37  160 1    
    77   38  161 1    
    78   38  162 1    
    79   38  163 1    
    80   39   40 am   BACKBONE|DICT|INTERRES
    81   39  164 1    
    82   40   41 2    
    83   40   42 1    
    84   42   43 1    
    85   42   44 1    
    86   42  165 1    
    87   43  166 1    
    88   43  167 1    
    89   43  168 1    
    90   44   45 am   BACKBONE|DICT|INTERRES
    91   44  169 1    
    92   45   46 2    
    93   45   47 1    
    94   47   48 1    
    95   47   49 1    
    96   47  170 1    
    97   48  171 1    
    98   48  172 1    
    99   48  173 1    
   100   49   50 am   BACKBONE|DICT|INTERRES
   101   49  174 1    
   102   50   51 2    
   103   50   52 1    
   104   52   53 1    
   105   52   54 1    
   106   52  175 1    
   107   53  176 1    
   108   53  177 1    
   109   53  178 1    
   110   54   55 am   BACKBONE|DICT|INTERRES
   111   54  179 1    
   112   55   56 2    
   113   55   57 1    
   114   57   58 1    
   115   57   59 1    
   116   57  180 1    
   117   58  181 1    
   118   58  182 1    
   119   58  183 1    
   120   59   60 am   BACKBONE|DICT|INTERRES
   121   59  184 1    
   122   60   61 2    
   123   60   62 1    
   124   62   63 1    
   125   62   64 1    
   126   62  185 1    
   127   63  186 1    
   128   63  187 1    
   129   63  188 1    
   130   64   65 am   BACKBONE|DICT|INTERRES
   131   64  189 1    
   132   65   66 2    
   133   67   68 2    
   134   67   69 am   BACKBONE|DICT|INTERRES
   135   69   70 1    
   136   69  190 1    
   137   70   71 1    
   138   70   72 1    
   139   70  191 1    
   140   71  192 1    
   141   71  193 1    
   142   71  194 1    
   143   72   73 2    
   144   72   74 am   BACKBONE|DICT|INTERRES
   145   74   75 1    
   146   74  195 1    
   147   75   76 1    
   148   75   77 1    
   149   75  196 1    
   150   76  197 1    
   151   76  198 1    
   152   76  199 1    
   153   77   78 2    
   154   77   79 am   BACKBONE|DICT|INTERRES
   155   79   80 1    
   156   79  200 1    
   157   80   81 1    
   158   80   82 1    
   159   80  201 1    
   160   81  202 1    
   161   81  203 1    
   162   81  204 1    
   163   82   83 2    
   164   82   84 am   BACKBONE|DICT|INTERRES
   165   84   85 1    
   166   84  205 1    
   167   85   86 1    
   168   85   87 1    
   169   85  206 1    
   170   86  207 1    
   171   86  208 1    
   172   86  209 1    
   173   87   88 2    
   174   87   89 am   BACKBONE|DICT|INTERRES
   175   89   90 1    
   176   89  210 1    
   177   90   91 1    
   178   90   92 1    
   179   90  211 1    
   180   91  212 1    
   181   91  213 1    
   182   91  214 1    
   183   92   93 2    
   184   92   94 am   BACKBONE|DICT|INTERRES
   185   94   95 1    
   186   94  215 1    
   187   95   96 1    
   188   95   97 1    
   189   95  216 1    
   190   96  217 1    
   191   96  218 1    
   192   96  219 1    
   193   97   98 2    
   194   97   99 am   BACKBONE|DICT|INTERRES
   195   99  100 1    
   196   99  220 1    
   197  100  101 1    
   198  100  102 1    
   199  100  221 1    
   200  101  222 1    
   201  101  223 1    
   202  101  224 1    
   203  102  103 2    
   204  102  104 am   BACKBONE|DICT|INTERRES
   205  104  105 1    
   206  104  225 1    
   207  105  106 1    
   208  105  107 1    
   209  105  226 1    
   210  106  227 1    
   211  106  228 1    
   212  106  229 1    
   213  107  108 2    
   214  107  109 am   BACKBONE|DICT|INTERRES
   215  109  110 1    
   216  109  230 1    
   217  110  111 1    
   218  110  112 1    
   219  110  231 1    
   220  111  232 1    
   221  111  233 1    
   222  111  234 1    
   223  112  113 2    
   224  112  114 am   BACKBONE|DICT|INTERRES
   225  114  115 1    
   226  114  235 1    
   227  115  116 1    
   228  115  117 1    
   229  115  236 1    
   230  116  237 1    
   231  116  238 1    
   232  116  239 1    
   233  117  118 2    
   234  117  119 am   BACKBONE|DICT|INTERRES
   235  119  120 1    
   236  119  240 1    
   237  120  121 1    
   238  120  124 1    
   239  120  241 1    
   240  121  122 am   BACKBONE|DICT|INTERRES
   241  121  123 2    
   242  122  242 1    
   243  122  243 1    
   244  124  125 1    
   245  124  244 1    
   246  124  245 1    
   247  125  126 1    
   248  126  246 1    
   249  126  247 1    
@<TRIPOS>SUBSTRUCTURE
     1 UNK         1 GROUP             0       ****    0 ROOT    
