@<TRIPOS>MOLECULE
3R540
247   249    1
SMALL
USER_CHARGES


@<TRIPOS>ATOM
      1 CA          3.9761  -17.3130  -49.2622 C.3       0 UNK        -0.1800 
      2 C           4.2341  -16.3891  -50.4515 C.2       0 UNK         0.5000 
      3 O           5.0174  -16.7427  -51.3308 O.2       0 UNK        -0.5000 
      4 N           3.6120  -15.2061  -50.5294 N.am      1 UNK        -0.5000 
      5 CA          2.7088  -14.6157  -49.5393 C.3       1 UNK         0.1400 
      6 C6          1.4417  -14.0065  -50.1912 C.3       23 UNK        -0.0398 
      7 S7          0.4132  -15.2768  -50.9975 S.3       23 UNK        -0.2404 
      8 C8         -0.5749  -15.8438  -49.5764 C.3       23 UNK        -0.0205 
      9 C9         -1.1217  -17.2498  -49.7705 C.ar      23 UNK        -0.0193 
     10 C10        -2.4745  -17.5135  -49.5551 C.ar      23 UNK        -0.1150 
     11 C11        -2.9742  -18.8134  -49.6648 C.ar      23 UNK        -0.0193 
     12 C12        -2.1071  -19.8595  -49.9959 C.ar      23 UNK        -0.1150 
     13 C13        -0.7476  -19.6117  -50.2129 C.ar      23 UNK        -0.0193 
     14 C14        -0.2669  -18.3029  -50.1039 C.ar      23 UNK        -0.1150 
     15 C15         0.1930  -20.7631  -50.5585 C.3       23 UNK        -0.0205 
     16 S16         1.8031  -20.7053  -49.6869 S.3       23 UNK        -0.2404 
     17 C17         1.3045  -20.5554  -47.9334 C.3       23 UNK        -0.0398 
     18 CA          1.2398  -21.8999  -47.1740 C.3       11 UNK         0.1400 
     19 N           1.0456  -21.6977  -45.7384 N.am      11 UNK        -0.5000 
     20 C           1.0567  -22.6662  -44.8119 C.2       10 UNK         0.5000 
     21 O           1.3022  -23.8478  -45.0544 O.2       10 UNK        -0.5000 
     22 CA          0.6745  -22.2509  -43.3809 C.3       10 UNK         0.1400 
     23 CB          1.8594  -21.5788  -42.6718 C.3       10 UNK        -0.1800 
     24 N          -0.4918  -21.3661  -43.3483 N.am      10 UNK        -0.5000 
     25 C          -1.7180  -21.7158  -43.7653 C.2       9 UNK         0.5000 
     26 O          -2.0035  -22.8382  -44.1838 O.2       9 UNK        -0.5000 
     27 CA         -2.7996  -20.6208  -43.7478 C.3       9 UNK         0.1400 
     28 CB         -3.3432  -20.4135  -42.3264 C.3       9 UNK        -0.1800 
     29 N          -2.3285  -19.3447  -44.2882 N.am      9 UNK        -0.5000 
     30 C          -1.9274  -19.1576  -45.5539 C.2       8 UNK         0.5000 
     31 O          -1.9337  -20.0407  -46.4091 O.2       8 UNK        -0.5000 
     32 CA         -1.3713  -17.7673  -45.9109 C.3       8 UNK         0.1400 
     33 CB         -2.5048  -16.7481  -46.0985 C.3       8 UNK        -0.1800 
     34 N          -0.4247  -17.2702  -44.9127 N.am      8 UNK        -0.5000 
     35 C           0.7271  -17.8759  -44.5898 C.2       7 UNK         0.5000 
     36 O           1.1505  -18.8893  -45.1437 O.2       7 UNK        -0.5000 
     37 CA          1.5132  -17.2773  -43.4136 C.3       7 UNK         0.1400 
     38 CB          2.3295  -16.0582  -43.8640 C.3       7 UNK        -0.1800 
     39 N           0.6344  -16.9064  -42.3051 N.am      7 UNK        -0.5000 
     40 C          -0.0258  -17.7875  -41.5396 C.2       6 UNK         0.5000 
     41 O           0.0604  -19.0083  -41.6687 O.2       6 UNK        -0.5000 
     42 CA         -0.9756  -17.2019  -40.4800 C.3       6 UNK         0.1400 
     43 CB         -0.2005  -16.8061  -39.2145 C.3       6 UNK        -0.1800 
     44 N          -1.7199  -16.0443  -40.9774 N.am      6 UNK        -0.5000 
     45 C          -2.6360  -16.0984  -41.9544 C.2       5 UNK         0.5000 
     46 O          -2.9733  -17.1378  -42.5193 O.2       5 UNK        -0.5000 
     47 CA         -3.2432  -14.7587  -42.4061 C.3       5 UNK         0.1400 
     48 CB         -4.4504  -14.3906  -41.5309 C.3       5 UNK        -0.1800 
     49 N          -2.2789  -13.6551  -42.3964 N.am      5 UNK        -0.5000 
     50 C          -1.1929  -13.5897  -43.1767 C.2       4 UNK         0.5000 
     51 O          -0.8542  -14.4795  -43.9627 O.2       4 UNK        -0.5000 
     52 CA         -0.3223  -12.3363  -43.0352 C.3       4 UNK         0.1400 
     53 CB          0.8604  -12.5963  -42.0880 C.3       4 UNK        -0.1800 
     54 N           0.1804  -11.9800  -44.3561 N.am      4 UNK        -0.5000 
     55 C           0.2884  -10.7370  -44.8394 C.2       3 UNK         0.5000 
     56 O           0.0287   -9.7241  -44.1865 O.2       3 UNK        -0.5000 
     57 CA          0.7610  -10.6245  -46.3047 C.3       3 UNK         0.1400 
     58 CB          1.0924   -9.1794  -46.7352 C.3       3 UNK        -0.1800 
     59 N           1.8692  -11.5387  -46.6069 N.am      3 UNK        -0.5000 
     60 C           3.1073  -11.5231  -46.0862 C.2       2 UNK         0.5000 
     61 O           3.5058  -10.6734  -45.2891 O.2       2 UNK        -0.5000 
     62 CA          4.0622  -12.6613  -46.5068 C.3       2 UNK         0.1400 
     63 CB          4.5693  -13.4232  -45.2713 C.3       2 UNK        -0.1800 
     64 N           3.4352  -13.6204  -47.4243 N.am      2 UNK        -0.5000 
     65 C           3.4836  -13.5399  -48.7603 C.2       1 UNK         0.5000 
     66 O           4.0833  -12.6563  -49.3761 O.2       1 UNK        -0.5000 
     67 C           0.1643  -22.8357  -47.7558 C.2       11 UNK         0.5000 
     68 O           0.5177  -23.8127  -48.4129 O.2       11 UNK        -0.5000 
     69 N          -1.1159  -22.5466  -47.4802 N.am      12 UNK        -0.5000 
     70 CA         -2.2601  -23.3346  -47.9380 C.3       12 UNK         0.1400 
     71 CB         -3.5663  -22.6576  -47.5007 C.3       12 UNK        -0.1800 
     72 C          -2.2186  -24.7935  -47.4552 C.2       12 UNK         0.5000 
     73 O          -2.4982  -25.6956  -48.2433 O.2       12 UNK        -0.5000 
     74 N          -1.8320  -25.0005  -46.1891 N.am      13 UNK        -0.5000 
     75 CA         -1.6346  -26.3195  -45.5910 C.3       13 UNK         0.1400 
     76 CB         -1.4375  -26.1682  -44.0750 C.3       13 UNK        -0.1800 
     77 C          -0.4611  -27.0942  -46.2204 C.2       13 UNK         0.5000 
     78 O          -0.5944  -28.2929  -46.4694 O.2       13 UNK        -0.5000 
     79 N           0.6597  -26.4025  -46.4676 N.am      14 UNK        -0.5000 
     80 CA          1.8712  -26.9742  -47.0550 C.3       14 UNK         0.1400 
     81 CB          3.0512  -26.0161  -46.8286 C.3       14 UNK        -0.1800 
     82 C           1.7173  -27.3028  -48.5507 C.2       14 UNK         0.5000 
     83 O           2.0973  -28.3949  -48.9753 O.2       14 UNK        -0.5000 
     84 N           1.1776  -26.3514  -49.3228 N.am      15 UNK        -0.5000 
     85 CA          1.0077  -26.4570  -50.7720 C.3       15 UNK         0.1400 
     86 CB          0.8606  -25.0458  -51.3654 C.3       15 UNK        -0.1800 
     87 C          -0.1954  -27.3233  -51.1795 C.2       15 UNK         0.5000 
     88 O          -0.1897  -27.8700  -52.2830 O.2       15 UNK        -0.5000 
     89 N          -1.2100  -27.4014  -50.3039 N.am      16 UNK        -0.5000 
     90 CA         -2.5255  -28.0144  -50.5253 C.3       16 UNK         0.1400 
     91 CB         -2.4033  -29.5394  -50.7278 C.3       16 UNK        -0.1800 
     92 C          -3.3229  -27.3114  -51.6474 C.2       16 UNK         0.5000 
     93 O          -4.1173  -27.9540  -52.3370 O.2       16 UNK        -0.5000 
     94 N          -3.0904  -26.0036  -51.8171 N.am      17 UNK        -0.5000 
     95 CA         -3.6579  -25.1622  -52.8631 C.3       17 UNK         0.1400 
     96 CB         -2.9251  -25.4175  -54.1938 C.3       17 UNK        -0.1800 
     97 C          -3.5391  -23.6872  -52.4548 C.2       17 UNK         0.5000 
     98 O          -2.6804  -23.3364  -51.6413 O.2       17 UNK        -0.5000 
     99 N          -4.4002  -22.8546  -53.0464 N.am      18 UNK        -0.5000 
    100 CA        -4.4015  -21.4012  -52.9038 C.3       18 UNK         0.1400 
    101 CB        -5.8048  -20.8920  -53.2702 C.3       18 UNK        -0.1800 
    102 C         -3.3521  -20.7452  -53.8194 C.2       18 UNK         0.5000 
    103 O         -3.0497  -21.2843  -54.8872 O.2       18 UNK        -0.5000 
    104 N         -2.8677  -19.5653  -53.4171 N.am      19 UNK        -0.5000 
    105 CA        -1.9961  -18.7015  -54.2208 C.3       19 UNK         0.1400 
    106 CB        -0.5201  -18.9750  -53.8824 C.3       19 UNK        -0.1800 
    107 C         -2.3754  -17.2160  -54.0582 C.2       19 UNK         0.5000 
    108 O         -1.5594  -16.3384  -54.3429 O.2       19 UNK        -0.5000 
    109 N         -3.6111  -16.9580  -53.6177 N.am      20 UNK        -0.5000 
    110 CA        -4.2025  -15.6424  -53.4049 C.3       20 UNK         0.1400 
    111 CB        -3.7237  -15.0616  -52.0578 C.3       20 UNK        -0.1800 
    112 C         -5.7325  -15.7950  -53.4795 C.2       20 UNK         0.5000 
    113 O         -6.2238  -16.8183  -53.9682 O.2       20 UNK        -0.5000 
    114 N         -6.4709  -14.7998  -52.9717 N.am      21 UNK        -0.5000 
    115 CA        -7.9313  -14.8035  -52.8360 C.3       21 UNK         0.1400 
    116 CB        -8.4149  -13.3513  -52.6711 C.3       21 UNK        -0.1800 
    117 C         -8.3946  -15.7216  -51.6815 C.2       21 UNK         0.5000 
    118 O         -8.9624  -15.2510  -50.6938 O.2       21 UNK        -0.5000 
    119 N         -8.1024  -17.0162  -51.8203 N.am      22 UNK        -0.5000 
    120 CA        -8.2977  -18.0687  -50.8130 C.3       22 UNK         0.1400 
    121 C         -8.7503  -19.4307  -51.4145 C.2       22 UNK         0.5000 
    122 N         -9.0830  -19.5138  -52.6978 N.am      22 UNK        -0.7600 
    123 O         -8.8310  -20.4278  -50.7025 O.2       22 UNK        -0.5000 
    124 C124       -7.0745  -18.1900  -49.8614 C.3       23 UNK        -0.0398 
    125 S125       -5.4788  -18.4002  -50.7277 S.3       23 UNK        -0.2404 
    126 C126       -4.4469  -19.0711  -49.3943 C.3       23 UNK        -0.0205 
    127 H127        2.9284  -17.6108  -49.2224 H         1 UNK         0.0600 
    128 H128        4.2424  -16.8248  -48.3246 H         1 UNK         0.0600 
    129 H129        4.5733  -18.2213  -49.3456 H         1 UNK         0.0600 
    130 H130        3.8317  -14.5994  -51.3065 H         1 UNK         0.3000 
    131 H131        2.3730  -15.3695  -48.8274 H         1 UNK         0.0600 
    132 H132        1.7140  -13.2631  -50.9427 H         1 UNK         0.0800 
    133 H133        0.8313  -13.4820  -49.4538 H         1 UNK         0.0800 
    134 H134        0.0333  -15.8455  -48.6716 H         1 UNK         0.0800 
    135 H135       -1.3830  -15.1306  -49.4064 H         1 UNK         0.0800 
    136 H136       -3.1433  -16.7088  -49.2847 H         1 UNK         0.1150 
    137 H137       -2.4857  -20.8693  -50.0718 H         1 UNK         0.1150 
    138 H138        0.7819  -18.1026  -50.2681 H         1 UNK         0.1150 
    139 H139       -0.2871  -21.7215  -50.3569 H         1 UNK         0.0800 
    140 H140        0.3826  -20.7462  -51.6315 H         1 UNK         0.0800 
    141 H141        0.3618  -20.0162  -47.8437 H         1 UNK         0.0800 
    142 H142        2.0479  -19.9139  -47.4589 H         1 UNK         0.0800 
    143 H143        2.2044  -22.3978  -47.2938 H         1 UNK         0.0600 
    144 H144        0.8704  -20.7409  -45.4420 H         1 UNK         0.3000 
    145 H145        0.4193  -23.1584  -42.8298 H         1 UNK         0.0600 
    146 H146        1.6237  -21.3652  -41.6291 H         1 UNK         0.0600 
    147 H147        2.7381  -22.2248  -42.6809 H         1 UNK         0.0600 
    148 H148        2.1359  -20.6392  -43.1509 H         1 UNK         0.0600 
    149 H149       -0.3444  -20.4334  -42.9741 H         1 UNK         0.3000 
    150 H150       -3.6235  -20.9617  -44.3780 H         1 UNK         0.0600 
    151 H151       -3.7076  -21.3516  -41.9061 H         1 UNK         0.0600 
    152 H152       -4.1761  -19.7102  -42.3228 H         1 UNK         0.0600 
    153 H153       -2.5769  -20.0265  -41.6542 H         1 UNK         0.0600 
    154 H154       -2.3358  -18.5524  -43.6518 H         1 UNK         0.3000 
    155 H155       -0.8375  -17.8612  -46.8587 H         1 UNK         0.0600 
    156 H156       -2.1219  -15.7989  -46.4738 H         1 UNK         0.0600 
    157 H157       -3.2433  -17.1102  -46.8137 H         1 UNK         0.0600 
    158 H158       -3.0293  -16.5514  -45.1644 H         1 UNK         0.0600 
    159 H159       -0.6771  -16.4133  -44.4305 H         1 UNK         0.3000 
    160 H160        2.2103  -18.0377  -43.0550 H         1 UNK         0.0600 
    161 H161        1.6924  -15.2595  -44.2437 H         1 UNK         0.0600 
    162 H162        3.0238  -16.3300  -44.6602 H         1 UNK         0.0600 
    163 H163        2.9209  -15.6550  -43.0418 H         1 UNK         0.0600 
    164 H164        0.4678  -15.9217  -42.1648 H         1 UNK         0.3000 
    165 H165       -1.6949  -17.9787  -40.2116 H         1 UNK         0.0600 
    166 H166       -0.8755  -16.4619  -38.4307 H         1 UNK         0.0600 
    167 H167        0.3529  -17.6569  -38.8147 H         1 UNK         0.0600 
    168 H168        0.5185  -16.0102  -39.4124 H         1 UNK         0.0600 
    169 H169       -1.5047  -15.1481  -40.5665 H         1 UNK         0.3000 
    170 H170       -3.5945  -14.8856  -43.4321 H         1 UNK         0.0600 
    171 H171       -5.1937  -15.1890  -41.5359 H         1 UNK         0.0600 
    172 H172       -4.1602  -14.2187  -40.4936 H         1 UNK         0.0600 
    173 H173       -4.9423  -13.4890  -41.8964 H         1 UNK         0.0600 
    174 H174       -2.4822  -12.8875  -41.7722 H         1 UNK         0.3000 
    175 H175       -0.9372  -11.5280  -42.6336 H         1 UNK         0.0600 
    176 H176        0.5131  -12.8799  -41.0938 H         1 UNK         0.0600 
    177 H177        1.5035  -13.3968  -42.4550 H         1 UNK         0.0600 
    178 H178        1.4748  -11.7028  -41.9753 H         1 UNK         0.0600 
    179 H179        0.3570  -12.7683  -44.9638 H         1 UNK         0.3000 
    180 H180       -0.0803  -10.9560  -46.9152 H         1 UNK         0.0600 
    181 H181        1.8813   -8.7410  -46.1237 H         1 UNK         0.0600 
    182 H182        0.2165   -8.5361  -46.6446 H         1 UNK         0.0600 
    183 H183        1.4146   -9.1424  -47.7758 H         1 UNK         0.0600 
    184 H184        1.6535  -12.2832  -47.2516 H         1 UNK         0.3000 
    185 H185        4.9246  -12.1992  -46.9919 H         1 UNK         0.0600 
    186 H186        5.1649  -12.7727  -44.6295 H         1 UNK         0.0600 
    187 H187        3.7451  -13.8034  -44.6693 H         1 UNK         0.0600 
    188 H188        5.2019  -14.2651  -45.5530 H         1 UNK         0.0600 
    189 H189        2.9342  -14.3823  -46.9906 H         1 UNK         0.3000 
    190 H190       -1.3335  -21.7008  -46.9567 H         1 UNK         0.3000 
    191 H191       -2.2292  -23.3452  -49.0284 H         1 UNK         0.0600 
    192 H192       -3.6595  -22.6251  -46.4150 H         1 UNK         0.0600 
    193 H193       -4.4333  -23.1911  -47.8921 H         1 UNK         0.0600 
    194 H194       -3.6191  -21.6342  -47.8671 H         1 UNK         0.0600 
    195 H195       -1.6642  -24.1963  -45.5913 H         1 UNK         0.3000 
    196 H196       -2.5435  -26.9014  -45.7575 H         1 UNK         0.0600 
    197 H197       -1.3017  -27.1399  -43.5987 H         1 UNK         0.0600 
    198 H198       -2.3036  -25.6960  -43.6110 H         1 UNK         0.0600 
    199 H199       -0.5623  -25.5610  -43.8410 H         1 UNK         0.0600 
    200 H200        0.7027  -25.4236  -46.2019 H         1 UNK         0.3000 
    201 H201        2.0940  -27.9067  -46.5320 H         1 UNK         0.0600 
    202 H202        3.2286  -25.8559  -45.7650 H         1 UNK         0.0600 
    203 H203        2.8739  -25.0423  -47.2868 H         1 UNK         0.0600 
    204 H204        3.9708  -26.4189  -47.2550 H         1 UNK         0.0600 
    205 H205        0.9074  -25.4628  -48.9000 H         1 UNK         0.3000 
    206 H206        1.9056  -26.9115  -51.1960 H         1 UNK         0.0600 
    207 H207        1.7171  -24.4193  -51.1151 H         1 UNK         0.0600 
    208 H208        0.7905  -25.0835  -52.4532 H         1 UNK         0.0600 
    209 H209       -0.0367  -24.5454  -50.9982 H         1 UNK         0.0600 
    210 H210       -1.1289  -26.8837  -49.4367 H         1 UNK         0.3000 
    211 H211       -3.0951  -27.8582  -49.6090 H         1 UNK         0.0600 
    212 H212       -1.9231  -29.7886  -51.6742 H         1 UNK         0.0600 
    213 H213       -3.3860  -30.0122  -50.7278 H         1 UNK         0.0600 
    214 H214       -1.8242  -29.9974  -49.9258 H         1 UNK         0.0600 
    215 H215       -2.4684  -25.5203  -51.1813 H         1 UNK         0.3000 
    216 H216       -4.7171  -25.4032  -52.9758 H         1 UNK         0.0600 
    217 H217       -1.8559  -25.2209  -54.1033 H         1 UNK         0.0600 
    218 H218       -3.3113  -24.7757  -54.9866 H         1 UNK         0.0600 
    219 H219       -3.0475  -26.4487  -54.5252 H         1 UNK         0.0600 
    220 H220       -5.0362  -23.2266  -53.7364 H         1 UNK         0.3000 
    221 H221       -4.1875  -21.1379  -51.8661 H         1 UNK         0.0600 
    222 H222       -6.5510  -21.2670  -52.5699 H         1 UNK         0.0600 
    223 H223       -6.0988  -21.2042  -54.2730 H         1 UNK         0.0600 
    224 H224       -5.8557  -19.8033  -53.2477 H         1 UNK         0.0600 
    225 H225       -3.1410  -19.1933  -52.5168 H         1 UNK         0.3000 
    226 H226       -2.1449  -18.9253  -55.2790 H         1 UNK         0.0600 
    227 H227        0.1422  -18.4422  -54.5654 H         1 UNK         0.0600 
    228 H228       -0.2760  -18.6468  -52.8735 H         1 UNK         0.0600 
    229 H229       -0.2831  -20.0357  -53.9635 H         1 UNK         0.0600 
    230 H230       -4.2685  -17.7193  -53.5099 H         1 UNK         0.3000 
    231 H231       -3.8976  -14.9787  -54.2162 H         1 UNK         0.0600 
    232 H232       -4.1237  -15.6265  -51.2158 H         1 UNK         0.0600 
    233 H233       -4.0337  -14.0234  -51.9380 H         1 UNK         0.0600 
    234 H234       -2.6365  -15.0774  -51.9805 H         1 UNK         0.0600 
    235 H235       -5.9938  -14.0102  -52.5620 H         1 UNK         0.3000 
    236 H236       -8.3681  -15.1946  -53.7573 H         1 UNK         0.0600 
    237 H237       -8.1284  -12.7411  -53.5278 H         1 UNK         0.0600 
    238 H238       -9.5020  -13.3078  -52.5929 H         1 UNK         0.0600 
    239 H239       -8.0011  -12.8869  -51.7751 H         1 UNK         0.0600 
    240 H240       -7.5609  -17.2865  -52.6360 H         1 UNK         0.3000 
    241 H241       -9.1484  -17.7763  -50.1950 H         1 UNK         0.0600 
    242 H242       -9.3866  -20.3996  -53.0701 H         1 UNK         0.3800 
    243 H243       -9.0724  -18.7013  -53.2925 H         1 UNK         0.3800 
    244 H244       -7.2145  -19.0068  -49.1514 H         1 UNK         0.0800 
    245 H245       -7.0013  -17.2854  -49.2565 H         1 UNK         0.0800 
    246 H246       -4.7180  -18.6097  -48.4436 H         1 UNK         0.0800 
    247 H247       -4.6505  -20.1374  -49.2952 H         1 UNK         0.0800 
@<TRIPOS>BOND
     1    1    2 1    
     2    1  127 1    
     3    1  128 1    
     4    1  129 1    
     5    2    3 2    
     6    2    4 am   BACKBONE|DICT|INTERRES
     7    4    5 1    
     8    4  130 1    
     9    5    6 1    
    10    5   65 1    
    11    5  131 1    
    12    6    7 1    
    13    6  132 1    
    14    6  133 1    
    15    7    8 1    
    16    8    9 1    
    17    8  134 1    
    18    8  135 1    
    19    9   10 ar   
    20    9   14 ar   
    21   10   11 ar   
    22   10  136 1    
    23   11   12 ar   
    24   11  126 1    
    25   12   13 ar   
    26   12  137 1    
    27   13   14 ar   
    28   13   15 1    
    29   14  138 1    
    30   15   16 1    
    31   15  139 1    
    32   15  140 1    
    33   16   17 1    
    34   17   18 1    
    35   17  141 1    
    36   17  142 1    
    37   18   19 1    
    38   18   67 1    
    39   18  143 1    
    40   19   20 am   BACKBONE|DICT|INTERRES
    41   19  144 1    
    42   20   21 2    
    43   20   22 1    
    44   22   23 1    
    45   22   24 1    
    46   22  145 1    
    47   23  146 1    
    48   23  147 1    
    49   23  148 1    
    50   24   25 am   BACKBONE|DICT|INTERRES
    51   24  149 1    
    52   25   26 2    
    53   25   27 1    
    54   27   28 1    
    55   27   29 1    
    56   27  150 1    
    57   28  151 1    
    58   28  152 1    
    59   28  153 1    
    60   29   30 am   BACKBONE|DICT|INTERRES
    61   29  154 1    
    62   30   31 2    
    63   30   32 1    
    64   32   33 1    
    65   32   34 1    
    66   32  155 1    
    67   33  156 1    
    68   33  157 1    
    69   33  158 1    
    70   34   35 am   BACKBONE|DICT|INTERRES
    71   34  159 1    
    72   35   36 2    
    73   35   37 1    
    74   37   38 1    
    75   37   39 1    
    76   37  160 1    
    77   38  161 1    
    78   38  162 1    
    79   38  163 1    
    80   39   40 am   BACKBONE|DICT|INTERRES
    81   39  164 1    
    82   40   41 2    
    83   40   42 1    
    84   42   43 1    
    85   42   44 1    
    86   42  165 1    
    87   43  166 1    
    88   43  167 1    
    89   43  168 1    
    90   44   45 am   BACKBONE|DICT|INTERRES
    91   44  169 1    
    92   45   46 2    
    93   45   47 1    
    94   47   48 1    
    95   47   49 1    
    96   47  170 1    
    97   48  171 1    
    98   48  172 1    
    99   48  173 1    
   100   49   50 am   BACKBONE|DICT|INTERRES
   101   49  174 1    
   102   50   51 2    
   103   50   52 1    
   104   52   53 1    
   105   52   54 1    
   106   52  175 1    
   107   53  176 1    
   108   53  177 1    
   109   53  178 1    
   110   54   55 am   BACKBONE|DICT|INTERRES
   111   54  179 1    
   112   55   56 2    
   113   55   57 1    
   114   57   58 1    
   115   57   59 1    
   116   57  180 1    
   117   58  181 1    
   118   58  182 1    
   119   58  183 1    
   120   59   60 am   BACKBONE|DICT|INTERRES
   121   59  184 1    
   122   60   61 2    
   123   60   62 1    
   124   62   63 1    
   125   62   64 1    
   126   62  185 1    
   127   63  186 1    
   128   63  187 1    
   129   63  188 1    
   130   64   65 am   BACKBONE|DICT|INTERRES
   131   64  189 1    
   132   65   66 2    
   133   67   68 2    
   134   67   69 am   BACKBONE|DICT|INTERRES
   135   69   70 1    
   136   69  190 1    
   137   70   71 1    
   138   70   72 1    
   139   70  191 1    
   140   71  192 1    
   141   71  193 1    
   142   71  194 1    
   143   72   73 2    
   144   72   74 am   BACKBONE|DICT|INTERRES
   145   74   75 1    
   146   74  195 1    
   147   75   76 1    
   148   75   77 1    
   149   75  196 1    
   150   76  197 1    
   151   76  198 1    
   152   76  199 1    
   153   77   78 2    
   154   77   79 am   BACKBONE|DICT|INTERRES
   155   79   80 1    
   156   79  200 1    
   157   80   81 1    
   158   80   82 1    
   159   80  201 1    
   160   81  202 1    
   161   81  203 1    
   162   81  204 1    
   163   82   83 2    
   164   82   84 am   BACKBONE|DICT|INTERRES
   165   84   85 1    
   166   84  205 1    
   167   85   86 1    
   168   85   87 1    
   169   85  206 1    
   170   86  207 1    
   171   86  208 1    
   172   86  209 1    
   173   87   88 2    
   174   87   89 am   BACKBONE|DICT|INTERRES
   175   89   90 1    
   176   89  210 1    
   177   90   91 1    
   178   90   92 1    
   179   90  211 1    
   180   91  212 1    
   181   91  213 1    
   182   91  214 1    
   183   92   93 2    
   184   92   94 am   BACKBONE|DICT|INTERRES
   185   94   95 1    
   186   94  215 1    
   187   95   96 1    
   188   95   97 1    
   189   95  216 1    
   190   96  217 1    
   191   96  218 1    
   192   96  219 1    
   193   97   98 2    
   194   97   99 am   BACKBONE|DICT|INTERRES
   195   99  100 1    
   196   99  220 1    
   197  100  101 1    
   198  100  102 1    
   199  100  221 1    
   200  101  222 1    
   201  101  223 1    
   202  101  224 1    
   203  102  103 2    
   204  102  104 am   BACKBONE|DICT|INTERRES
   205  104  105 1    
   206  104  225 1    
   207  105  106 1    
   208  105  107 1    
   209  105  226 1    
   210  106  227 1    
   211  106  228 1    
   212  106  229 1    
   213  107  108 2    
   214  107  109 am   BACKBONE|DICT|INTERRES
   215  109  110 1    
   216  109  230 1    
   217  110  111 1    
   218  110  112 1    
   219  110  231 1    
   220  111  232 1    
   221  111  233 1    
   222  111  234 1    
   223  112  113 2    
   224  112  114 am   BACKBONE|DICT|INTERRES
   225  114  115 1    
   226  114  235 1    
   227  115  116 1    
   228  115  117 1    
   229  115  236 1    
   230  116  237 1    
   231  116  238 1    
   232  116  239 1    
   233  117  118 2    
   234  117  119 am   BACKBONE|DICT|INTERRES
   235  119  120 1    
   236  119  240 1    
   237  120  121 1    
   238  120  124 1    
   239  120  241 1    
   240  121  122 am   BACKBONE|DICT|INTERRES
   241  121  123 2    
   242  122  242 1    
   243  122  243 1    
   244  124  125 1    
   245  124  244 1    
   246  124  245 1    
   247  125  126 1    
   248  126  246 1    
   249  126  247 1    
@<TRIPOS>SUBSTRUCTURE
     1 UNK         1 GROUP             0       ****    0 ROOT    
