@<TRIPOS>MOLECULE
3R540
247   249    1
SMALL
USER_CHARGES


@<TRIPOS>ATOM
      1 CA          2.2284  -10.5216  -51.3554 C.3       0 UNK        -0.1800 
      2 C           1.0958  -11.5444  -51.2953 C.2       0 UNK         0.5000 
      3 O           0.1903  -11.4920  -52.1247 O.2       0 UNK        -0.5000 
      4 N           1.0947  -12.4894  -50.3442 N.am      1 UNK        -0.5000 
      5 CA          2.0837  -12.6632  -49.2698 C.3       1 UNK         0.1400 
      6 C6          2.0369  -14.0894  -48.6684 C.3       23 UNK        -0.0398 
      7 S7          2.4929  -15.3892  -49.8616 S.3       23 UNK        -0.2404 
      8 C8          0.8731  -16.1030  -50.2807 C.3       23 UNK        -0.0205 
      9 C9          1.0278  -17.5412  -50.7442 C.ar      23 UNK        -0.0193 
     10 C10         1.3771  -17.8267  -52.0688 C.ar      23 UNK        -0.1150 
     11 C11         1.5412  -19.1511  -52.4873 C.ar      23 UNK        -0.0193 
     12 C12         1.3455  -20.1881  -51.5719 C.ar      23 UNK        -0.1150 
     13 C13         0.9781  -19.9153  -50.2523 C.ar      23 UNK        -0.0193 
     14 C14         0.8250  -18.5897  -49.8417 C.ar      23 UNK        -0.1150 
     15 C15         0.7252  -21.0554  -49.2823 C.3       23 UNK        -0.0205 
     16 S16         2.2712  -21.7551  -48.6354 S.3       23 UNK        -0.2404 
     17 C17         1.5702  -23.1897  -47.7637 C.3       23 UNK        -0.0398 
     18 CA          2.5074  -23.7919  -46.6909 C.3       11 UNK         0.1400 
     19 N           2.7686  -22.8507  -45.5945 N.am      11 UNK        -0.5000 
     20 C           3.7393  -22.9986  -44.6824 C.2       10 UNK         0.5000 
     21 O           4.5769  -23.9010  -44.7167 O.2       10 UNK        -0.5000 
     22 CA          3.7534  -21.9970  -43.5118 C.3       10 UNK         0.1400 
     23 CB          4.4865  -20.7046  -43.9018 C.3       10 UNK        -0.1800 
     24 N           2.4092  -21.6808  -43.0209 N.am      10 UNK        -0.5000 
     25 C           1.6014  -22.5594  -42.4082 C.2       9 UNK         0.5000 
     26 O           1.9229  -23.7199  -42.1536 O.2       9 UNK        -0.5000 
     27 CA          0.1826  -22.0825  -42.0467 C.3       9 UNK         0.1400 
     28 CB          0.1840  -21.3625  -40.6903 C.3       9 UNK        -0.1800 
     29 N          -0.4130  -21.2140  -43.0620 N.am      9 UNK        -0.5000 
     30 C          -0.6965  -21.5849  -44.3189 C.2       8 UNK         0.5000 
     31 O          -0.5043  -22.7159  -44.7630 O.2       8 UNK        -0.5000 
     32 CA         -1.2248  -20.4868  -45.2579 C.3       8 UNK         0.1400 
     33 CB         -2.7009  -20.1897  -44.9596 C.3       8 UNK        -0.1800 
     34 N          -0.4380  -19.2549  -45.1697 N.am      8 UNK        -0.5000 
     35 C           0.8801  -19.1727  -45.4078 C.2       7 UNK         0.5000 
     36 O           1.5646  -20.1198  -45.7906 O.2       7 UNK        -0.5000 
     37 CA          1.5564  -17.8274  -45.0949 C.3       7 UNK         0.1400 
     38 CB          1.3738  -16.8290  -46.2489 C.3       7 UNK        -0.1800 
     39 N           1.0494  -17.2616  -43.8425 N.am      7 UNK        -0.5000 
     40 C           1.3488  -17.7541  -42.6302 C.2       6 UNK         0.5000 
     41 O           2.1475  -18.6729  -42.4500 O.2       6 UNK        -0.5000 
     42 CA          0.5946  -17.1687  -41.4210 C.3       6 UNK         0.1400 
     43 CB          1.3563  -15.9937  -40.7950 C.3       6 UNK        -0.1800 
     44 N          -0.7666  -16.7527  -41.7597 N.am      6 UNK        -0.5000 
     45 C          -1.7630  -17.6200  -41.9876 C.2       5 UNK         0.5000 
     46 O          -1.6333  -18.8395  -41.8896 O.2       5 UNK        -0.5000 
     47 CA         -3.1159  -17.0431  -42.4449 C.3       5 UNK         0.1400 
     48 CB         -4.0152  -16.7573  -41.2336 C.3       5 UNK        -0.1800 
     49 N          -2.9976  -15.8293  -43.2538 N.am      5 UNK        -0.5000 
     50 C          -2.3477  -15.7368  -44.4215 C.2       4 UNK         0.5000 
     51 O          -1.7641  -16.6832  -44.9504 O.2       4 UNK        -0.5000 
     52 CA         -2.3242  -14.3588  -45.1111 C.3       4 UNK         0.1400 
     53 CB         -3.4619  -13.4199  -44.6548 C.3       4 UNK        -0.1800 
     54 N          -1.0335  -13.6739  -44.9832 N.am      4 UNK        -0.5000 
     55 C          -0.3526  -13.3934  -43.8597 C.2       3 UNK         0.5000 
     56 O          -0.6601  -13.8160  -42.7441 O.2       3 UNK        -0.5000 
     57 CA          0.8765  -12.4684  -44.0006 C.3       3 UNK         0.1400 
     58 CB          2.1838  -13.2705  -43.9166 C.3       3 UNK        -0.1800 
     59 N           0.8980  -11.6970  -45.2450 N.am      3 UNK        -0.5000 
     60 C           0.0786  -10.6925  -45.5794 C.2       2 UNK         0.5000 
     61 O          -0.8061  -10.2641  -44.8382 O.2       2 UNK        -0.5000 
     62 CA          0.2424  -10.0871  -46.9922 C.3       2 UNK         0.1400 
     63 CB          1.1135   -8.8169  -46.9558 C.3       2 UNK        -0.1800 
     64 N           0.7131  -11.0336  -48.0201 N.am      2 UNK        -0.5000 
     65 C           1.9083  -11.6361  -48.1315 C.2       1 UNK         0.5000 
     66 O           2.8389  -11.4525  -47.3479 O.2       1 UNK        -0.5000 
     67 C           1.8915  -25.1202  -46.1968 C.2       11 UNK         0.5000 
     68 O           2.0084  -26.1293  -46.8928 O.2       11 UNK        -0.5000 
     69 N           1.2017  -25.0739  -45.0470 N.am      12 UNK        -0.5000 
     70 CA          0.2678  -26.0764  -44.5224 C.3       12 UNK         0.1400 
     71 CB          0.9801  -27.4061  -44.1984 C.3       12 UNK        -0.1800 
     72 C          -0.9614  -26.2375  -45.4454 C.2       12 UNK         0.5000 
     73 O          -1.4398  -27.3518  -45.6662 O.2       12 UNK        -0.5000 
     74 N          -1.4321  -25.1057  -45.9839 N.am      13 UNK        -0.5000 
     75 CA         -2.5823  -24.9965  -46.8745 C.3       13 UNK         0.1400 
     76 CB         -2.3237  -23.8463  -47.8620 C.3       13 UNK        -0.1800 
     77 C          -3.8710  -24.7371  -46.0767 C.2       13 UNK         0.5000 
     78 O          -3.8145  -24.2869  -44.9296 O.2       13 UNK        -0.5000 
     79 N          -5.0176  -24.9981  -46.7181 N.am      14 UNK        -0.5000 
     80 CA         -6.3540  -24.7770  -46.1562 C.3       14 UNK         0.1400 
     81 CB         -7.3913  -25.4846  -47.0420 C.3       14 UNK        -0.1800 
     82 C          -6.7158  -23.2866  -45.9950 C.2       14 UNK         0.5000 
     83 O          -7.5146  -22.9489  -45.1206 O.2       14 UNK        -0.5000 
     84 N          -6.1210  -22.4290  -46.8311 N.am      15 UNK        -0.5000 
     85 CA         -6.2543  -20.9776  -46.8185 C.3       15 UNK         0.1400 
     86 CB         -7.6168  -20.5505  -47.4016 C.3       15 UNK        -0.1800 
     87 C          -5.0779  -20.3736  -47.6000 C.2       15 UNK         0.5000 
     88 O          -4.3046  -21.1114  -48.2226 O.2       15 UNK        -0.5000 
     89 N          -4.9561  -19.0421  -47.5390 N.am      16 UNK        -0.5000 
     90 CA         -3.9174  -18.2559  -48.2071 C.3       16 UNK         0.1400 
     91 CB         -4.0805  -16.7818  -47.8068 C.3       16 UNK        -0.1800 
     92 C          -3.9398  -18.4082  -49.7401 C.2       16 UNK         0.5000 
     93 O          -4.9866  -18.7132  -50.3156 O.2       16 UNK        -0.5000 
     94 N          -2.7716  -18.1889  -50.3597 N.am      17 UNK        -0.5000 
     95 CA         -2.4978  -18.3662  -51.7909 C.3       17 UNK         0.1400 
     96 CB         -3.3200  -17.3781  -52.6469 C.3       17 UNK        -0.1800 
     97 C          -2.6472  -19.8334  -52.2448 C.2       17 UNK         0.5000 
     98 O          -3.1095  -20.0840  -53.3580 O.2       17 UNK        -0.5000 
     99 N          -2.2539  -20.7706  -51.3652 N.am      18 UNK        -0.5000 
    100 CA        -2.3478  -22.2271  -51.5259 C.3       18 UNK         0.1400 
    101 CB        -1.3560  -22.7273  -52.5951 C.3       18 UNK        -0.1800 
    102 C         -3.7988  -22.6657  -51.7930 C.2       18 UNK         0.5000 
    103 O         -4.0946  -23.2624  -52.8315 O.2       18 UNK        -0.5000 
    104 N         -4.6940  -22.2546  -50.8838 N.am      19 UNK        -0.5000 
    105 CA        -6.1592  -22.3339  -50.9276 C.3       19 UNK         0.1400 
    106 CB        -6.6474  -23.7924  -51.0039 C.3       19 UNK        -0.1800 
    107 C         -6.8085  -21.4570  -52.0195 C.2       19 UNK         0.5000 
    108 O         -7.8121  -20.7985  -51.7444 O.2       19 UNK        -0.5000 
    109 N         -6.2181  -21.4572  -53.2184 N.am      20 UNK        -0.5000 
    110 CA        -6.5829  -20.6704  -54.3947 C.3       20 UNK         0.1400 
    111 CB        -7.9765  -21.0792  -54.9161 C.3       20 UNK        -0.1800 
    112 C         -5.5472  -20.8035  -55.5293 C.2       20 UNK         0.5000 
    113 O         -5.5704  -19.9791  -56.4447 O.2       20 UNK        -0.5000 
    114 N         -4.6799  -21.8303  -55.4899 N.am      21 UNK        -0.5000 
    115 CA        -3.7761  -22.2111  -56.5808 C.3       21 UNK         0.1400 
    116 CB        -3.0658  -23.5223  -56.2121 C.3       21 UNK        -0.1800 
    117 C         -2.7544  -21.1381  -57.0102 C.2       21 UNK         0.5000 
    118 O         -2.3822  -21.1116  -58.1848 O.2       21 UNK        -0.5000 
    119 N         -2.3370  -20.2695  -56.0818 N.am      22 UNK        -0.5000 
    120 CA        -1.4685  -19.1110  -56.3579 C.3       22 UNK         0.1400 
    121 C         -2.2562  -17.8213  -56.7393 C.2       22 UNK         0.5000 
    122 N         -3.5823  -17.8328  -56.8150 N.am      22 UNK        -0.7600 
    123 O         -1.6494  -16.7832  -56.9890 O.2       22 UNK        -0.5000 
    124 C124       -0.4632  -18.8387  -55.2074 C.3       23 UNK        -0.0398 
    125 S125        0.6239  -20.2623  -54.8660 S.3       23 UNK        -0.2404 
    126 C126        1.9614  -19.4727  -53.9144 C.3       23 UNK        -0.0205 
    127 H127        3.1950  -11.0141  -51.4599 H         1 UNK         0.0600 
    128 H128        2.2422   -9.8990  -50.4611 H         1 UNK         0.0600 
    129 H129        2.1006   -9.8626  -52.2145 H         1 UNK         0.0600 
    130 H130        0.3435  -13.1630  -50.3490 H         1 UNK         0.3000 
    131 H131        3.0825  -12.5138  -49.6836 H         1 UNK         0.0600 
    132 H132        1.0564  -14.2994  -48.2382 H         1 UNK         0.0800 
    133 H133        2.7458  -14.1757  -47.8424 H         1 UNK         0.0800 
    134 H134        0.2079  -16.0670  -49.4171 H         1 UNK         0.0800 
    135 H135        0.4022  -15.5045  -51.0620 H         1 UNK         0.0800 
    136 H136        1.5375  -17.0164  -52.7662 H         1 UNK         0.1150 
    137 H137        1.4830  -21.2115  -51.8894 H         1 UNK         0.1150 
    138 H138        0.5538  -18.3762  -48.8177 H         1 UNK         0.1150 
    139 H139        0.1093  -20.7172  -48.4477 H         1 UNK         0.0800 
    140 H140        0.1622  -21.8404  -49.7879 H         1 UNK         0.0800 
    141 H141        0.6240  -22.8956  -47.3058 H         1 UNK         0.0800 
    142 H142        1.3246  -23.9332  -48.5250 H         1 UNK         0.0800 
    143 H143        3.4604  -24.0344  -47.1661 H         1 UNK         0.0600 
    144 H144        2.1714  -22.0303  -45.5460 H         1 UNK         0.3000 
    145 H145        4.3057  -22.4585  -42.6905 H         1 UNK         0.0600 
    146 H146        4.5516  -20.0180  -43.0577 H         1 UNK         0.0600 
    147 H147        3.9866  -20.1848  -44.7186 H         1 UNK         0.0600 
    148 H148        5.5055  -20.9184  -44.2262 H         1 UNK         0.0600 
    149 H149        2.0877  -20.7298  -43.1566 H         1 UNK         0.3000 
    150 H150       -0.4505  -22.9680  -41.9599 H         1 UNK         0.0600 
    151 H151        0.7807  -20.4507  -40.7202 H         1 UNK         0.0600 
    152 H152       -0.8272  -21.0915  -40.3864 H         1 UNK         0.0600 
    153 H153        0.5980  -22.0010  -39.9089 H         1 UNK         0.0600 
    154 H154       -0.6592  -20.2745  -42.7639 H         1 UNK         0.3000 
    155 H155       -1.1489  -20.8498  -46.2844 H         1 UNK         0.0600 
    156 H156       -3.3241  -21.0456  -45.2219 H         1 UNK         0.0600 
    157 H157       -3.0558  -19.3298  -45.5245 H         1 UNK         0.0600 
    158 H158       -2.8714  -19.9808  -43.9045 H         1 UNK         0.0600 
    159 H159       -0.9326  -18.4085  -44.9026 H         1 UNK         0.3000 
    160 H160        2.6271  -18.0094  -44.9801 H         1 UNK         0.0600 
    161 H161        0.3247  -16.6368  -46.4707 H         1 UNK         0.0600 
    162 H162        1.8362  -17.2084  -47.1606 H         1 UNK         0.0600 
    163 H163        1.8498  -15.8764  -46.0245 H         1 UNK         0.0600 
    164 H164        0.3239  -16.5631  -43.9193 H         1 UNK         0.3000 
    165 H165        0.5357  -17.9564  -40.6667 H         1 UNK         0.0600 
    166 H166        0.9017  -15.6923  -39.8511 H         1 UNK         0.0600 
    167 H167        2.3929  -16.2616  -40.5863 H         1 UNK         0.0600 
    168 H168        1.3627  -15.1256  -41.4495 H         1 UNK         0.0600 
    169 H169       -0.9283  -15.7607  -41.8982 H         1 UNK         0.3000 
    170 H170       -3.6043  -17.8006  -43.0604 H         1 UNK         0.0600 
    171 H171       -4.1417  -17.6514  -40.6214 H         1 UNK         0.0600 
    172 H172       -3.5951  -15.9788  -40.5955 H         1 UNK         0.0600 
    173 H173       -5.0090  -16.4364  -41.5465 H         1 UNK         0.0600 
    174 H174       -3.4174  -14.9929  -42.8751 H         1 UNK         0.3000 
    175 H175       -2.4672  -14.5530  -46.1750 H         1 UNK         0.0600 
    176 H176       -3.3494  -13.1076  -43.6159 H         1 UNK         0.0600 
    177 H177       -3.4842  -12.5163  -45.2644 H         1 UNK         0.0600 
    178 H178       -4.4364  -13.8993  -44.7583 H         1 UNK         0.0600 
    179 H179       -0.6597  -13.2989  -45.8417 H         1 UNK         0.3000 
    180 H180        0.8508  -11.7635  -43.1671 H         1 UNK         0.0600 
    181 H181        2.2671  -13.7966  -42.9671 H         1 UNK         0.0600 
    182 H182        3.0518  -12.6144  -43.9925 H         1 UNK         0.0600 
    183 H183        2.2558  -14.0105  -44.7139 H         1 UNK         0.0600 
    184 H184        1.6481  -11.9044  -45.8960 H         1 UNK         0.3000 
    185 H185       -0.7565   -9.7852  -47.3109 H         1 UNK         0.0600 
    186 H186        1.1920   -8.3642  -47.9443 H         1 UNK         0.0600 
    187 H187        0.6806   -8.0696  -46.2896 H         1 UNK         0.0600 
    188 H188        2.1229   -9.0215  -46.5985 H         1 UNK         0.0600 
    189 H189        0.0188  -11.2798  -48.7123 H         1 UNK         0.3000 
    190 H190        1.1519  -24.1738  -44.5866 H         1 UNK         0.3000 
    191 H191       -0.1102  -25.6705  -43.5829 H         1 UNK         0.0600 
    192 H192        0.3118  -28.0838  -43.6662 H         1 UNK         0.0600 
    193 H193        1.8493  -27.2410  -43.5616 H         1 UNK         0.0600 
    194 H194        1.3150  -27.9220  -45.0983 H         1 UNK         0.0600 
    195 H195       -1.0467  -24.2266  -45.6456 H         1 UNK         0.3000 
    196 H196       -2.6995  -25.9239  -47.4392 H         1 UNK         0.0600 
    197 H197       -2.2052  -22.8919  -47.3474 H         1 UNK         0.0600 
    198 H198       -1.4224  -24.0267  -48.4477 H         1 UNK         0.0600 
    199 H199       -3.1503  -23.7385  -48.5648 H         1 UNK         0.0600 
    200 H200       -4.9824  -25.3725  -47.6551 H         1 UNK         0.3000 
    201 H201       -6.3852  -25.2322  -45.1639 H         1 UNK         0.0600 
    202 H202       -8.3960  -25.3715  -46.6323 H         1 UNK         0.0600 
    203 H203       -7.1891  -26.5536  -47.1112 H         1 UNK         0.0600 
    204 H204       -7.4031  -25.0773  -48.0536 H         1 UNK         0.0600 
    205 H205       -5.4281  -22.7703  -47.4846 H         1 UNK         0.3000 
    206 H206       -6.1769  -20.6298  -45.7863 H         1 UNK         0.0600 
    207 H207       -8.4430  -20.9555  -46.8176 H         1 UNK         0.0600 
    208 H208       -7.7280  -19.4659  -47.3961 H         1 UNK         0.0600 
    209 H209       -7.7456  -20.8846  -48.4299 H         1 UNK         0.0600 
    210 H210       -5.6522  -18.5143  -47.0340 H         1 UNK         0.3000 
    211 H211       -2.9512  -18.6112  -47.8425 H         1 UNK         0.0600 
    212 H212       -5.0221  -16.3690  -48.1713 H         1 UNK         0.0600 
    213 H213       -3.2737  -16.1714  -48.2142 H         1 UNK         0.0600 
    214 H214       -4.0613  -16.6643  -46.7239 H         1 UNK         0.0600 
    215 H215       -1.9761  -17.9183  -49.8003 H         1 UNK         0.3000 
    216 H216       -1.4480  -18.1169  -51.9342 H         1 UNK         0.0600 
    217 H217       -3.1955  -16.3540  -52.2956 H         1 UNK         0.0600 
    218 H218       -4.3846  -17.6125  -52.6310 H         1 UNK         0.0600 
    219 H219       -3.0038  -17.4019  -53.6897 H         1 UNK         0.0600 
    220 H220       -1.9142  -20.4500  -50.4716 H         1 UNK         0.3000 
    221 H221       -2.0608  -22.6751  -50.5748 H         1 UNK         0.0600 
    222 H222       -1.4496  -23.8029  -52.7487 H         1 UNK         0.0600 
    223 H223       -1.5152  -22.2412  -53.5571 H         1 UNK         0.0600 
    224 H224       -0.3276  -22.5363  -52.2958 H         1 UNK         0.0600 
    225 H225       -4.3427  -21.7293  -50.0879 H         1 UNK         0.3000 
    226 H226       -6.4915  -21.9342  -49.9713 H         1 UNK         0.0600 
    227 H227       -6.2116  -24.3959  -50.2080 H         1 UNK         0.0600 
    228 H228       -7.7314  -23.8430  -50.8954 H         1 UNK         0.0600 
    229 H229       -6.3950  -24.2596  -51.9561 H         1 UNK         0.0600 
    230 H230       -5.3738  -22.0152  -53.2904 H         1 UNK         0.3000 
    231 H231       -6.6051  -19.6190  -54.1017 H         1 UNK         0.0600 
    232 H232       -8.2271  -20.5425  -55.8321 H         1 UNK         0.0600 
    233 H233       -8.7623  -20.8539  -54.1959 H         1 UNK         0.0600 
    234 H234       -8.0212  -22.1459  -55.1386 H         1 UNK         0.0600 
    235 H235       -4.6696  -22.4523  -54.6931 H         1 UNK         0.3000 
    236 H236       -4.4033  -22.4103  -57.4521 H         1 UNK         0.0600 
    237 H237       -3.7833  -24.3211  -56.0236 H         1 UNK         0.0600 
    238 H238       -2.4134  -23.8558  -57.0201 H         1 UNK         0.0600 
    239 H239       -2.4509  -23.4093  -55.3203 H         1 UNK         0.0600 
    240 H240       -2.7000  -20.3383  -55.1327 H         1 UNK         0.3000 
    241 H241       -0.8662  -19.3376  -57.2396 H         1 UNK         0.0600 
    242 H242       -4.1167  -18.6795  -56.6463 H         1 UNK         0.3800 
    243 H243       -4.0661  -16.9875  -57.0722 H         1 UNK         0.3800 
    244 H244       -0.9846  -18.5684  -54.2922 H         1 UNK         0.0800 
    245 H245        0.1715  -17.9866  -55.4568 H         1 UNK         0.0800 
    246 H246        2.3071  -18.5774  -54.4336 H         1 UNK         0.0800 
    247 H247        2.8143  -20.1523  -53.8842 H         1 UNK         0.0800 
@<TRIPOS>BOND
     1    1    2 1    
     2    1  127 1    
     3    1  128 1    
     4    1  129 1    
     5    2    3 2    
     6    2    4 am   BACKBONE|DICT|INTERRES
     7    4    5 1    
     8    4  130 1    
     9    5    6 1    
    10    5   65 1    
    11    5  131 1    
    12    6    7 1    
    13    6  132 1    
    14    6  133 1    
    15    7    8 1    
    16    8    9 1    
    17    8  134 1    
    18    8  135 1    
    19    9   10 ar   
    20    9   14 ar   
    21   10   11 ar   
    22   10  136 1    
    23   11   12 ar   
    24   11  126 1    
    25   12   13 ar   
    26   12  137 1    
    27   13   14 ar   
    28   13   15 1    
    29   14  138 1    
    30   15   16 1    
    31   15  139 1    
    32   15  140 1    
    33   16   17 1    
    34   17   18 1    
    35   17  141 1    
    36   17  142 1    
    37   18   19 1    
    38   18   67 1    
    39   18  143 1    
    40   19   20 am   BACKBONE|DICT|INTERRES
    41   19  144 1    
    42   20   21 2    
    43   20   22 1    
    44   22   23 1    
    45   22   24 1    
    46   22  145 1    
    47   23  146 1    
    48   23  147 1    
    49   23  148 1    
    50   24   25 am   BACKBONE|DICT|INTERRES
    51   24  149 1    
    52   25   26 2    
    53   25   27 1    
    54   27   28 1    
    55   27   29 1    
    56   27  150 1    
    57   28  151 1    
    58   28  152 1    
    59   28  153 1    
    60   29   30 am   BACKBONE|DICT|INTERRES
    61   29  154 1    
    62   30   31 2    
    63   30   32 1    
    64   32   33 1    
    65   32   34 1    
    66   32  155 1    
    67   33  156 1    
    68   33  157 1    
    69   33  158 1    
    70   34   35 am   BACKBONE|DICT|INTERRES
    71   34  159 1    
    72   35   36 2    
    73   35   37 1    
    74   37   38 1    
    75   37   39 1    
    76   37  160 1    
    77   38  161 1    
    78   38  162 1    
    79   38  163 1    
    80   39   40 am   BACKBONE|DICT|INTERRES
    81   39  164 1    
    82   40   41 2    
    83   40   42 1    
    84   42   43 1    
    85   42   44 1    
    86   42  165 1    
    87   43  166 1    
    88   43  167 1    
    89   43  168 1    
    90   44   45 am   BACKBONE|DICT|INTERRES
    91   44  169 1    
    92   45   46 2    
    93   45   47 1    
    94   47   48 1    
    95   47   49 1    
    96   47  170 1    
    97   48  171 1    
    98   48  172 1    
    99   48  173 1    
   100   49   50 am   BACKBONE|DICT|INTERRES
   101   49  174 1    
   102   50   51 2    
   103   50   52 1    
   104   52   53 1    
   105   52   54 1    
   106   52  175 1    
   107   53  176 1    
   108   53  177 1    
   109   53  178 1    
   110   54   55 am   BACKBONE|DICT|INTERRES
   111   54  179 1    
   112   55   56 2    
   113   55   57 1    
   114   57   58 1    
   115   57   59 1    
   116   57  180 1    
   117   58  181 1    
   118   58  182 1    
   119   58  183 1    
   120   59   60 am   BACKBONE|DICT|INTERRES
   121   59  184 1    
   122   60   61 2    
   123   60   62 1    
   124   62   63 1    
   125   62   64 1    
   126   62  185 1    
   127   63  186 1    
   128   63  187 1    
   129   63  188 1    
   130   64   65 am   BACKBONE|DICT|INTERRES
   131   64  189 1    
   132   65   66 2    
   133   67   68 2    
   134   67   69 am   BACKBONE|DICT|INTERRES
   135   69   70 1    
   136   69  190 1    
   137   70   71 1    
   138   70   72 1    
   139   70  191 1    
   140   71  192 1    
   141   71  193 1    
   142   71  194 1    
   143   72   73 2    
   144   72   74 am   BACKBONE|DICT|INTERRES
   145   74   75 1    
   146   74  195 1    
   147   75   76 1    
   148   75   77 1    
   149   75  196 1    
   150   76  197 1    
   151   76  198 1    
   152   76  199 1    
   153   77   78 2    
   154   77   79 am   BACKBONE|DICT|INTERRES
   155   79   80 1    
   156   79  200 1    
   157   80   81 1    
   158   80   82 1    
   159   80  201 1    
   160   81  202 1    
   161   81  203 1    
   162   81  204 1    
   163   82   83 2    
   164   82   84 am   BACKBONE|DICT|INTERRES
   165   84   85 1    
   166   84  205 1    
   167   85   86 1    
   168   85   87 1    
   169   85  206 1    
   170   86  207 1    
   171   86  208 1    
   172   86  209 1    
   173   87   88 2    
   174   87   89 am   BACKBONE|DICT|INTERRES
   175   89   90 1    
   176   89  210 1    
   177   90   91 1    
   178   90   92 1    
   179   90  211 1    
   180   91  212 1    
   181   91  213 1    
   182   91  214 1    
   183   92   93 2    
   184   92   94 am   BACKBONE|DICT|INTERRES
   185   94   95 1    
   186   94  215 1    
   187   95   96 1    
   188   95   97 1    
   189   95  216 1    
   190   96  217 1    
   191   96  218 1    
   192   96  219 1    
   193   97   98 2    
   194   97   99 am   BACKBONE|DICT|INTERRES
   195   99  100 1    
   196   99  220 1    
   197  100  101 1    
   198  100  102 1    
   199  100  221 1    
   200  101  222 1    
   201  101  223 1    
   202  101  224 1    
   203  102  103 2    
   204  102  104 am   BACKBONE|DICT|INTERRES
   205  104  105 1    
   206  104  225 1    
   207  105  106 1    
   208  105  107 1    
   209  105  226 1    
   210  106  227 1    
   211  106  228 1    
   212  106  229 1    
   213  107  108 2    
   214  107  109 am   BACKBONE|DICT|INTERRES
   215  109  110 1    
   216  109  230 1    
   217  110  111 1    
   218  110  112 1    
   219  110  231 1    
   220  111  232 1    
   221  111  233 1    
   222  111  234 1    
   223  112  113 2    
   224  112  114 am   BACKBONE|DICT|INTERRES
   225  114  115 1    
   226  114  235 1    
   227  115  116 1    
   228  115  117 1    
   229  115  236 1    
   230  116  237 1    
   231  116  238 1    
   232  116  239 1    
   233  117  118 2    
   234  117  119 am   BACKBONE|DICT|INTERRES
   235  119  120 1    
   236  119  240 1    
   237  120  121 1    
   238  120  124 1    
   239  120  241 1    
   240  121  122 am   BACKBONE|DICT|INTERRES
   241  121  123 2    
   242  122  242 1    
   243  122  243 1    
   244  124  125 1    
   245  124  244 1    
   246  124  245 1    
   247  125  126 1    
   248  126  246 1    
   249  126  247 1    
@<TRIPOS>SUBSTRUCTURE
     1 UNK         1 GROUP             0       ****    0 ROOT    
