@<TRIPOS>MOLECULE
3R540
247   249    1
SMALL
USER_CHARGES


@<TRIPOS>ATOM
      1 CA         -3.3636  -11.6101  -45.3122 C.3       0 UNK        -0.1800 
      2 C          -3.0926  -13.0407  -45.7755 C.2       0 UNK         0.5000 
      3 O          -3.7849  -13.9543  -45.3322 O.2       0 UNK        -0.5000 
      4 N          -2.1244  -13.2947  -46.6674 N.am      1 UNK        -0.5000 
      5 CA         -1.1567  -12.3563  -47.2452 C.3       1 UNK         0.1400 
      6 C6         -0.3745  -12.9956  -48.4188 C.3       23 UNK        -0.0398 
      7 S7         -1.4543  -13.3578  -49.8454 S.3       23 UNK        -0.2404 
      8 C8         -1.6115  -15.1722  -49.7777 C.3       23 UNK        -0.0205 
      9 C9         -0.3227  -15.8811  -50.1687 C.ar      23 UNK        -0.0193 
     10 C10         0.1230  -15.8466  -51.4921 C.ar      23 UNK        -0.1150 
     11 C11         1.3004  -16.5015  -51.8631 C.ar      23 UNK        -0.0193 
     12 C12         2.0326  -17.1999  -50.8987 C.ar      23 UNK        -0.1150 
     13 C13         1.5815  -17.2695  -49.5783 C.ar      23 UNK        -0.0193 
     14 C14         0.4102  -16.5955  -49.2176 C.ar      23 UNK        -0.1150 
     15 C15         2.3549  -18.0831  -48.5487 C.3       23 UNK        -0.0205 
     16 S16         2.2064  -19.8776  -48.8263 S.3       23 UNK        -0.2404 
     17 C17         0.3998  -20.1021  -48.7595 C.3       23 UNK        -0.0398 
     18 CA         -0.0115  -21.5154  -48.2871 C.3       11 UNK         0.1400 
     19 N           0.2806  -21.7533  -46.8680 N.am      11 UNK        -0.5000 
     20 C           0.1093  -22.9277  -46.2407 C.2       10 UNK         0.5000 
     21 O          -0.2812  -23.9545  -46.7973 O.2       10 UNK        -0.5000 
     22 CA          0.3608  -22.9464  -44.7236 C.3       10 UNK         0.1400 
     23 CB          1.8637  -22.9888  -44.4072 C.3       10 UNK        -0.1800 
     24 N          -0.2598  -21.8055  -44.0505 N.am      10 UNK        -0.5000 
     25 C          -1.5834  -21.6315  -43.9223 C.2       9 UNK         0.5000 
     26 O          -2.4224  -22.4266  -44.3414 O.2       9 UNK        -0.5000 
     27 CA         -2.0512  -20.3251  -43.2570 C.3       9 UNK         0.1400 
     28 CB         -1.9880  -20.4386  -41.7268 C.3       9 UNK        -0.1800 
     29 N          -1.2677  -19.1707  -43.6910 N.am      9 UNK        -0.5000 
     30 C          -1.2302  -18.7100  -44.9493 C.2       8 UNK         0.5000 
     31 O          -1.8953  -19.1752  -45.8736 O.2       8 UNK        -0.5000 
     32 CA         -0.2278  -17.5824  -45.2380 C.3       8 UNK         0.1400 
     33 CB         -0.8814  -16.2105  -45.0256 C.3       8 UNK        -0.1800 
     34 N           1.0009  -17.6988  -44.4476 N.am      8 UNK        -0.5000 
     35 C           1.8642  -18.7221  -44.5680 C.2       7 UNK         0.5000 
     36 O           1.7004  -19.6426  -45.3685 O.2       7 UNK        -0.5000 
     37 CA          3.0940  -18.7588  -43.6416 C.3       7 UNK         0.1400 
     38 CB          4.3806  -18.4639  -44.4273 C.3       7 UNK        -0.1800 
     39 N           2.9897  -17.8452  -42.5032 N.am      7 UNK        -0.5000 
     40 C           2.2245  -18.0768  -41.4257 C.2       6 UNK         0.5000 
     41 O           1.5510  -19.0975  -41.2797 O.2       6 UNK        -0.5000 
     42 CA          2.1674  -16.9735  -40.3490 C.3       6 UNK         0.1400 
     43 CB          3.2079  -17.2399  -39.2511 C.3       6 UNK        -0.1800 
     44 N           2.3640  -15.6207  -40.8771 N.am      6 UNK        -0.5000 
     45 C           1.5698  -15.0272  -41.7780 C.2       5 UNK         0.5000 
     46 O           0.5662  -15.5619  -42.2479 O.2       5 UNK        -0.5000 
     47 CA          1.9791  -13.6311  -42.2861 C.3       5 UNK         0.1400 
     48 CB          3.0333  -12.9201  -41.4090 C.3       5 UNK        -0.1800 
     49 N           2.4254  -13.6879  -43.6795 N.am      5 UNK        -0.5000 
     50 C           3.4279  -14.4235  -44.1840 C.2       4 UNK         0.5000 
     51 O           4.1254  -15.1880  -43.5156 O.2       4 UNK        -0.5000 
     52 CA          3.7039  -14.2720  -45.6894 C.3       4 UNK         0.1400 
     53 CB          2.7931  -15.1966  -46.5088 C.3       4 UNK        -0.1800 
     54 N           3.5092  -12.8930  -46.1327 N.am      4 UNK        -0.5000 
     55 C           4.4614  -11.9502  -46.1229 C.2       3 UNK         0.5000 
     56 O           5.6308  -12.1601  -45.7988 O.2       3 UNK        -0.5000 
     57 CA          4.0384  -10.5293  -46.5465 C.3       3 UNK         0.1400 
     58 CB          4.2732  -10.3254  -48.0512 C.3       3 UNK        -0.1800 
     59 N           2.6376  -10.2359  -46.2387 N.am      3 UNK        -0.5000 
     60 C           2.1529  -10.0560  -45.0022 C.2       2 UNK         0.5000 
     61 O           2.8512  -10.0430  -43.9887 O.2       2 UNK        -0.5000 
     62 CA          0.6266   -9.8886  -44.8711 C.3       2 UNK         0.1400 
     63 CB          0.2508   -8.4003  -44.8164 C.3       2 UNK        -0.1800 
     64 N          -0.1477  -10.5384  -45.9356 N.am      2 UNK        -0.5000 
     65 C          -0.1839  -11.8590  -46.1591 C.2       1 UNK         0.5000 
     66 O           0.5143  -12.6726  -45.5520 O.2       1 UNK        -0.5000 
     67 C          -1.4930  -21.7670  -48.6286 C.2       11 UNK         0.5000 
     68 O          -1.7730  -22.3270  -49.6889 O.2       11 UNK        -0.5000 
     69 N          -2.4043  -21.3606  -47.7334 N.am      12 UNK        -0.5000 
     70 CA         -3.8362  -21.6191  -47.8469 C.3       12 UNK         0.1400 
     71 CB         -4.6101  -20.7607  -46.8353 C.3       12 UNK        -0.1800 
     72 C          -4.1656  -23.1091  -47.6731 C.2       12 UNK         0.5000 
     73 O          -4.8370  -23.6770  -48.5325 O.2       12 UNK        -0.5000 
     74 N          -3.6732  -23.7273  -46.5888 N.am      13 UNK        -0.5000 
     75 CA         -3.9122  -25.1332  -46.2450 C.3       13 UNK         0.1400 
     76 CB         -3.2613  -25.4584  -44.8929 C.3       13 UNK        -0.1800 
     77 C          -3.4336  -26.1213  -47.3222 C.2       13 UNK         0.5000 
     78 O          -4.1402  -27.0861  -47.6166 O.2       13 UNK        -0.5000 
     79 N          -2.2807  -25.8292  -47.9386 N.am      14 UNK        -0.5000 
     80 CA         -1.7175  -26.5818  -49.0619 C.3       14 UNK         0.1400 
     81 CB         -0.2928  -26.0748  -49.3292 C.3       14 UNK        -0.1800 
     82 C          -2.5755  -26.5368  -50.3463 C.2       14 UNK         0.5000 
     83 O          -2.4369  -27.4216  -51.1913 O.2       14 UNK        -0.5000 
     84 N          -3.4543  -25.5327  -50.4610 N.am      15 UNK        -0.5000 
     85 CA         -4.4281  -25.3607  -51.5396 C.3       15 UNK         0.1400 
     86 CB         -4.2659  -23.9444  -52.1150 C.3       15 UNK        -0.1800 
     87 C          -5.8712  -25.6137  -51.0537 C.2       15 UNK         0.5000 
     88 O          -6.8167  -25.2125  -51.7341 O.2       15 UNK        -0.5000 
     89 N          -6.0282  -26.2432  -49.8767 N.am      16 UNK        -0.5000 
     90 CA         -7.2921  -26.5795  -49.2055 C.3       16 UNK         0.1400 
     91 CB         -8.0267  -27.6921  -49.9815 C.3       16 UNK        -0.1800 
     92 C          -8.1980  -25.3586  -48.9208 C.2       16 UNK         0.5000 
     93 O          -9.4212  -25.4972  -48.8724 O.2       16 UNK        -0.5000 
     94 N          -7.5755  -24.1815  -48.7614 N.am      17 UNK        -0.5000 
     95 CA         -8.1670  -22.8525  -48.5813 C.3       17 UNK         0.1400 
     96 CB         -8.9523  -22.7732  -47.2565 C.3       17 UNK        -0.1800 
     97 C          -8.9841  -22.3438  -49.7906 C.2       17 UNK         0.5000 
     98 O          -9.6990  -21.3492  -49.6567 O.2       17 UNK        -0.5000 
     99 N          -8.8570  -22.9984  -50.9547 N.am      18 UNK        -0.5000 
    100 CA        -9.5164  -22.5990  -52.2011 C.3       18 UNK         0.1400 
    101 CB        -9.6508  -23.8295  -53.1113 C.3       18 UNK        -0.1800 
    102 C         -8.7630  -21.4696  -52.9304 C.2       18 UNK         0.5000 
    103 O         -9.3624  -20.7631  -53.7419 O.2       18 UNK        -0.5000 
    104 N         -7.4695  -21.3234  -52.6281 N.am      19 UNK        -0.5000 
    105 CA        -6.5370  -20.3391  -53.1641 C.3       19 UNK         0.1400 
    106 CB        -6.1775  -20.6864  -54.6262 C.3       19 UNK        -0.1800 
    107 C         -5.3061  -20.3191  -52.2388 C.2       19 UNK         0.5000 
    108 O         -5.3933  -20.7961  -51.1041 O.2       19 UNK        -0.5000 
    109 N         -4.1803  -19.8037  -52.7428 N.am      20 UNK        -0.5000 
    110 CA        -2.8524  -19.9824  -52.1624 C.3       20 UNK         0.1400 
    111 CB        -2.1524  -18.6189  -52.0460 C.3       20 UNK        -0.1800 
    112 C         -2.0630  -20.9212  -53.0877 C.2       20 UNK         0.5000 
    113 O         -2.1790  -20.8092  -54.3101 O.2       20 UNK        -0.5000 
    114 N         -1.2799  -21.8283  -52.4955 N.am      21 UNK        -0.5000 
    115 CA        -0.5328  -22.8809  -53.1920 C.3       21 UNK         0.1400 
    116 CB        -0.1580  -23.9586  -52.1646 C.3       21 UNK        -0.1800 
    117 C          0.7205  -22.4096  -53.9601 C.2       21 UNK         0.5000 
    118 O          1.3676  -23.2370  -54.6048 O.2       21 UNK        -0.5000 
    119 N          1.0683  -21.1212  -53.8622 N.am      22 UNK        -0.5000 
    120 CA         2.2152  -20.5021  -54.5422 C.3       22 UNK         0.1400 
    121 C          2.1361  -20.5202  -56.0991 C.2       22 UNK         0.5000 
    122 N          3.2719  -20.4350  -56.7798 N.am      22 UNK        -0.7600 
    123 O          1.0647  -20.5843  -56.6984 O.2       22 UNK        -0.5000 
    124 C124        2.4976  -19.0847  -53.9845 C.3       23 UNK        -0.0398 
    125 S125        1.1488  -17.8806  -54.2520 S.3       23 UNK        -0.2404 
    126 C126        1.7691  -16.4546  -53.3078 C.3       23 UNK        -0.0205 
    127 H127       -4.3628  -11.5366  -44.8825 H         1 UNK         0.0600 
    128 H128       -3.3128  -10.8984  -46.1351 H         1 UNK         0.0600 
    129 H129       -2.6496  -11.3155  -44.5433 H         1 UNK         0.0600 
    130 H130       -1.9871  -14.2542  -46.9412 H         1 UNK         0.3000 
    131 H131       -1.7045  -11.5001  -47.6426 H         1 UNK         0.0600 
    132 H132        0.4036  -12.3177  -48.7745 H         1 UNK         0.0800 
    133 H133        0.1411  -13.9020  -48.0982 H         1 UNK         0.0800 
    134 H134       -2.4021  -15.4781  -50.4642 H         1 UNK         0.0800 
    135 H135       -1.9411  -15.4760  -48.7835 H         1 UNK         0.0800 
    136 H136       -0.4497  -15.3075  -52.2337 H         1 UNK         0.1150 
    137 H137        2.9450  -17.7081  -51.1748 H         1 UNK         0.1150 
    138 H138        0.0590  -16.6297  -48.1992 H         1 UNK         0.1150 
    139 H139        3.4085  -17.8029  -48.5807 H         1 UNK         0.0800 
    140 H140        2.0092  -17.8606  -47.5412 H         1 UNK         0.0800 
    141 H141        0.0240  -19.8997  -49.7643 H         1 UNK         0.0800 
    142 H142       -0.0420  -19.3461  -48.1089 H         1 UNK         0.0800 
    143 H143        0.5657  -22.2453  -48.8591 H         1 UNK         0.0600 
    144 H144        0.6562  -20.9685  -46.3424 H         1 UNK         0.3000 
    145 H145       -0.0903  -23.8572  -44.3238 H         1 UNK         0.0600 
    146 H146        2.0392  -23.0440  -43.3328 H         1 UNK         0.0600 
    147 H147        2.3877  -22.1123  -44.7879 H         1 UNK         0.0600 
    148 H148        2.3288  -23.8665  -44.8577 H         1 UNK         0.0600 
    149 H149        0.3587  -21.0783  -43.7236 H         1 UNK         0.3000 
    150 H150       -3.0906  -20.1563  -43.5464 H         1 UNK         0.0600 
    151 H151       -2.5768  -21.2864  -41.3740 H         1 UNK         0.0600 
    152 H152       -2.3877  -19.5443  -41.2485 H         1 UNK         0.0600 
    153 H153       -0.9653  -20.5786  -41.3739 H         1 UNK         0.0600 
    154 H154       -0.6697  -18.7385  -43.0012 H         1 UNK         0.3000 
    155 H155        0.0527  -17.6659  -46.2856 H         1 UNK         0.0600 
    156 H156       -1.2811  -16.1053  -44.0169 H         1 UNK         0.0600 
    157 H157       -1.7142  -16.0730  -45.7155 H         1 UNK         0.0600 
    158 H158       -0.1785  -15.3954  -45.1918 H         1 UNK         0.0600 
    159 H159        1.1518  -16.9947  -43.7347 H         1 UNK         0.3000 
    160 H160        3.1710  -19.7784  -43.2577 H         1 UNK         0.0600 
    161 H161        4.3817  -17.4603  -44.8491 H         1 UNK         0.0600 
    162 H162        4.5013  -19.1646  -45.2548 H         1 UNK         0.0600 
    163 H163        5.2605  -18.5594  -43.7911 H         1 UNK         0.0600 
    164 H164        3.4854  -16.9629  -42.5798 H         1 UNK         0.3000 
    165 H165        1.1745  -17.0115  -39.8962 H         1 UNK         0.0600 
    166 H166        3.1193  -16.5178  -38.4392 H         1 UNK         0.0600 
    167 H167        3.0735  -18.2320  -38.8179 H         1 UNK         0.0600 
    168 H168        4.2255  -17.1864  -39.6402 H         1 UNK         0.0600 
    169 H169        3.1906  -15.1294  -40.5694 H         1 UNK         0.3000 
    170 H170        1.0737  -13.0225  -42.2755 H         1 UNK         0.0600 
    171 H171        2.6946  -12.8378  -40.3755 H         1 UNK         0.0600 
    172 H172        3.9928  -13.4382  -41.4067 H         1 UNK         0.0600 
    173 H173        3.2118  -11.9065  -41.7685 H         1 UNK         0.0600 
    174 H174        1.8417  -13.1774  -44.3368 H         1 UNK         0.3000 
    175 H175        4.7374  -14.5754  -45.8707 H         1 UNK         0.0600 
    176 H176        1.7428  -14.9268  -46.4108 H         1 UNK         0.0600 
    177 H177        3.0480  -15.1623  -47.5681 H         1 UNK         0.0600 
    178 H178        2.8980  -16.2289  -46.1806 H         1 UNK         0.0600 
    179 H179        2.5610  -12.6224  -46.3538 H         1 UNK         0.3000 
    180 H180        4.6663   -9.8198  -46.0032 H         1 UNK         0.0600 
    181 H181        4.0423   -9.3033  -48.3518 H         1 UNK         0.0600 
    182 H182        3.6595  -10.9995  -48.6502 H         1 UNK         0.0600 
    183 H183        5.3158  -10.5118  -48.3121 H         1 UNK         0.0600 
    184 H184        1.9949  -10.2051  -47.0159 H         1 UNK         0.3000 
    185 H185        0.3338  -10.3476  -43.9242 H         1 UNK         0.0600 
    186 H186       -0.8143   -8.2687  -44.6248 H         1 UNK         0.0600 
    187 H187        0.7882   -7.8901  -44.0157 H         1 UNK         0.0600 
    188 H188        0.4910   -7.8900  -45.7500 H         1 UNK         0.0600 
    189 H189       -0.7358   -9.9292  -46.4864 H         1 UNK         0.3000 
    190 H190       -2.1018  -20.8364  -46.9182 H         1 UNK         0.3000 
    191 H191       -4.1535  -21.3242  -48.8483 H         1 UNK         0.0600 
    192 H192       -4.4511  -19.6984  -47.0215 H         1 UNK         0.0600 
    193 H193       -4.3048  -20.9680  -45.8094 H         1 UNK         0.0600 
    194 H194       -5.6827  -20.9457  -46.9041 H         1 UNK         0.0600 
    195 H195       -3.1355  -23.1892  -45.9134 H         1 UNK         0.3000 
    196 H196       -4.9914  -25.2630  -46.1413 H         1 UNK         0.0600 
    197 H197       -3.6866  -24.8496  -44.0950 H         1 UNK         0.0600 
    198 H198       -2.1853  -25.2814  -44.9133 H         1 UNK         0.0600 
    199 H199       -3.4190  -26.5030  -44.6216 H         1 UNK         0.0600 
    200 H200       -1.7400  -25.0331  -47.6112 H         1 UNK         0.3000 
    201 H201       -1.6519  -27.6296  -48.7621 H         1 UNK         0.0600 
    202 H202        0.3636  -26.2943  -48.4870 H         1 UNK         0.0600 
    203 H203       -0.2767  -24.9961  -49.4844 H         1 UNK         0.0600 
    204 H204        0.1408  -26.5471  -50.2117 H         1 UNK         0.0600 
    205 H205       -3.5228  -24.8572  -49.7079 H         1 UNK         0.3000 
    206 H206       -4.2426  -26.0751  -52.3436 H         1 UNK         0.0600 
    207 H207       -4.3539  -23.1896  -51.3339 H         1 UNK         0.0600 
    208 H208       -3.2901  -23.8279  -52.5819 H         1 UNK         0.0600 
    209 H209       -5.0124  -23.7253  -52.8793 H         1 UNK         0.0600 
    210 H210       -5.1932  -26.5061  -49.3661 H         1 UNK         0.3000 
    211 H211       -7.0176  -26.9825  -48.2298 H         1 UNK         0.0600 
    212 H212       -8.3854  -27.3399  -50.9492 H         1 UNK         0.0600 
    213 H213       -8.8909  -28.0557  -49.4244 H         1 UNK         0.0600 
    214 H214       -7.3738  -28.5471  -50.1566 H         1 UNK         0.0600 
    215 H215       -6.5577  -24.1783  -48.8124 H         1 UNK         0.3000 
    216 H216       -7.3213  -22.1687  -48.4980 H         1 UNK         0.0600 
    217 H217       -9.2525  -21.7476  -47.0392 H         1 UNK         0.0600 
    218 H218       -8.3453  -23.1153  -46.4182 H         1 UNK         0.0600 
    219 H219       -9.8588  -23.3782  -47.2852 H         1 UNK         0.0600 
    220 H220       -8.2434  -23.8047  -51.0053 H         1 UNK         0.3000 
    221 H221      -10.5211  -22.2370  -51.9729 H         1 UNK         0.0600 
    222 H222       -8.6769  -24.2131  -53.4169 H         1 UNK         0.0600 
    223 H223      -10.1867  -24.6356  -52.6098 H         1 UNK         0.0600 
    224 H224      -10.2047  -23.5844  -54.0183 H         1 UNK         0.0600 
    225 H225       -7.0744  -21.8985  -51.8946 H         1 UNK         0.3000 
    226 H226       -7.0024  -19.3526  -53.1243 H         1 UNK         0.0600 
    227 H227       -7.0673  -20.7670  -55.2502 H         1 UNK         0.0600 
    228 H228       -5.5498  -19.9180  -55.0781 H         1 UNK         0.0600 
    229 H229       -5.6411  -21.6342  -54.6909 H         1 UNK         0.0600 
    230 H230       -4.1822  -19.4907  -53.7037 H         1 UNK         0.3000 
    231 H231       -2.9180  -20.4264  -51.1676 H         1 UNK         0.0600 
    232 H232       -1.1507  -18.7258  -51.6280 H         1 UNK         0.0600 
    233 H233       -2.7071  -17.9475  -51.3907 H         1 UNK         0.0600 
    234 H234       -2.0496  -18.1310  -53.0161 H         1 UNK         0.0600 
    235 H235       -1.3065  -21.9061  -51.4820 H         1 UNK         0.3000 
    236 H236       -1.1982  -23.3361  -53.9285 H         1 UNK         0.0600 
    237 H237        0.5068  -23.5641  -51.3953 H         1 UNK         0.0600 
    238 H238       -1.0475  -24.3485  -51.6728 H         1 UNK         0.0600 
    239 H239        0.3450  -24.8035  -52.6363 H         1 UNK         0.0600 
    240 H240        0.4591  -20.4958  -53.3577 H         1 UNK         0.3000 
    241 H241        3.0774  -21.1187  -54.2803 H         1 UNK         0.0600 
    242 H242        3.2377  -20.4353  -57.7877 H         1 UNK         0.3800 
    243 H243        4.1668  -20.3807  -56.3180 H         1 UNK         0.3800 
    244 H244        3.4136  -18.6816  -54.4194 H         1 UNK         0.0800 
    245 H245        2.6885  -19.1621  -52.9147 H         1 UNK         0.0800 
    246 H246        2.8583  -16.4122  -53.3549 H         1 UNK         0.0800 
    247 H247        1.4113  -15.5398  -53.7826 H         1 UNK         0.0800 
@<TRIPOS>BOND
     1    1    2 1    
     2    1  127 1    
     3    1  128 1    
     4    1  129 1    
     5    2    3 2    
     6    2    4 am   BACKBONE|DICT|INTERRES
     7    4    5 1    
     8    4  130 1    
     9    5    6 1    
    10    5   65 1    
    11    5  131 1    
    12    6    7 1    
    13    6  132 1    
    14    6  133 1    
    15    7    8 1    
    16    8    9 1    
    17    8  134 1    
    18    8  135 1    
    19    9   10 ar   
    20    9   14 ar   
    21   10   11 ar   
    22   10  136 1    
    23   11   12 ar   
    24   11  126 1    
    25   12   13 ar   
    26   12  137 1    
    27   13   14 ar   
    28   13   15 1    
    29   14  138 1    
    30   15   16 1    
    31   15  139 1    
    32   15  140 1    
    33   16   17 1    
    34   17   18 1    
    35   17  141 1    
    36   17  142 1    
    37   18   19 1    
    38   18   67 1    
    39   18  143 1    
    40   19   20 am   BACKBONE|DICT|INTERRES
    41   19  144 1    
    42   20   21 2    
    43   20   22 1    
    44   22   23 1    
    45   22   24 1    
    46   22  145 1    
    47   23  146 1    
    48   23  147 1    
    49   23  148 1    
    50   24   25 am   BACKBONE|DICT|INTERRES
    51   24  149 1    
    52   25   26 2    
    53   25   27 1    
    54   27   28 1    
    55   27   29 1    
    56   27  150 1    
    57   28  151 1    
    58   28  152 1    
    59   28  153 1    
    60   29   30 am   BACKBONE|DICT|INTERRES
    61   29  154 1    
    62   30   31 2    
    63   30   32 1    
    64   32   33 1    
    65   32   34 1    
    66   32  155 1    
    67   33  156 1    
    68   33  157 1    
    69   33  158 1    
    70   34   35 am   BACKBONE|DICT|INTERRES
    71   34  159 1    
    72   35   36 2    
    73   35   37 1    
    74   37   38 1    
    75   37   39 1    
    76   37  160 1    
    77   38  161 1    
    78   38  162 1    
    79   38  163 1    
    80   39   40 am   BACKBONE|DICT|INTERRES
    81   39  164 1    
    82   40   41 2    
    83   40   42 1    
    84   42   43 1    
    85   42   44 1    
    86   42  165 1    
    87   43  166 1    
    88   43  167 1    
    89   43  168 1    
    90   44   45 am   BACKBONE|DICT|INTERRES
    91   44  169 1    
    92   45   46 2    
    93   45   47 1    
    94   47   48 1    
    95   47   49 1    
    96   47  170 1    
    97   48  171 1    
    98   48  172 1    
    99   48  173 1    
   100   49   50 am   BACKBONE|DICT|INTERRES
   101   49  174 1    
   102   50   51 2    
   103   50   52 1    
   104   52   53 1    
   105   52   54 1    
   106   52  175 1    
   107   53  176 1    
   108   53  177 1    
   109   53  178 1    
   110   54   55 am   BACKBONE|DICT|INTERRES
   111   54  179 1    
   112   55   56 2    
   113   55   57 1    
   114   57   58 1    
   115   57   59 1    
   116   57  180 1    
   117   58  181 1    
   118   58  182 1    
   119   58  183 1    
   120   59   60 am   BACKBONE|DICT|INTERRES
   121   59  184 1    
   122   60   61 2    
   123   60   62 1    
   124   62   63 1    
   125   62   64 1    
   126   62  185 1    
   127   63  186 1    
   128   63  187 1    
   129   63  188 1    
   130   64   65 am   BACKBONE|DICT|INTERRES
   131   64  189 1    
   132   65   66 2    
   133   67   68 2    
   134   67   69 am   BACKBONE|DICT|INTERRES
   135   69   70 1    
   136   69  190 1    
   137   70   71 1    
   138   70   72 1    
   139   70  191 1    
   140   71  192 1    
   141   71  193 1    
   142   71  194 1    
   143   72   73 2    
   144   72   74 am   BACKBONE|DICT|INTERRES
   145   74   75 1    
   146   74  195 1    
   147   75   76 1    
   148   75   77 1    
   149   75  196 1    
   150   76  197 1    
   151   76  198 1    
   152   76  199 1    
   153   77   78 2    
   154   77   79 am   BACKBONE|DICT|INTERRES
   155   79   80 1    
   156   79  200 1    
   157   80   81 1    
   158   80   82 1    
   159   80  201 1    
   160   81  202 1    
   161   81  203 1    
   162   81  204 1    
   163   82   83 2    
   164   82   84 am   BACKBONE|DICT|INTERRES
   165   84   85 1    
   166   84  205 1    
   167   85   86 1    
   168   85   87 1    
   169   85  206 1    
   170   86  207 1    
   171   86  208 1    
   172   86  209 1    
   173   87   88 2    
   174   87   89 am   BACKBONE|DICT|INTERRES
   175   89   90 1    
   176   89  210 1    
   177   90   91 1    
   178   90   92 1    
   179   90  211 1    
   180   91  212 1    
   181   91  213 1    
   182   91  214 1    
   183   92   93 2    
   184   92   94 am   BACKBONE|DICT|INTERRES
   185   94   95 1    
   186   94  215 1    
   187   95   96 1    
   188   95   97 1    
   189   95  216 1    
   190   96  217 1    
   191   96  218 1    
   192   96  219 1    
   193   97   98 2    
   194   97   99 am   BACKBONE|DICT|INTERRES
   195   99  100 1    
   196   99  220 1    
   197  100  101 1    
   198  100  102 1    
   199  100  221 1    
   200  101  222 1    
   201  101  223 1    
   202  101  224 1    
   203  102  103 2    
   204  102  104 am   BACKBONE|DICT|INTERRES
   205  104  105 1    
   206  104  225 1    
   207  105  106 1    
   208  105  107 1    
   209  105  226 1    
   210  106  227 1    
   211  106  228 1    
   212  106  229 1    
   213  107  108 2    
   214  107  109 am   BACKBONE|DICT|INTERRES
   215  109  110 1    
   216  109  230 1    
   217  110  111 1    
   218  110  112 1    
   219  110  231 1    
   220  111  232 1    
   221  111  233 1    
   222  111  234 1    
   223  112  113 2    
   224  112  114 am   BACKBONE|DICT|INTERRES
   225  114  115 1    
   226  114  235 1    
   227  115  116 1    
   228  115  117 1    
   229  115  236 1    
   230  116  237 1    
   231  116  238 1    
   232  116  239 1    
   233  117  118 2    
   234  117  119 am   BACKBONE|DICT|INTERRES
   235  119  120 1    
   236  119  240 1    
   237  120  121 1    
   238  120  124 1    
   239  120  241 1    
   240  121  122 am   BACKBONE|DICT|INTERRES
   241  121  123 2    
   242  122  242 1    
   243  122  243 1    
   244  124  125 1    
   245  124  244 1    
   246  124  245 1    
   247  125  126 1    
   248  126  246 1    
   249  126  247 1    
@<TRIPOS>SUBSTRUCTURE
     1 UNK         1 GROUP             0       ****    0 ROOT    
