@<TRIPOS>MOLECULE
3R540
247   249    1
SMALL
USER_CHARGES


@<TRIPOS>ATOM
      1 CA         -0.7073  -19.0467  -49.9381 C.3       0 UNK        -0.1800 
      2 C          -0.5157  -17.7723  -49.1289 C.2       0 UNK         0.5000 
      3 O           0.3583  -17.7219  -48.2676 O.2       0 UNK        -0.5000 
      4 N          -1.3150  -16.7381  -49.4236 N.am      1 UNK        -0.5000 
      5 CA         -1.2040  -15.3783  -48.8738 C.3       1 UNK         0.1400 
      6 C6          0.1746  -14.7070  -49.1415 C.3       23 UNK        -0.0398 
      7 S7          0.6242  -14.6562  -50.9102 S.3       23 UNK        -0.2404 
      8 C8          2.3622  -15.2072  -50.8849 C.3       23 UNK        -0.0205 
      9 C9          2.5247  -16.7020  -51.1363 C.ar      23 UNK        -0.0193 
     10 C10         2.3663  -17.2075  -52.4299 C.ar      23 UNK        -0.1150 
     11 C11         2.6078  -18.5570  -52.7043 C.ar      23 UNK        -0.0193 
     12 C12         3.0043  -19.4060  -51.6672 C.ar      23 UNK        -0.1150 
     13 C13         3.1462  -18.9234  -50.3622 C.ar      23 UNK        -0.0193 
     14 C14         2.9082  -17.5674  -50.1052 C.ar      23 UNK        -0.1150 
     15 C15         3.6198  -19.8563  -49.2522 C.3       23 UNK        -0.0205 
     16 S16         2.4887  -21.2633  -48.9729 S.3       23 UNK        -0.2404 
     17 C17         1.8551  -20.8985  -47.3030 C.3       23 UNK        -0.0398 
     18 CA          1.0380  -22.0641  -46.6885 C.3       11 UNK         0.1400 
     19 N           0.9697  -21.9808  -45.2250 N.am      11 UNK        -0.5000 
     20 C           0.4285  -22.9089  -44.4211 C.2       10 UNK         0.5000 
     21 O           0.0007  -23.9923  -44.8209 O.2       10 UNK        -0.5000 
     22 CA          0.2934  -22.5465  -42.9279 C.3       10 UNK         0.1400 
     23 CB          1.5994  -22.8228  -42.1688 C.3       10 UNK        -0.1800 
     24 N          -0.1156  -21.1551  -42.7210 N.am      10 UNK        -0.5000 
     25 C          -1.3077  -20.6579  -43.0834 C.2       9 UNK         0.5000 
     26 O          -2.2150  -21.3432  -43.5537 O.2       9 UNK        -0.5000 
     27 CA         -1.4954  -19.1326  -42.9652 C.3       9 UNK         0.1400 
     28 CB         -1.8799  -18.7270  -41.5353 C.3       9 UNK        -0.1800 
     29 N          -0.3070  -18.3931  -43.3964 N.am      9 UNK        -0.5000 
     30 C           0.1931  -18.4300  -44.6394 C.2       8 UNK         0.5000 
     31 O          -0.3611  -19.0209  -45.5617 O.2       8 UNK        -0.5000 
     32 CA          1.5688  -17.7783  -44.8735 C.3       8 UNK         0.1400 
     33 CB          1.4499  -16.2849  -45.1941 C.3       8 UNK        -0.1800 
     34 N           2.4480  -17.9563  -43.7206 N.am      8 UNK        -0.5000 
     35 C           3.0491  -19.1098  -43.4027 C.2       7 UNK         0.5000 
     36 O           2.9575  -20.1324  -44.0799 O.2       7 UNK        -0.5000 
     37 CA          3.8527  -19.1318  -42.0890 C.3       7 UNK         0.1400 
     38 CB          5.2985  -18.6758  -42.3337 C.3       7 UNK        -0.1800 
     39 N           3.2491  -18.2907  -41.0535 N.am      7 UNK        -0.5000 
     40 C           2.0750  -18.5500  -40.4602 C.2       6 UNK         0.5000 
     41 O           1.4195  -19.5704  -40.6708 O.2       6 UNK        -0.5000 
     42 CA          1.5168  -17.4573  -39.5252 C.3       6 UNK         0.1400 
     43 CB          2.0374  -17.6533  -38.0939 C.3       6 UNK        -0.1800 
     44 N           1.8364  -16.0981  -39.9797 N.am      6 UNK        -0.5000 
     45 C           1.3970  -15.5650  -41.1277 C.2       5 UNK         0.5000 
     46 O           0.6342  -16.1502  -41.8980 O.2       5 UNK        -0.5000 
     47 CA          1.9641  -14.1940  -41.5186 C.3       5 UNK         0.1400 
     48 CB          3.4492  -14.3401  -41.9177 C.3       5 UNK        -0.1800 
     49 N           1.1880  -13.6565  -42.6361 N.am      5 UNK        -0.5000 
     50 C           1.2967  -12.4229  -43.1427 C.2       4 UNK         0.5000 
     51 O           2.0365  -11.5562  -42.6740 O.2       4 UNK        -0.5000 
     52 CA          0.4507  -12.0883  -44.3861 C.3       4 UNK         0.1400 
     53 CB          1.2252  -12.4214  -45.6708 C.3       4 UNK        -0.1800 
     54 N          -0.8642  -12.7352  -44.4250 N.am      4 UNK        -0.5000 
     55 C          -1.8819  -12.4039  -43.6161 C.2       3 UNK         0.5000 
     56 O          -1.7652  -11.6189  -42.6737 O.2       3 UNK        -0.5000 
     57 CA         -3.2782  -12.9863  -43.9196 C.3       3 UNK         0.1400 
     58 CB         -4.2065  -11.8880  -44.4633 C.3       3 UNK        -0.1800 
     59 N          -3.2767  -14.0964  -44.8719 N.am      3 UNK        -0.5000 
     60 C          -2.9923  -15.3643  -44.5542 C.2       2 UNK         0.5000 
     61 O          -2.6640  -15.7251  -43.4250 O.2       2 UNK        -0.5000 
     62 CA         -3.1272  -16.4150  -45.6759 C.3       2 UNK         0.1400 
     63 CB         -4.5944  -16.8692  -45.7589 C.3       2 UNK        -0.1800 
     64 N          -2.6768  -16.0439  -47.0263 N.am      2 UNK        -0.5000 
     65 C          -1.5958  -15.3306  -47.3786 C.2       1 UNK         0.5000 
     66 O          -0.9258  -14.6637  -46.5910 O.2       1 UNK        -0.5000 
     67 C          -0.3713  -22.1714  -47.3080 C.2       11 UNK         0.5000 
     68 O          -0.6207  -23.0818  -48.0948 O.2       11 UNK        -0.5000 
     69 N          -1.2848  -21.2866  -46.8883 N.am      12 UNK        -0.5000 
     70 CA         -2.6904  -21.2690  -47.2876 C.3       12 UNK         0.1400 
     71 CB         -3.3621  -20.0143  -46.7226 C.3       12 UNK        -0.1800 
     72 C          -3.4640  -22.5356  -46.8905 C.2       12 UNK         0.5000 
     73 O          -4.2613  -23.0226  -47.6902 O.2       12 UNK        -0.5000 
     74 N          -3.1955  -23.0720  -45.6927 N.am      13 UNK        -0.5000 
     75 CA         -3.7688  -24.3302  -45.2105 C.3       13 UNK         0.1400 
     76 CB         -3.3883  -24.5427  -43.7377 C.3       13 UNK        -0.1800 
     77 C          -3.3577  -25.5444  -46.0665 C.2       13 UNK         0.5000 
     78 O          -4.1824  -26.4304  -46.2930 O.2       13 UNK        -0.5000 
     79 N          -2.1070  -25.5500  -46.5477 N.am      14 UNK        -0.5000 
     80 CA         -1.5887  -26.5525  -47.4774 C.3       14 UNK         0.1400 
     81 CB         -0.0524  -26.5360  -47.4401 C.3       14 UNK        -0.1800 
     82 C          -2.1086  -26.3428  -48.9131 C.2       14 UNK         0.5000 
     83 O          -2.4749  -27.3154  -49.5738 O.2       14 UNK        -0.5000 
     84 N          -2.1250  -25.0828  -49.3696 N.am      15 UNK        -0.5000 
     85 CA         -2.5371  -24.6743  -50.7139 C.3       15 UNK         0.1400 
     86 CB         -2.0879  -23.2247  -50.9530 C.3       15 UNK        -0.1800 
     87 C          -4.0485  -24.8231  -50.9734 C.2       15 UNK         0.5000 
     88 O          -4.4392  -25.0665  -52.1163 O.2       15 UNK        -0.5000 
     89 N          -4.8661  -24.6739  -49.9209 N.am      16 UNK        -0.5000 
     90 CA         -6.3263  -24.7815  -49.9018 C.3       16 UNK         0.1400 
     91 CB         -6.7641  -26.2458  -50.1263 C.3       16 UNK        -0.1800 
     92 C          -6.9771  -23.7734  -50.8692 C.2       16 UNK         0.5000 
     93 O          -6.9826  -22.5777  -50.5785 O.2       16 UNK        -0.5000 
     94 N          -7.4777  -24.2506  -52.0165 N.am      17 UNK        -0.5000 
     95 CA         -8.0501  -23.4287  -53.0862 C.3       17 UNK         0.1400 
     96 CB         -8.6760  -24.3510  -54.1431 C.3       17 UNK        -0.1800 
     97 C          -7.0348  -22.4684  -53.7410 C.2       17 UNK         0.5000 
     98 O          -7.4368  -21.4269  -54.2602 O.2       17 UNK        -0.5000 
     99 N          -5.7415  -22.8161  -53.6854 N.am      18 UNK        -0.5000 
    100 CA        -4.6350  -22.0162  -54.2108 C.3       18 UNK         0.1400 
    101 CB        -3.5432  -22.9634  -54.7383 C.3       18 UNK        -0.1800 
    102 C         -4.0834  -20.9928  -53.1936 C.2       18 UNK         0.5000 
    103 O         -3.0527  -20.3780  -53.4650 O.2       18 UNK        -0.5000 
    104 N         -4.7634  -20.7914  -52.0520 N.am      19 UNK        -0.5000 
    105 CA        -4.3945  -19.8134  -51.0186 C.3       19 UNK         0.1400 
    106 CB        -5.3439  -19.9442  -49.8212 C.3       19 UNK        -0.1800 
    107 C         -4.3537  -18.3486  -51.5034 C.2       19 UNK         0.5000 
    108 O         -3.6544  -17.5306  -50.9009 O.2       19 UNK        -0.5000 
    109 N         -5.0622  -18.0471  -52.6001 N.am      20 UNK        -0.5000 
    110 CA        -5.0414  -16.7751  -53.3235 C.3       20 UNK         0.1400 
    111 CB        -6.2871  -16.7052  -54.2245 C.3       20 UNK        -0.1800 
    112 C         -3.7257  -16.5810  -54.1124 C.2       20 UNK         0.5000 
    113 O         -3.7383  -16.5124  -55.3437 O.2       20 UNK        -0.5000 
    114 N         -2.6087  -16.5302  -53.3740 N.am      21 UNK        -0.5000 
    115 CA        -1.2310  -16.2902  -53.8196 C.3       21 UNK         0.1400 
    116 CB        -1.0584  -14.8079  -54.2082 C.3       21 UNK        -0.1800 
    117 C         -0.7405  -17.2522  -54.9233 C.2       21 UNK         0.5000 
    118 O          0.0574  -16.8539  -55.7739 O.2       21 UNK        -0.5000 
    119 N         -1.2334  -18.4971  -54.8946 N.am      22 UNK        -0.5000 
    120 CA        -0.9683  -19.5597  -55.8787 C.3       22 UNK         0.1400 
    121 C         -1.5979  -19.3083  -57.2832 C.2       22 UNK         0.5000 
    122 N         -2.5350  -18.3783  -57.4368 N.am      22 UNK        -0.7600 
    123 O         -1.2580  -19.9875  -58.2483 O.2       22 UNK        -0.5000 
    124 C124        0.5236  -19.9948  -55.9468 C.3       23 UNK        -0.0398 
    125 S125        1.2211  -20.3728  -54.2974 S.3       23 UNK        -0.2404 
    126 C126        2.4948  -19.0792  -54.1300 C.3       23 UNK        -0.0205 
    127 H127        0.2603  -19.4717  -50.2022 H         1 UNK         0.0600 
    128 H128       -1.2470  -18.8590  -50.8658 H         1 UNK         0.0600 
    129 H129       -1.2524  -19.7848  -49.3567 H         1 UNK         0.0600 
    130 H130       -2.0749  -16.8841  -50.0817 H         1 UNK         0.3000 
    131 H131       -1.9580  -14.7856  -49.3937 H         1 UNK         0.0600 
    132 H132        0.9602  -15.2113  -48.5777 H         1 UNK         0.0800 
    133 H133        0.1677  -13.6762  -48.7834 H         1 UNK         0.0800 
    134 H134        2.8363  -14.9161  -49.9465 H         1 UNK         0.0800 
    135 H135        2.8999  -14.6655  -51.6644 H         1 UNK         0.0800 
    136 H136        2.0826  -16.5375  -53.2297 H         1 UNK         0.1150 
    137 H137        3.2061  -20.4471  -51.8774 H         1 UNK         0.1150 
    138 H138        3.0345  -17.1812  -49.1036 H         1 UNK         0.1150 
    139 H139        4.5997  -20.2499  -49.5254 H         1 UNK         0.0800 
    140 H140        3.7666  -19.3021  -48.3241 H         1 UNK         0.0800 
    141 H141        1.2757  -19.9769  -47.3399 H         1 UNK         0.0800 
    142 H142        2.7196  -20.6898  -46.6722 H         1 UNK         0.0800 
    143 H143        1.5617  -22.9960  -46.9125 H         1 UNK         0.0600 
    144 H144        1.3598  -21.1462  -44.8017 H         1 UNK         0.3000 
    145 H145       -0.4821  -23.1866  -42.5024 H         1 UNK         0.0600 
    146 H146        1.4885  -22.6123  -41.1049 H         1 UNK         0.0600 
    147 H147        2.4240  -22.2177  -42.5439 H         1 UNK         0.0600 
    148 H148        1.8911  -23.8692  -42.2657 H         1 UNK         0.0600 
    149 H149        0.5562  -20.5360  -42.2806 H         1 UNK         0.3000 
    150 H150       -2.3185  -18.8481  -43.6223 H         1 UNK         0.0600 
    151 H151       -2.8237  -19.1889  -41.2436 H         1 UNK         0.0600 
    152 H152       -2.0058  -17.6472  -41.4520 H         1 UNK         0.0600 
    153 H153       -1.1297  -19.0338  -40.8082 H         1 UNK         0.0600 
    154 H154        0.1468  -17.8023  -42.7063 H         1 UNK         0.3000 
    155 H155        2.0345  -18.2637  -45.7336 H         1 UNK         0.0600 
    156 H156        1.1068  -16.1546  -46.2184 H         1 UNK         0.0600 
    157 H157        2.4099  -15.7751  -45.1149 H         1 UNK         0.0600 
    158 H158        0.7389  -15.7782  -44.5420 H         1 UNK         0.0600 
    159 H159        2.5221  -17.1778  -43.0845 H         1 UNK         0.3000 
    160 H160        3.8735  -20.1620  -41.7270 H         1 UNK         0.0600 
    161 H161        5.3434  -17.6423  -42.6798 H         1 UNK         0.0600 
    162 H162        5.7801  -19.2968  -43.0903 H         1 UNK         0.0600 
    163 H163        5.8952  -18.7521  -41.4246 H         1 UNK         0.0600 
    164 H164        3.7345  -17.4392  -40.8139 H         1 UNK         0.3000 
    165 H165        0.4298  -17.5595  -39.5097 H         1 UNK         0.0600 
    166 H166        1.5866  -16.9353  -37.4086 H         1 UNK         0.0600 
    167 H167        1.7945  -18.6504  -37.7239 H         1 UNK         0.0600 
    168 H168        3.1205  -17.5373  -38.0384 H         1 UNK         0.0600 
    169 H169        2.4616  -15.5623  -39.3947 H         1 UNK         0.3000 
    170 H170        1.8693  -13.5226  -40.6631 H         1 UNK         0.0600 
    171 H171        3.5674  -14.9734  -42.7978 H         1 UNK         0.0600 
    172 H172        3.9038  -13.3755  -42.1417 H         1 UNK         0.0600 
    173 H173        4.0380  -14.7817  -41.1132 H         1 UNK         0.0600 
    174 H174        0.5202  -14.3070  -43.0322 H         1 UNK         0.3000 
    175 H175        0.2838  -11.0090  -44.3775 H         1 UNK         0.0600 
    176 H176        1.4217  -13.4894  -45.7578 H         1 UNK         0.0600 
    177 H177        0.6716  -12.1110  -46.5571 H         1 UNK         0.0600 
    178 H178        2.1876  -11.9086  -45.6920 H         1 UNK         0.0600 
    179 H179       -1.0176  -13.4112  -45.1700 H         1 UNK         0.3000 
    180 H180       -3.6933  -13.3371  -42.9722 H         1 UNK         0.0600 
    181 H181       -5.2177  -12.2657  -44.6161 H         1 UNK         0.0600 
    182 H182       -3.8473  -11.4928  -45.4143 H         1 UNK         0.0600 
    183 H183       -4.2770  -11.0519  -43.7662 H         1 UNK         0.0600 
    184 H184       -3.5098  -13.8793  -45.8296 H         1 UNK         0.3000 
    185 H185       -2.5208  -17.2724  -45.3846 H         1 UNK         0.0600 
    186 H186       -5.2579  -16.0345  -45.9889 H         1 UNK         0.0600 
    187 H187       -4.7461  -17.6236  -46.5286 H         1 UNK         0.0600 
    188 H188       -4.9241  -17.2991  -44.8121 H         1 UNK         0.0600 
    189 H189       -3.1503  -16.5252  -47.7765 H         1 UNK         0.3000 
    190 H190       -0.9817  -20.5353  -46.2692 H         1 UNK         0.3000 
    191 H191       -2.7277  -21.2069  -48.3750 H         1 UNK         0.0600 
    192 H192       -2.9208  -19.1158  -47.1535 H         1 UNK         0.0600 
    193 H193       -3.2590  -19.9535  -45.6397 H         1 UNK         0.0600 
    194 H194       -4.4286  -20.0039  -46.9476 H         1 UNK         0.0600 
    195 H195       -2.5814  -22.5720  -45.0569 H         1 UNK         0.3000 
    196 H196       -4.8555  -24.2402  -45.2680 H         1 UNK         0.0600 
    197 H197       -3.7331  -23.7151  -43.1176 H         1 UNK         0.0600 
    198 H198       -2.3100  -24.6317  -43.6078 H         1 UNK         0.0600 
    199 H199       -3.8417  -25.4539  -43.3457 H         1 UNK         0.0600 
    200 H200       -1.4811  -24.7962  -46.2886 H         1 UNK         0.3000 
    201 H201       -1.9194  -27.5383  -47.1434 H         1 UNK         0.0600 
    202 H202        0.3184  -26.7437  -46.4362 H         1 UNK         0.0600 
    203 H203        0.3513  -25.5719  -47.7501 H         1 UNK         0.0600 
    204 H204        0.3621  -27.2948  -48.1048 H         1 UNK         0.0600 
    205 H205       -1.7345  -24.3503  -48.7800 H         1 UNK         0.3000 
    206 H206       -2.0159  -25.3126  -51.4302 H         1 UNK         0.0600 
    207 H207       -2.6157  -22.5290  -50.3015 H         1 UNK         0.0600 
    208 H208       -1.0186  -23.1055  -50.7777 H         1 UNK         0.0600 
    209 H209       -2.2737  -22.9179  -51.9798 H         1 UNK         0.0600 
    210 H210       -4.4559  -24.3496  -49.0491 H         1 UNK         0.3000 
    211 H211       -6.6428  -24.4920  -48.8987 H         1 UNK         0.0600 
    212 H212       -6.4283  -26.6405  -51.0855 H         1 UNK         0.0600 
    213 H213       -7.8500  -26.3414  -50.0873 H         1 UNK         0.0600 
    214 H214       -6.3572  -26.8919  -49.3481 H         1 UNK         0.0600 
    215 H215       -7.4016  -25.2412  -52.1966 H         1 UNK         0.3000 
    216 H216       -8.8437  -22.8179  -52.6508 H         1 UNK         0.0600 
    217 H217       -9.1376  -23.7714  -54.9438 H         1 UNK         0.0600 
    218 H218       -9.4539  -24.9790  -53.7086 H         1 UNK         0.0600 
    219 H219       -7.9305  -25.0043  -54.5984 H         1 UNK         0.0600 
    220 H220       -5.4859  -23.6780  -53.2129 H         1 UNK         0.3000 
    221 H221       -4.9897  -21.4329  -55.0630 H         1 UNK         0.0600 
    222 H222       -3.1548  -23.6164  -53.9589 H         1 UNK         0.0600 
    223 H223       -3.9322  -23.5986  -55.5341 H         1 UNK         0.0600 
    224 H224       -2.7005  -22.4122  -55.1544 H         1 UNK         0.0600 
    225 H225       -5.5929  -21.3434  -51.8715 H         1 UNK         0.3000 
    226 H226       -3.3888  -20.0641  -50.6795 H         1 UNK         0.0600 
    227 H227       -5.2417  -20.9184  -49.3431 H         1 UNK         0.0600 
    228 H228       -5.1319  -19.1869  -49.0659 H         1 UNK         0.0600 
    229 H229       -6.3858  -19.8236  -50.1201 H         1 UNK         0.0600 
    230 H230       -5.5898  -18.7919  -53.0310 H         1 UNK         0.3000 
    231 H231       -5.1082  -15.9613  -52.5984 H         1 UNK         0.0600 
    232 H232       -6.3266  -15.7586  -54.7650 H         1 UNK         0.0600 
    233 H233       -7.2026  -16.7805  -53.6376 H         1 UNK         0.0600 
    234 H234       -6.2958  -17.5074  -54.9636 H         1 UNK         0.0600 
    235 H235       -2.7296  -16.6752  -52.3772 H         1 UNK         0.3000 
    236 H236       -0.5966  -16.4854  -52.9545 H         1 UNK         0.0600 
    237 H237       -1.6270  -14.5585  -55.1047 H         1 UNK         0.0600 
    238 H238       -1.3902  -14.1492  -53.4056 H         1 UNK         0.0600 
    239 H239       -0.0116  -14.5724  -54.4038 H         1 UNK         0.0600 
    240 H240       -1.8890  -18.7568  -54.1668 H         1 UNK         0.3000 
    241 H241       -1.5131  -20.4248  -55.5071 H         1 UNK         0.0600 
    242 H242       -2.9408  -18.2323  -58.3473 H         1 UNK         0.3800 
    243 H243       -2.8350  -17.8014  -56.6579 H         1 UNK         0.3800 
    244 H244        1.1215  -19.2374  -56.4542 H         1 UNK         0.0800 
    245 H245        0.6204  -20.8977  -56.5515 H         1 UNK         0.0800 
    246 H246        2.2816  -18.2515  -54.8071 H         1 UNK         0.0800 
    247 H247        3.4571  -19.4866  -54.4421 H         1 UNK         0.0800 
@<TRIPOS>BOND
     1    1    2 1    
     2    1  127 1    
     3    1  128 1    
     4    1  129 1    
     5    2    3 2    
     6    2    4 am   BACKBONE|DICT|INTERRES
     7    4    5 1    
     8    4  130 1    
     9    5    6 1    
    10    5   65 1    
    11    5  131 1    
    12    6    7 1    
    13    6  132 1    
    14    6  133 1    
    15    7    8 1    
    16    8    9 1    
    17    8  134 1    
    18    8  135 1    
    19    9   10 ar   
    20    9   14 ar   
    21   10   11 ar   
    22   10  136 1    
    23   11   12 ar   
    24   11  126 1    
    25   12   13 ar   
    26   12  137 1    
    27   13   14 ar   
    28   13   15 1    
    29   14  138 1    
    30   15   16 1    
    31   15  139 1    
    32   15  140 1    
    33   16   17 1    
    34   17   18 1    
    35   17  141 1    
    36   17  142 1    
    37   18   19 1    
    38   18   67 1    
    39   18  143 1    
    40   19   20 am   BACKBONE|DICT|INTERRES
    41   19  144 1    
    42   20   21 2    
    43   20   22 1    
    44   22   23 1    
    45   22   24 1    
    46   22  145 1    
    47   23  146 1    
    48   23  147 1    
    49   23  148 1    
    50   24   25 am   BACKBONE|DICT|INTERRES
    51   24  149 1    
    52   25   26 2    
    53   25   27 1    
    54   27   28 1    
    55   27   29 1    
    56   27  150 1    
    57   28  151 1    
    58   28  152 1    
    59   28  153 1    
    60   29   30 am   BACKBONE|DICT|INTERRES
    61   29  154 1    
    62   30   31 2    
    63   30   32 1    
    64   32   33 1    
    65   32   34 1    
    66   32  155 1    
    67   33  156 1    
    68   33  157 1    
    69   33  158 1    
    70   34   35 am   BACKBONE|DICT|INTERRES
    71   34  159 1    
    72   35   36 2    
    73   35   37 1    
    74   37   38 1    
    75   37   39 1    
    76   37  160 1    
    77   38  161 1    
    78   38  162 1    
    79   38  163 1    
    80   39   40 am   BACKBONE|DICT|INTERRES
    81   39  164 1    
    82   40   41 2    
    83   40   42 1    
    84   42   43 1    
    85   42   44 1    
    86   42  165 1    
    87   43  166 1    
    88   43  167 1    
    89   43  168 1    
    90   44   45 am   BACKBONE|DICT|INTERRES
    91   44  169 1    
    92   45   46 2    
    93   45   47 1    
    94   47   48 1    
    95   47   49 1    
    96   47  170 1    
    97   48  171 1    
    98   48  172 1    
    99   48  173 1    
   100   49   50 am   BACKBONE|DICT|INTERRES
   101   49  174 1    
   102   50   51 2    
   103   50   52 1    
   104   52   53 1    
   105   52   54 1    
   106   52  175 1    
   107   53  176 1    
   108   53  177 1    
   109   53  178 1    
   110   54   55 am   BACKBONE|DICT|INTERRES
   111   54  179 1    
   112   55   56 2    
   113   55   57 1    
   114   57   58 1    
   115   57   59 1    
   116   57  180 1    
   117   58  181 1    
   118   58  182 1    
   119   58  183 1    
   120   59   60 am   BACKBONE|DICT|INTERRES
   121   59  184 1    
   122   60   61 2    
   123   60   62 1    
   124   62   63 1    
   125   62   64 1    
   126   62  185 1    
   127   63  186 1    
   128   63  187 1    
   129   63  188 1    
   130   64   65 am   BACKBONE|DICT|INTERRES
   131   64  189 1    
   132   65   66 2    
   133   67   68 2    
   134   67   69 am   BACKBONE|DICT|INTERRES
   135   69   70 1    
   136   69  190 1    
   137   70   71 1    
   138   70   72 1    
   139   70  191 1    
   140   71  192 1    
   141   71  193 1    
   142   71  194 1    
   143   72   73 2    
   144   72   74 am   BACKBONE|DICT|INTERRES
   145   74   75 1    
   146   74  195 1    
   147   75   76 1    
   148   75   77 1    
   149   75  196 1    
   150   76  197 1    
   151   76  198 1    
   152   76  199 1    
   153   77   78 2    
   154   77   79 am   BACKBONE|DICT|INTERRES
   155   79   80 1    
   156   79  200 1    
   157   80   81 1    
   158   80   82 1    
   159   80  201 1    
   160   81  202 1    
   161   81  203 1    
   162   81  204 1    
   163   82   83 2    
   164   82   84 am   BACKBONE|DICT|INTERRES
   165   84   85 1    
   166   84  205 1    
   167   85   86 1    
   168   85   87 1    
   169   85  206 1    
   170   86  207 1    
   171   86  208 1    
   172   86  209 1    
   173   87   88 2    
   174   87   89 am   BACKBONE|DICT|INTERRES
   175   89   90 1    
   176   89  210 1    
   177   90   91 1    
   178   90   92 1    
   179   90  211 1    
   180   91  212 1    
   181   91  213 1    
   182   91  214 1    
   183   92   93 2    
   184   92   94 am   BACKBONE|DICT|INTERRES
   185   94   95 1    
   186   94  215 1    
   187   95   96 1    
   188   95   97 1    
   189   95  216 1    
   190   96  217 1    
   191   96  218 1    
   192   96  219 1    
   193   97   98 2    
   194   97   99 am   BACKBONE|DICT|INTERRES
   195   99  100 1    
   196   99  220 1    
   197  100  101 1    
   198  100  102 1    
   199  100  221 1    
   200  101  222 1    
   201  101  223 1    
   202  101  224 1    
   203  102  103 2    
   204  102  104 am   BACKBONE|DICT|INTERRES
   205  104  105 1    
   206  104  225 1    
   207  105  106 1    
   208  105  107 1    
   209  105  226 1    
   210  106  227 1    
   211  106  228 1    
   212  106  229 1    
   213  107  108 2    
   214  107  109 am   BACKBONE|DICT|INTERRES
   215  109  110 1    
   216  109  230 1    
   217  110  111 1    
   218  110  112 1    
   219  110  231 1    
   220  111  232 1    
   221  111  233 1    
   222  111  234 1    
   223  112  113 2    
   224  112  114 am   BACKBONE|DICT|INTERRES
   225  114  115 1    
   226  114  235 1    
   227  115  116 1    
   228  115  117 1    
   229  115  236 1    
   230  116  237 1    
   231  116  238 1    
   232  116  239 1    
   233  117  118 2    
   234  117  119 am   BACKBONE|DICT|INTERRES
   235  119  120 1    
   236  119  240 1    
   237  120  121 1    
   238  120  124 1    
   239  120  241 1    
   240  121  122 am   BACKBONE|DICT|INTERRES
   241  121  123 2    
   242  122  242 1    
   243  122  243 1    
   244  124  125 1    
   245  124  244 1    
   246  124  245 1    
   247  125  126 1    
   248  126  246 1    
   249  126  247 1    
@<TRIPOS>SUBSTRUCTURE
     1 UNK         1 GROUP             0       ****    0 ROOT    
