@<TRIPOS>MOLECULE
3R540
247   249    1
SMALL
USER_CHARGES


@<TRIPOS>ATOM
      1 CA          7.6013  -10.2185  -45.3070 C.3       0 UNK        -0.1800 
      2 C           6.3048  -10.9682  -45.5788 C.2       0 UNK         0.5000 
      3 O           5.3995  -10.9469  -44.7461 O.2       0 UNK        -0.5000 
      4 N           6.2118  -11.6261  -46.7421 N.am      1 UNK        -0.5000 
      5 CA          5.0386  -12.3932  -47.1851 C.3       1 UNK         0.1400 
      6 C6          5.4415  -13.4645  -48.2303 C.3       23 UNK        -0.0398 
      7 S7          4.3281  -14.9105  -48.2448 S.3       23 UNK        -0.2404 
      8 C8          4.7419  -15.6009  -49.8744 C.3       23 UNK        -0.0205 
      9 C9          3.9594  -16.8715  -50.1641 C.ar      23 UNK        -0.0193 
     10 C10         2.8138  -16.8293  -50.9649 C.ar      23 UNK        -0.1150 
     11 C11         2.1149  -18.0027  -51.2626 C.ar      23 UNK        -0.0193 
     12 C12         2.5699  -19.2223  -50.7566 C.ar      23 UNK        -0.1150 
     13 C13         3.7034  -19.2760  -49.9408 C.ar      23 UNK        -0.0193 
     14 C14         4.3955  -18.0965  -49.6501 C.ar      23 UNK        -0.1150 
     15 C15         4.1874  -20.6067  -49.3836 C.3       23 UNK        -0.0205 
     16 S16         3.3131  -21.0551  -47.8506 S.3       23 UNK        -0.2404 
     17 C17         1.6894  -21.5792  -48.4991 C.3       23 UNK        -0.0398 
     18 CA          1.0510  -22.6896  -47.6359 C.3       11 UNK         0.1400 
     19 N           0.6268  -22.2039  -46.3203 N.am      11 UNK        -0.5000 
     20 C           0.2074  -22.9913  -45.3206 C.2       10 UNK         0.5000 
     21 O           0.1831  -24.2216  -45.3825 O.2       10 UNK        -0.5000 
     22 CA         -0.3214  -22.2839  -44.0599 C.3       10 UNK         0.1400 
     23 CB          0.8360  -21.7759  -43.1872 C.3       10 UNK        -0.1800 
     24 N          -1.2330  -21.1810  -44.3749 N.am      10 UNK        -0.5000 
     25 C          -2.4222  -21.3379  -44.9744 C.2       9 UNK         0.5000 
     26 O          -2.8844  -22.4332  -45.2883 O.2       9 UNK        -0.5000 
     27 CA         -3.2245  -20.0685  -45.3101 C.3       9 UNK         0.1400 
     28 CB         -4.0080  -19.5790  -44.0839 C.3       9 UNK        -0.1800 
     29 N          -2.3963  -18.9845  -45.8349 N.am      9 UNK        -0.5000 
     30 C          -1.7149  -19.0364  -46.9888 C.2       8 UNK         0.5000 
     31 O          -1.7336  -19.9995  -47.7532 O.2       8 UNK        -0.5000 
     32 CA         -0.8107  -17.8343  -47.3126 C.3       8 UNK         0.1400 
     33 CB         -1.6425  -16.6405  -47.8050 C.3       8 UNK        -0.1800 
     34 N           0.0066  -17.4275  -46.1699 N.am      8 UNK        -0.5000 
     35 C           0.8797  -18.2227  -45.5343 C.2       7 UNK         0.5000 
     36 O           1.1229  -19.3825  -45.8638 O.2       7 UNK        -0.5000 
     37 CA          1.5381  -17.6446  -44.2727 C.3       7 UNK         0.1400 
     38 CB          2.6971  -16.7042  -44.6379 C.3       7 UNK        -0.1800 
     39 N           0.5627  -16.9453  -43.4343 N.am      7 UNK        -0.5000 
     40 C          -0.4155  -17.5579  -42.7507 C.2       6 UNK         0.5000 
     41 O          -0.5702  -18.7785  -42.7255 O.2       6 UNK        -0.5000 
     42 CA         -1.4098  -16.6546  -41.9980 C.3       6 UNK         0.1400 
     43 CB         -0.8341  -16.2278  -40.6395 C.3       6 UNK        -0.1800 
     44 N          -1.7833  -15.4645  -42.7629 N.am      6 UNK        -0.5000 
     45 C          -2.4910  -15.4873  -43.9012 C.2       5 UNK         0.5000 
     46 O          -2.9376  -16.5157  -44.4069 O.2       5 UNK        -0.5000 
     47 CA         -2.6938  -14.1400  -44.6209 C.3       5 UNK         0.1400 
     48 CB         -3.9511  -13.4317  -44.0961 C.3       5 UNK        -0.1800 
     49 N          -1.5474  -13.2331  -44.5137 N.am      5 UNK        -0.5000 
     50 C          -0.3011  -13.5119  -44.9162 C.2       4 UNK         0.5000 
     51 O           0.0269  -14.5876  -45.4204 O.2       4 UNK        -0.5000 
     52 CA          0.7360  -12.3907  -44.7309 C.3       4 UNK         0.1400 
     53 CB          2.1754  -12.9287  -44.7100 C.3       4 UNK        -0.1800 
     54 N           0.6024  -11.3966  -45.7944 N.am      4 UNK        -0.5000 
     55 C          -0.3133  -10.4166  -45.8094 C.2       3 UNK         0.5000 
     56 O          -1.1212  -10.2433  -44.8941 O.2       3 UNK        -0.5000 
     57 CA         -0.3602   -9.4979  -47.0522 C.3       3 UNK         0.1400 
     58 CB         -0.8529   -8.0729  -46.7218 C.3       3 UNK        -0.1800 
     59 N           0.8917   -9.4580  -47.8178 N.am      3 UNK        -0.5000 
     60 C           2.0823   -8.9943  -47.4121 C.2       2 UNK         0.5000 
     61 O           2.2956   -8.4835  -46.3110 O.2       2 UNK        -0.5000 
     62 CA          3.2456   -9.1781  -48.4066 C.3       2 UNK         0.1400 
     63 CB          4.0058   -7.8604  -48.6293 C.3       2 UNK        -0.1800 
     64 N           4.1886  -10.2032  -47.9583 N.am      2 UNK        -0.5000 
     65 C           3.8923  -11.4864  -47.7000 C.2       1 UNK         0.5000 
     66 O           2.7646  -11.9583  -47.8535 O.2       1 UNK        -0.5000 
     67 C          -0.1074  -23.3723  -48.3893 C.2       11 UNK         0.5000 
     68 O           0.0984  -24.4397  -48.9670 O.2       11 UNK        -0.5000 
     69 N          -1.3084  -22.7800  -48.3355 N.am      12 UNK        -0.5000 
     70 CA         -2.5272  -23.3413  -48.9126 C.3       12 UNK         0.1400 
     71 CB         -3.6698  -22.3303  -48.8022 C.3       12 UNK        -0.1800 
     72 C          -2.9292  -24.6779  -48.2710 C.2       12 UNK         0.5000 
     73 O          -3.2519  -25.6149  -48.9973 O.2       12 UNK        -0.5000 
     74 N          -2.8579  -24.7649  -46.9357 N.am      13 UNK        -0.5000 
     75 CA         -3.1196  -25.9845  -46.1704 C.3       13 UNK         0.1400 
     76 CB         -3.0996  -25.6700  -44.6672 C.3       13 UNK        -0.1800 
     77 C          -2.1378  -27.1214  -46.5065 C.2       13 UNK         0.5000 
     78 O          -2.5667  -28.2675  -46.6421 O.2       13 UNK        -0.5000 
     79 N          -0.8527  -26.7804  -46.6807 N.am      14 UNK        -0.5000 
     80 CA          0.1963  -27.7040  -47.1173 C.3       14 UNK         0.1400 
     81 CB          1.5693  -27.0364  -46.9459 C.3       14 UNK        -0.1800 
     82 C          -0.0020  -28.1926  -48.5665 C.2       14 UNK         0.5000 
     83 O           0.2296  -29.3688  -48.8483 O.2       14 UNK        -0.5000 
     84 N          -0.4467  -27.2902  -49.4512 N.am      15 UNK        -0.5000 
     85 CA         -0.7549  -27.5700  -50.8560 C.3       15 UNK         0.1400 
     86 CB         -0.7621  -26.2416  -51.6299 C.3       15 UNK        -0.1800 
     87 C          -2.0912  -28.3122  -51.0682 C.2       15 UNK         0.5000 
     88 O          -2.3135  -28.8359  -52.1607 O.2       15 UNK        -0.5000 
     89 N          -2.9568  -28.3184  -50.0435 N.am      16 UNK        -0.5000 
     90 CA         -4.3530  -28.7706  -50.0491 C.3       16 UNK         0.1400 
     91 CB         -4.4537  -30.2873  -50.3148 C.3       16 UNK        -0.1800 
     92 C          -5.2304  -27.9164  -50.9918 C.2       16 UNK         0.5000 
     93 O          -6.0470  -28.4491  -51.7463 O.2       16 UNK        -0.5000 
     94 N          -5.0223  -26.5977  -50.9301 N.am      17 UNK        -0.5000 
     95 CA         -5.6948  -25.5658  -51.7124 C.3       17 UNK         0.1400 
     96 CB         -4.6173  -24.8050  -52.5040 C.3       17 UNK        -0.1800 
     97 C          -6.4644  -24.6088  -50.7833 C.2       17 UNK         0.5000 
     98 O          -6.3630  -24.7102  -49.5579 O.2       17 UNK        -0.5000 
     99 N          -7.2211  -23.6825  -51.3847 N.am      18 UNK        -0.5000 
    100 CA        -7.9185  -22.6070  -50.6803 C.3       18 UNK         0.1400 
    101 CB        -9.0274  -22.0486  -51.5854 C.3       18 UNK        -0.1800 
    102 C         -6.9415  -21.4859  -50.2873 C.2       18 UNK         0.5000 
    103 O         -6.0708  -21.1290  -51.0867 O.2       18 UNK        -0.5000 
    104 N         -7.1262  -20.9208  -49.0864 N.am      19 UNK        -0.5000 
    105 CA        -6.3170  -19.8213  -48.5481 C.3       19 UNK         0.1400 
    106 CB        -6.6733  -19.5945  -47.0716 C.3       19 UNK        -0.1800 
    107 C         -6.4592  -18.5175  -49.3517 C.2       19 UNK         0.5000 
    108 O         -5.4739  -17.8019  -49.5257 O.2       19 UNK        -0.5000 
    109 N         -7.6670  -18.2656  -49.8762 N.am      20 UNK        -0.5000 
    110 CA        -7.9809  -17.1310  -50.7491 C.3       20 UNK         0.1400 
    111 CB        -9.5047  -17.0417  -50.9226 C.3       20 UNK        -0.1800 
    112 C         -7.2861  -17.2100  -52.1234 C.2       20 UNK         0.5000 
    113 O         -7.0201  -16.1715  -52.7290 O.2       20 UNK        -0.5000 
    114 N         -6.9917  -18.4351  -52.5788 N.am      21 UNK        -0.5000 
    115 CA        -6.2418  -18.7156  -53.8031 C.3       21 UNK         0.1400 
    116 CB        -6.7607  -20.0332  -54.4027 C.3       21 UNK        -0.1800 
    117 C         -4.7222  -18.8005  -53.5553 C.2       21 UNK         0.5000 
    118 O         -3.9646  -18.8795  -54.5232 O.2       21 UNK        -0.5000 
    119 N         -4.3029  -18.8009  -52.2808 N.am      22 UNK        -0.5000 
    120 CA        -2.9261  -19.0482  -51.8247 C.3       22 UNK         0.1400 
    121 C         -2.4454  -20.5110  -52.0862 C.2       22 UNK         0.5000 
    122 N         -3.3442  -21.4889  -52.1179 N.am      22 UNK        -0.7600 
    123 O         -1.2597  -20.7750  -52.2631 O.2       22 UNK        -0.5000 
    124 C124       -1.9400  -17.9496  -52.3186 C.3       23 UNK        -0.0398 
    125 S125       -0.6042  -17.6140  -51.1239 S.3       23 UNK        -0.2404 
    126 C126        0.8681  -17.9613  -52.1294 C.3       23 UNK        -0.0205 
    127 H127        7.3983   -9.1566  -45.1683 H         1 UNK         0.0600 
    128 H128        8.3118  -10.3248  -46.1271 H         1 UNK         0.0600 
    129 H129        8.0707  -10.5983  -44.3995 H         1 UNK         0.0600 
    130 H130        6.9929  -11.6056  -47.3831 H         1 UNK         0.3000 
    131 H131        4.6569  -12.9167  -46.3069 H         1 UNK         0.0600 
    132 H132        5.5091  -13.0314  -49.2301 H         1 UNK         0.0800 
    133 H133        6.4371  -13.8502  -48.0054 H         1 UNK         0.0800 
    134 H134        5.8115  -15.8123  -49.9172 H         1 UNK         0.0800 
    135 H135        4.5440  -14.8539  -50.6448 H         1 UNK         0.0800 
    136 H136        2.4654  -15.8844  -51.3580 H         1 UNK         0.1150 
    137 H137        2.0310  -20.1283  -50.9935 H         1 UNK         0.1150 
    138 H138        5.2764  -18.1301  -49.0244 H         1 UNK         0.1150 
    139 H139        4.0709  -21.3956  -50.1281 H         1 UNK         0.0800 
    140 H140        5.2559  -20.5520  -49.1699 H         1 UNK         0.0800 
    141 H141        1.8298  -21.9381  -49.5200 H         1 UNK         0.0800 
    142 H142        1.0334  -20.7086  -48.5625 H         1 UNK         0.0800 
    143 H143        1.8070  -23.4599  -47.4677 H         1 UNK         0.0600 
    144 H144        0.6603  -21.1967  -46.1773 H         1 UNK         0.3000 
    145 H145       -0.8805  -23.0206  -43.4794 H         1 UNK         0.0600 
    146 H146        0.4677  -21.3540  -42.2521 H         1 UNK         0.0600 
    147 H147        1.5173  -22.5883  -42.9314 H         1 UNK         0.0600 
    148 H148        1.4181  -21.0067  -43.6945 H         1 UNK         0.0600 
    149 H149       -0.9340  -20.2501  -44.1041 H         1 UNK         0.3000 
    150 H150       -3.9452  -20.3331  -46.0852 H         1 UNK         0.0600 
    151 H151       -4.6415  -20.3709  -43.6826 H         1 UNK         0.0600 
    152 H152       -4.6579  -18.7423  -44.3405 H         1 UNK         0.0600 
    153 H153       -3.3415  -19.2522  -43.2850 H         1 UNK         0.0600 
    154 H154       -2.3614  -18.1335  -45.2803 H         1 UNK         0.3000 
    155 H155       -0.1308  -18.1344  -48.1126 H         1 UNK         0.0600 
    156 H156       -2.3122  -16.2681  -47.0313 H         1 UNK         0.0600 
    157 H157       -1.0013  -15.8171  -48.1199 H         1 UNK         0.0600 
    158 H158       -2.2600  -16.9206  -48.6594 H         1 UNK         0.0600 
    159 H159       -0.1038  -16.4714  -45.8434 H         1 UNK         0.3000 
    160 H160        1.9485  -18.4755  -43.6949 H         1 UNK         0.0600 
    161 H161        2.3669  -15.8780  -45.2668 H         1 UNK         0.0600 
    162 H162        3.4689  -17.2405  -45.1914 H         1 UNK         0.0600 
    163 H163        3.1656  -16.2855  -43.7473 H         1 UNK         0.0600 
    164 H164        0.5789  -15.9368  -43.4647 H         1 UNK         0.3000 
    165 H165       -2.3152  -17.2376  -41.8160 H         1 UNK         0.0600 
    166 H166       -1.5624  -15.6550  -40.0652 H         1 UNK         0.0600 
    167 H167       -0.5620  -17.0983  -40.0410 H         1 UNK         0.0600 
    168 H168        0.0610  -15.6151  -40.7538 H         1 UNK         0.0600 
    169 H169       -1.4560  -14.5745  -42.4176 H         1 UNK         0.3000 
    170 H170       -2.8425  -14.3530  -45.6808 H         1 UNK         0.0600 
    171 H171       -4.8278  -14.0748  -44.1855 H         1 UNK         0.0600 
    172 H172       -3.8501  -13.1575  -43.0453 H         1 UNK         0.0600 
    173 H173       -4.1571  -12.5230  -44.6621 H         1 UNK         0.0600 
    174 H174       -1.7357  -12.2989  -44.1715 H         1 UNK         0.3000 
    175 H175        0.5534  -11.9134  -43.7657 H         1 UNK         0.0600 
    176 H176        2.4232  -13.4521  -45.6335 H         1 UNK         0.0600 
    177 H177        2.8945  -12.1208  -44.5760 H         1 UNK         0.0600 
    178 H178        2.3174  -13.6302  -43.8875 H         1 UNK         0.0600 
    179 H179        1.2211  -11.5067  -46.5917 H         1 UNK         0.3000 
    180 H180       -1.0986   -9.9474  -47.7175 H         1 UNK         0.0600 
    181 H181       -0.2112   -7.5804  -45.9909 H         1 UNK         0.0600 
    182 H182       -1.8613   -8.0934  -46.3069 H         1 UNK         0.0600 
    183 H183       -0.8853   -7.4492  -47.6151 H         1 UNK         0.0600 
    184 H184        0.8472   -9.8990  -48.7263 H         1 UNK         0.3000 
    185 H185        2.8408   -9.4976  -49.3691 H         1 UNK         0.0600 
    186 H186        3.3299   -7.0727  -48.9644 H         1 UNK         0.0600 
    187 H187        4.4877   -7.5123  -47.7147 H         1 UNK         0.0600 
    188 H188        4.7762   -7.9730  -49.3923 H         1 UNK         0.0600 
    189 H189        5.1310   -9.8935  -47.7741 H         1 UNK         0.3000 
    190 H190       -1.3977  -21.8701  -47.8904 H         1 UNK         0.3000 
    191 H191       -2.3370  -23.5213  -49.9723 H         1 UNK         0.0600 
    192 H192       -3.9137  -22.1018  -47.7657 H         1 UNK         0.0600 
    193 H193       -4.5697  -22.7221  -49.2714 H         1 UNK         0.0600 
    194 H194       -3.4197  -21.3974  -49.3050 H         1 UNK         0.0600 
    195 H195       -2.6380  -23.9295  -46.3986 H         1 UNK         0.3000 
    196 H196       -4.1231  -26.3272  -46.4314 H         1 UNK         0.0600 
    197 H197       -3.3013  -26.5649  -44.0773 H         1 UNK         0.0600 
    198 H198       -3.8601  -24.9327  -44.4098 H         1 UNK         0.0600 
    199 H199       -2.1333  -25.2772  -44.3501 H         1 UNK         0.0600 
    200 H200       -0.5756  -25.8195  -46.5086 H         1 UNK         0.3000 
    201 H201        0.1635  -28.5796  -46.4656 H         1 UNK         0.0600 
    202 H202        1.7392  -26.7460  -45.9089 H         1 UNK         0.0600 
    203 H203        1.6639  -26.1420  -47.5618 H         1 UNK         0.0600 
    204 H204        2.3725  -27.7173  -47.2300 H         1 UNK         0.0600 
    205 H205       -0.5466  -26.3248  -49.1519 H         1 UNK         0.3000 
    206 H206        0.0380  -28.1987  -51.2659 H         1 UNK         0.0600 
    207 H207        0.1966  -25.7296  -51.5449 H         1 UNK         0.0600 
    208 H208       -0.9502  -26.4053  -52.6917 H         1 UNK         0.0600 
    209 H209       -1.5353  -25.5673  -51.2604 H         1 UNK         0.0600 
    210 H210       -2.6799  -27.8015  -49.2186 H         1 UNK         0.3000 
    211 H211       -4.7290  -28.5906  -49.0409 H         1 UNK         0.0600 
    212 H212       -4.1593  -30.5452  -51.3322 H         1 UNK         0.0600 
    213 H213       -5.4763  -30.6386  -50.1738 H         1 UNK         0.0600 
    214 H214       -3.8201  -30.8494  -49.6287 H         1 UNK         0.0600 
    215 H215       -4.3791  -26.2470  -50.2204 H         1 UNK         0.3000 
    216 H216       -6.4081  -26.0106  -52.4089 H         1 UNK         0.0600 
    217 H217       -5.0517  -24.0209  -53.1251 H         1 UNK         0.0600 
    218 H218       -4.0712  -25.4769  -53.1666 H         1 UNK         0.0600 
    219 H219       -3.8930  -24.3380  -51.8363 H         1 UNK         0.0600 
    220 H220       -7.2308  -23.6350  -52.3928 H         1 UNK         0.3000 
    221 H221       -8.3802  -23.0139  -49.7780 H         1 UNK         0.0600 
    222 H222       -8.6261  -21.6371  -52.5121 H         1 UNK         0.0600 
    223 H223       -9.7473  -22.8237  -51.8485 H         1 UNK         0.0600 
    224 H224       -9.5788  -21.2518  -51.0845 H         1 UNK         0.0600 
    225 H225       -7.8624  -21.2692  -48.4893 H         1 UNK         0.3000 
    226 H226       -5.2678  -20.1121  -48.5983 H         1 UNK         0.0600 
    227 H227       -6.4905  -20.4915  -46.4795 H         1 UNK         0.0600 
    228 H228       -6.0678  -18.7945  -46.6429 H         1 UNK         0.0600 
    229 H229       -7.7206  -19.3167  -46.9468 H         1 UNK         0.0600 
    230 H230       -8.4198  -18.9086  -49.6795 H         1 UNK         0.3000 
    231 H231       -7.6366  -16.2188  -50.2572 H         1 UNK         0.0600 
    232 H232       -9.7775  -16.1907  -51.5481 H         1 UNK         0.0600 
    233 H233      -10.0044  -16.9105  -49.9626 H         1 UNK         0.0600 
    234 H234       -9.9098  -17.9384  -51.3935 H         1 UNK         0.0600 
    235 H235       -7.2155  -19.2341  -52.0029 H         1 UNK         0.3000 
    236 H236       -6.4145  -17.9201  -54.5310 H         1 UNK         0.0600 
    237 H237       -7.8348  -19.9902  -54.5833 H         1 UNK         0.0600 
    238 H238       -6.2797  -20.2425  -55.3590 H         1 UNK         0.0600 
    239 H239       -6.5624  -20.8813  -53.7468 H         1 UNK         0.0600 
    240 H240       -4.9933  -18.7177  -51.5477 H         1 UNK         0.3000 
    241 H241       -2.9877  -18.9713  -50.7382 H         1 UNK         0.0600 
    242 H242       -4.3218  -21.3038  -51.9122 H         1 UNK         0.3800 
    243 H243       -3.0349  -22.4237  -52.3178 H         1 UNK         0.3800 
    244 H244       -1.5333  -18.1988  -53.3000 H         1 UNK         0.0800 
    245 H245       -2.4700  -17.0057  -52.4524 H         1 UNK         0.0800 
    246 H246        0.7431  -18.9138  -52.6469 H         1 UNK         0.0800 
    247 H247        0.9704  -17.1981  -52.9023 H         1 UNK         0.0800 
@<TRIPOS>BOND
     1    1    2 1    
     2    1  127 1    
     3    1  128 1    
     4    1  129 1    
     5    2    3 2    
     6    2    4 am   BACKBONE|DICT|INTERRES
     7    4    5 1    
     8    4  130 1    
     9    5    6 1    
    10    5   65 1    
    11    5  131 1    
    12    6    7 1    
    13    6  132 1    
    14    6  133 1    
    15    7    8 1    
    16    8    9 1    
    17    8  134 1    
    18    8  135 1    
    19    9   10 ar   
    20    9   14 ar   
    21   10   11 ar   
    22   10  136 1    
    23   11   12 ar   
    24   11  126 1    
    25   12   13 ar   
    26   12  137 1    
    27   13   14 ar   
    28   13   15 1    
    29   14  138 1    
    30   15   16 1    
    31   15  139 1    
    32   15  140 1    
    33   16   17 1    
    34   17   18 1    
    35   17  141 1    
    36   17  142 1    
    37   18   19 1    
    38   18   67 1    
    39   18  143 1    
    40   19   20 am   BACKBONE|DICT|INTERRES
    41   19  144 1    
    42   20   21 2    
    43   20   22 1    
    44   22   23 1    
    45   22   24 1    
    46   22  145 1    
    47   23  146 1    
    48   23  147 1    
    49   23  148 1    
    50   24   25 am   BACKBONE|DICT|INTERRES
    51   24  149 1    
    52   25   26 2    
    53   25   27 1    
    54   27   28 1    
    55   27   29 1    
    56   27  150 1    
    57   28  151 1    
    58   28  152 1    
    59   28  153 1    
    60   29   30 am   BACKBONE|DICT|INTERRES
    61   29  154 1    
    62   30   31 2    
    63   30   32 1    
    64   32   33 1    
    65   32   34 1    
    66   32  155 1    
    67   33  156 1    
    68   33  157 1    
    69   33  158 1    
    70   34   35 am   BACKBONE|DICT|INTERRES
    71   34  159 1    
    72   35   36 2    
    73   35   37 1    
    74   37   38 1    
    75   37   39 1    
    76   37  160 1    
    77   38  161 1    
    78   38  162 1    
    79   38  163 1    
    80   39   40 am   BACKBONE|DICT|INTERRES
    81   39  164 1    
    82   40   41 2    
    83   40   42 1    
    84   42   43 1    
    85   42   44 1    
    86   42  165 1    
    87   43  166 1    
    88   43  167 1    
    89   43  168 1    
    90   44   45 am   BACKBONE|DICT|INTERRES
    91   44  169 1    
    92   45   46 2    
    93   45   47 1    
    94   47   48 1    
    95   47   49 1    
    96   47  170 1    
    97   48  171 1    
    98   48  172 1    
    99   48  173 1    
   100   49   50 am   BACKBONE|DICT|INTERRES
   101   49  174 1    
   102   50   51 2    
   103   50   52 1    
   104   52   53 1    
   105   52   54 1    
   106   52  175 1    
   107   53  176 1    
   108   53  177 1    
   109   53  178 1    
   110   54   55 am   BACKBONE|DICT|INTERRES
   111   54  179 1    
   112   55   56 2    
   113   55   57 1    
   114   57   58 1    
   115   57   59 1    
   116   57  180 1    
   117   58  181 1    
   118   58  182 1    
   119   58  183 1    
   120   59   60 am   BACKBONE|DICT|INTERRES
   121   59  184 1    
   122   60   61 2    
   123   60   62 1    
   124   62   63 1    
   125   62   64 1    
   126   62  185 1    
   127   63  186 1    
   128   63  187 1    
   129   63  188 1    
   130   64   65 am   BACKBONE|DICT|INTERRES
   131   64  189 1    
   132   65   66 2    
   133   67   68 2    
   134   67   69 am   BACKBONE|DICT|INTERRES
   135   69   70 1    
   136   69  190 1    
   137   70   71 1    
   138   70   72 1    
   139   70  191 1    
   140   71  192 1    
   141   71  193 1    
   142   71  194 1    
   143   72   73 2    
   144   72   74 am   BACKBONE|DICT|INTERRES
   145   74   75 1    
   146   74  195 1    
   147   75   76 1    
   148   75   77 1    
   149   75  196 1    
   150   76  197 1    
   151   76  198 1    
   152   76  199 1    
   153   77   78 2    
   154   77   79 am   BACKBONE|DICT|INTERRES
   155   79   80 1    
   156   79  200 1    
   157   80   81 1    
   158   80   82 1    
   159   80  201 1    
   160   81  202 1    
   161   81  203 1    
   162   81  204 1    
   163   82   83 2    
   164   82   84 am   BACKBONE|DICT|INTERRES
   165   84   85 1    
   166   84  205 1    
   167   85   86 1    
   168   85   87 1    
   169   85  206 1    
   170   86  207 1    
   171   86  208 1    
   172   86  209 1    
   173   87   88 2    
   174   87   89 am   BACKBONE|DICT|INTERRES
   175   89   90 1    
   176   89  210 1    
   177   90   91 1    
   178   90   92 1    
   179   90  211 1    
   180   91  212 1    
   181   91  213 1    
   182   91  214 1    
   183   92   93 2    
   184   92   94 am   BACKBONE|DICT|INTERRES
   185   94   95 1    
   186   94  215 1    
   187   95   96 1    
   188   95   97 1    
   189   95  216 1    
   190   96  217 1    
   191   96  218 1    
   192   96  219 1    
   193   97   98 2    
   194   97   99 am   BACKBONE|DICT|INTERRES
   195   99  100 1    
   196   99  220 1    
   197  100  101 1    
   198  100  102 1    
   199  100  221 1    
   200  101  222 1    
   201  101  223 1    
   202  101  224 1    
   203  102  103 2    
   204  102  104 am   BACKBONE|DICT|INTERRES
   205  104  105 1    
   206  104  225 1    
   207  105  106 1    
   208  105  107 1    
   209  105  226 1    
   210  106  227 1    
   211  106  228 1    
   212  106  229 1    
   213  107  108 2    
   214  107  109 am   BACKBONE|DICT|INTERRES
   215  109  110 1    
   216  109  230 1    
   217  110  111 1    
   218  110  112 1    
   219  110  231 1    
   220  111  232 1    
   221  111  233 1    
   222  111  234 1    
   223  112  113 2    
   224  112  114 am   BACKBONE|DICT|INTERRES
   225  114  115 1    
   226  114  235 1    
   227  115  116 1    
   228  115  117 1    
   229  115  236 1    
   230  116  237 1    
   231  116  238 1    
   232  116  239 1    
   233  117  118 2    
   234  117  119 am   BACKBONE|DICT|INTERRES
   235  119  120 1    
   236  119  240 1    
   237  120  121 1    
   238  120  124 1    
   239  120  241 1    
   240  121  122 am   BACKBONE|DICT|INTERRES
   241  121  123 2    
   242  122  242 1    
   243  122  243 1    
   244  124  125 1    
   245  124  244 1    
   246  124  245 1    
   247  125  126 1    
   248  126  246 1    
   249  126  247 1    
@<TRIPOS>SUBSTRUCTURE
     1 UNK         1 GROUP             0       ****    0 ROOT    
