@<TRIPOS>MOLECULE
3R540
247   249    1
SMALL
USER_CHARGES


@<TRIPOS>ATOM
      1 CA         -1.7896  -13.4658  -49.4471 C.3       0 UNK        -0.1800 
      2 C          -0.5889  -13.7944  -48.5731 C.2       0 UNK         0.5000 
      3 O           0.1166  -12.8870  -48.1346 O.2       0 UNK        -0.5000 
      4 N          -0.3693  -15.0866  -48.2919 N.am      1 UNK        -0.5000 
      5 CA          0.7301  -15.6071  -47.4642 C.3       1 UNK         0.1400 
      6 C6          0.7826  -17.1570  -47.4604 C.3       23 UNK        -0.0398 
      7 S7          1.5339  -17.9564  -48.9289 S.3       23 UNK        -0.2404 
      8 C8          0.7612  -17.1854  -50.3987 C.3       23 UNK        -0.0205 
      9 C9         -0.7621  -17.2808  -50.4923 C.ar      23 UNK        -0.0193 
     10 C10        -1.4379  -16.3827  -51.3240 C.ar      23 UNK        -0.1150 
     11 C11        -2.8330  -16.3916  -51.4027 C.ar      23 UNK        -0.0193 
     12 C12        -3.5596  -17.3070  -50.6379 C.ar      23 UNK        -0.1150 
     13 C13        -2.9002  -18.2303  -49.8250 C.ar      23 UNK        -0.0193 
     14 C14        -1.5042  -18.2222  -49.7706 C.ar      23 UNK        -0.1150 
     15 C15        -3.6897  -19.2530  -49.0249 C.3       23 UNK        -0.0205 
     16 S16        -3.2686  -19.2068  -47.2556 S.3       23 UNK        -0.2404 
     17 C17        -3.8374  -20.8628  -46.7521 C.3       23 UNK        -0.0398 
     18 CA         -2.7336  -21.9359  -46.9148 C.3       11 UNK         0.1400 
     19 N          -1.5154  -21.6124  -46.1669 N.am      11 UNK        -0.5000 
     20 C          -0.3430  -22.2477  -46.3116 C.2       10 UNK         0.5000 
     21 O          -0.1635  -23.1720  -47.1017 O.2       10 UNK        -0.5000 
     22 CA          0.8096  -21.8185  -45.3847 C.3       10 UNK         0.1400 
     23 CB          1.6104  -20.6806  -46.0304 C.3       10 UNK        -0.1800 
     24 N           0.3497  -21.3995  -44.0605 N.am      10 UNK        -0.5000 
     25 C          -0.3266  -22.1814  -43.2042 C.2       9 UNK         0.5000 
     26 O          -0.5590  -23.3722  -43.4137 O.2       9 UNK        -0.5000 
     27 CA         -0.8861  -21.5228  -41.9274 C.3       9 UNK         0.1400 
     28 CB         -0.0021  -21.8633  -40.7190 C.3       9 UNK        -0.1800 
     29 N          -1.0269  -20.0675  -42.0184 N.am      9 UNK        -0.5000 
     30 C          -1.7930  -19.4024  -42.8968 C.2       8 UNK         0.5000 
     31 O          -2.5162  -19.9560  -43.7248 O.2       8 UNK        -0.5000 
     32 CA         -1.6891  -17.8641  -42.8762 C.3       8 UNK         0.1400 
     33 CB         -2.8277  -17.2632  -42.0393 C.3       8 UNK        -0.1800 
     34 N          -0.4085  -17.3857  -42.3469 N.am      8 UNK        -0.5000 
     35 C           0.7887  -17.5676  -42.9180 C.2       7 UNK         0.5000 
     36 O           0.9275  -18.1388  -44.0000 O.2       7 UNK        -0.5000 
     37 CA          2.0260  -17.0762  -42.1284 C.3       7 UNK         0.1400 
     38 CB          3.3104  -17.1031  -42.9748 C.3       7 UNK        -0.1800 
     39 N           1.8821  -15.7473  -41.5158 N.am      7 UNK        -0.5000 
     40 C           1.1377  -15.4603  -40.4348 C.2       6 UNK         0.5000 
     41 O           0.4061  -16.2913  -39.8937 O.2       6 UNK        -0.5000 
     42 CA          1.2229  -14.0373  -39.8481 C.3       6 UNK         0.1400 
     43 CB          0.9985  -14.0211  -38.3210 C.3       6 UNK        -0.1800 
     44 N           2.4988  -13.4066  -40.1757 N.am      6 UNK        -0.5000 
     45 C           2.7465  -12.0932  -40.1696 C.2       5 UNK         0.5000 
     46 O           1.9213  -11.2364  -39.8501 O.2       5 UNK        -0.5000 
     47 CA          4.1565  -11.6576  -40.6106 C.3       5 UNK         0.1400 
     48 CB          5.2773  -12.4079  -39.8602 C.3       5 UNK        -0.1800 
     49 N           4.3272  -11.7351  -42.0639 N.am      5 UNK        -0.5000 
     50 C           4.3005  -12.8208  -42.8484 C.2       4 UNK         0.5000 
     51 O           4.1745  -13.9745  -42.4327 O.2       4 UNK        -0.5000 
     52 CA          4.3495  -12.5433  -44.3607 C.3       4 UNK         0.1400 
     53 CB          4.8769  -13.7413  -45.1689 C.3       4 UNK        -0.1800 
     54 N           3.0083  -12.1912  -44.8228 N.am      4 UNK        -0.5000 
     55 C           2.4511  -10.9786  -44.6792 C.2       3 UNK         0.5000 
     56 O           3.0626  -10.0048  -44.2359 O.2       3 UNK        -0.5000 
     57 CA          0.9699  -10.8125  -45.0737 C.3       3 UNK         0.1400 
     58 CB          0.8531  -10.1221  -46.4408 C.3       3 UNK        -0.1800 
     59 N           0.2317  -12.0761  -45.1039 N.am      3 UNK        -0.5000 
     60 C          -0.1205  -12.7751  -44.0132 C.2       2 UNK         0.5000 
     61 O           0.0912  -12.3918  -42.8633 O.2       2 UNK        -0.5000 
     62 CA         -0.8060  -14.1408  -44.2287 C.3       2 UNK         0.1400 
     63 CB         -2.3251  -14.0122  -44.0446 C.3       2 UNK        -0.1800 
     64 N          -0.5432  -14.7513  -45.5331 N.am      2 UNK        -0.5000 
     65 C           0.6661  -15.0764  -46.0136 C.2       1 UNK         0.5000 
     66 O           1.7079  -14.9174  -45.3804 O.2       1 UNK        -0.5000 
     67 C          -3.2768  -23.3251  -46.5324 C.2       11 UNK         0.5000 
     68 O          -3.6961  -24.0781  -47.4129 O.2       11 UNK        -0.5000 
     69 N          -3.2275  -23.6459  -45.2316 N.am      12 UNK        -0.5000 
     70 CA         -3.6147  -24.9439  -44.6839 C.3       12 UNK         0.1400 
     71 CB         -3.7800  -24.8354  -43.1603 C.3       12 UNK        -0.1800 
     72 C          -2.6057  -26.0421  -45.0567 C.2       12 UNK         0.5000 
     73 O          -3.0198  -27.1264  -45.4656 O.2       12 UNK        -0.5000 
     74 N          -1.3054  -25.7276  -44.9583 N.am      13 UNK        -0.5000 
     75 CA         -0.1987  -26.6136  -45.3298 C.3       13 UNK         0.1400 
     76 CB          1.1331  -25.9664  -44.9230 C.3       13 UNK        -0.1800 
     77 C          -0.1927  -26.9759  -46.8274 C.2       13 UNK         0.5000 
     78 O           0.0678  -28.1284  -47.1739 O.2       13 UNK        -0.5000 
     79 N          -0.5191  -25.9970  -47.6820 N.am      14 UNK        -0.5000 
     80 CA         -0.6856  -26.1671  -49.1258 C.3       14 UNK         0.1400 
     81 CB         -0.5508  -24.7943  -49.8060 C.3       14 UNK        -0.1800 
     82 C          -2.0262  -26.8192  -49.5182 C.2       14 UNK         0.5000 
     83 O          -2.2115  -27.1220  -50.6955 O.2       14 UNK        -0.5000 
     84 N          -2.9528  -26.9836  -48.5611 N.am      15 UNK        -0.5000 
     85 CA         -4.3214  -27.4858  -48.7351 C.3       15 UNK         0.1400 
     86 CB         -4.3080  -28.9931  -49.0625 C.3       15 UNK        -0.1800 
     87 C          -5.1267  -26.6481  -49.7529 C.2       15 UNK         0.5000 
     88 O          -5.8015  -27.1997  -50.6235 O.2       15 UNK        -0.5000 
     89 N          -4.9935  -25.3191  -49.6341 N.am      16 UNK        -0.5000 
     90 CA         -5.5679  -24.2685  -50.4801 C.3       16 UNK         0.1400 
     91 CB         -7.1089  -24.3231  -50.4843 C.3       16 UNK        -0.1800 
     92 C          -4.9843  -24.1832  -51.9074 C.2       16 UNK         0.5000 
     93 O          -5.4593  -23.3606  -52.6921 O.2       16 UNK        -0.5000 
     94 N          -3.9318  -24.9540  -52.2281 N.am      17 UNK        -0.5000 
     95 CA         -3.2445  -24.8823  -53.5244 C.3       17 UNK         0.1400 
     96 CB         -2.2462  -26.0392  -53.6647 C.3       17 UNK        -0.1800 
     97 C          -2.5397  -23.5318  -53.7545 C.2       17 UNK         0.5000 
     98 O          -2.4504  -23.0807  -54.8947 O.2       17 UNK        -0.5000 
     99 N          -2.1003  -22.8841  -52.6662 N.am      18 UNK        -0.5000 
    100 CA        -1.5335  -21.5355  -52.6816 C.3       18 UNK         0.1400 
    101 CB        -0.8649  -21.2533  -51.3287 C.3       18 UNK        -0.1800 
    102 C         -2.5811  -20.4573  -53.0279 C.2       18 UNK         0.5000 
    103 O         -2.2482  -19.4927  -53.7154 O.2       18 UNK        -0.5000 
    104 N         -3.8365  -20.6668  -52.6005 N.am      19 UNK        -0.5000 
    105 CA        -4.9728  -19.8115  -52.9497 C.3       19 UNK         0.1400 
    106 CB        -6.1552  -20.0881  -52.0081 C.3       19 UNK        -0.1800 
    107 C         -5.3867  -19.9902  -54.4201 C.2       19 UNK         0.5000 
    108 O         -5.6773  -19.0058  -55.1008 O.2       19 UNK        -0.5000 
    109 N         -5.3620  -21.2423  -54.8992 N.am      20 UNK        -0.5000 
    110 CA        -5.5821  -21.5878  -56.3045 C.3       20 UNK         0.1400 
    111 CB        -5.6736  -23.1140  -56.4520 C.3       20 UNK        -0.1800 
    112 C         -4.4975  -21.0041  -57.2324 C.2       20 UNK         0.5000 
    113 O         -4.8171  -20.5757  -58.3417 O.2       20 UNK        -0.5000 
    114 N         -3.2466  -20.9726  -56.7512 N.am      21 UNK        -0.5000 
    115 CA        -2.1074  -20.3612  -57.4305 C.3       21 UNK         0.1400 
    116 CB        -0.7988  -20.8148  -56.7655 C.3       21 UNK        -0.1800 
    117 C         -2.1943  -18.8247  -57.4826 C.2       21 UNK         0.5000 
    118 O         -1.9247  -18.2531  -58.5405 O.2       21 UNK        -0.5000 
    119 N         -2.5565  -18.1801  -56.3614 N.am      22 UNK        -0.5000 
    120 CA        -2.7087  -16.7157  -56.2869 C.3       22 UNK         0.1400 
    121 C         -3.9396  -16.1592  -57.0637 C.2       22 UNK         0.5000 
    122 N         -5.0339  -16.9035  -57.1750 N.am      22 UNK        -0.7600 
    123 O         -3.8918  -15.0476  -57.5842 O.2       22 UNK        -0.5000 
    124 C124       -2.5883  -16.1685  -54.8346 C.3       23 UNK        -0.0398 
    125 S125       -4.1220  -16.1779  -53.8392 S.3       23 UNK        -0.2404 
    126 C126       -3.5633  -15.4008  -52.2938 C.3       23 UNK        -0.0205 
    127 H127       -2.2799  -12.5599  -49.0909 H         1 UNK         0.0600 
    128 H128       -2.5244  -14.2706  -49.4343 H         1 UNK         0.0600 
    129 H129       -1.4719  -13.3014  -50.4765 H         1 UNK         0.0600 
    130 H130       -0.9751  -15.7862  -48.6992 H         1 UNK         0.3000 
    131 H131        1.6648  -15.2345  -47.8884 H         1 UNK         0.0600 
    132 H132       -0.2097  -17.5759  -47.2864 H         1 UNK         0.0800 
    133 H133        1.3890  -17.5043  -46.6214 H         1 UNK         0.0800 
    134 H134        1.1812  -17.6598  -51.2864 H         1 UNK         0.0800 
    135 H135        1.0710  -16.1402  -50.4406 H         1 UNK         0.0800 
    136 H136       -0.8762  -15.6623  -51.9021 H         1 UNK         0.1150 
    137 H137       -4.6390  -17.3101  -50.6935 H         1 UNK         0.1150 
    138 H138       -1.0054  -18.9504  -49.1480 H         1 UNK         0.1150 
    139 H139       -4.7619  -19.0819  -49.1243 H         1 UNK         0.0800 
    140 H140       -3.4887  -20.2425  -49.4352 H         1 UNK         0.0800 
    141 H141       -4.7242  -21.1252  -47.3324 H         1 UNK         0.0800 
    142 H142       -4.1644  -20.8019  -45.7126 H         1 UNK         0.0800 
    143 H143       -2.4625  -21.9818  -47.9717 H         1 UNK         0.0600 
    144 H144       -1.6018  -20.8797  -45.4725 H         1 UNK         0.3000 
    145 H145        1.4740  -22.6738  -45.2521 H         1 UNK         0.0600 
    146 H146        2.4479  -20.3754  -45.4029 H         1 UNK         0.0600 
    147 H147        2.0174  -20.9853  -46.9955 H         1 UNK         0.0600 
    148 H148        0.9831  -19.8064  -46.2019 H         1 UNK         0.0600 
    149 H149        0.4864  -20.4245  -43.8272 H         1 UNK         0.3000 
    150 H150       -1.8798  -21.9419  -41.7568 H         1 UNK         0.0600 
    151 H151        0.1024  -22.9431  -40.6029 H         1 UNK         0.0600 
    152 H152       -0.4322  -21.4794  -39.7938 H         1 UNK         0.0600 
    153 H153        1.0002  -21.4458  -40.8236 H         1 UNK         0.0600 
    154 H154       -0.4715  -19.5229  -41.3755 H         1 UNK         0.3000 
    155 H155       -1.7852  -17.5089  -43.9045 H         1 UNK         0.0600 
    156 H156       -2.7941  -17.6128  -41.0066 H         1 UNK         0.0600 
    157 H157       -3.8001  -17.5391  -42.4492 H         1 UNK         0.0600 
    158 H158       -2.7780  -16.1749  -42.0219 H         1 UNK         0.0600 
    159 H159       -0.4194  -16.9519  -41.4273 H         1 UNK         0.3000 
    160 H160        2.1670  -17.7955  -41.3192 H         1 UNK         0.0600 
    161 H161        3.2453  -16.4182  -43.8192 H         1 UNK         0.0600 
    162 H162        3.5018  -18.0999  -43.3741 H         1 UNK         0.0600 
    163 H163        4.1808  -16.8213  -42.3822 H         1 UNK         0.0600 
    164 H164        2.4438  -15.0158  -41.9381 H         1 UNK         0.3000 
    165 H165        0.4229  -13.4645  -40.3209 H         1 UNK         0.0600 
    166 H166        1.0108  -13.0064  -37.9236 H         1 UNK         0.0600 
    167 H167        0.0311  -14.4510  -38.0582 H         1 UNK         0.0600 
    168 H168        1.7668  -14.5935  -37.8001 H         1 UNK         0.0600 
    169 H169        3.2307  -14.0200  -40.5148 H         1 UNK         0.3000 
    170 H170        4.2509  -10.6013  -40.3538 H         1 UNK         0.0600 
    171 H171        5.1542  -12.3077  -38.7811 H         1 UNK         0.0600 
    172 H172        5.2964  -13.4737  -40.0871 H         1 UNK         0.0600 
    173 H173        6.2557  -11.9995  -40.1132 H         1 UNK         0.0600 
    174 H174        4.3348  -10.8391  -42.5362 H         1 UNK         0.3000 
    175 H175        5.0284  -11.7062  -44.5372 H         1 UNK         0.0600 
    176 H176        4.2639  -14.6311  -45.0330 H         1 UNK         0.0600 
    177 H177        4.9048  -13.5156  -46.2349 H         1 UNK         0.0600 
    178 H178        5.8917  -13.9971  -44.8624 H         1 UNK         0.0600 
    179 H179        2.4320  -12.9643  -45.1370 H         1 UNK         0.3000 
    180 H180        0.5033  -10.1652  -44.3281 H         1 UNK         0.0600 
    181 H181       -0.1893   -9.9922  -46.7325 H         1 UNK         0.0600 
    182 H182        1.3533  -10.6932  -47.2235 H         1 UNK         0.0600 
    183 H183        1.3103   -9.1321  -46.4171 H         1 UNK         0.0600 
    184 H184        0.0461  -12.4644  -46.0218 H         1 UNK         0.3000 
    185 H185       -0.4216  -14.8166  -43.4640 H         1 UNK         0.0600 
    186 H186       -2.8219  -14.9759  -44.1561 H         1 UNK         0.0600 
    187 H187       -2.5674  -13.6339  -43.0506 H         1 UNK         0.0600 
    188 H188       -2.7602  -13.3262  -44.7726 H         1 UNK         0.0600 
    189 H189       -1.3422  -14.8904  -46.1338 H         1 UNK         0.3000 
    190 H190       -2.8264  -22.9822  -44.5851 H         1 UNK         0.3000 
    191 H191       -4.5821  -25.2194  -45.1098 H         1 UNK         0.0600 
    192 H192       -4.1051  -25.7864  -42.7366 H         1 UNK         0.0600 
    193 H193       -4.5306  -24.0898  -42.8977 H         1 UNK         0.0600 
    194 H194       -2.8477  -24.5601  -42.6669 H         1 UNK         0.0600 
    195 H195       -1.0520  -24.8246  -44.5662 H         1 UNK         0.3000 
    196 H196       -0.3137  -27.5403  -44.7639 H         1 UNK         0.0600 
    197 H197        1.3112  -25.0401  -45.4688 H         1 UNK         0.0600 
    198 H198        1.1531  -25.7374  -43.8573 H         1 UNK         0.0600 
    199 H199        1.9703  -26.6344  -45.1293 H         1 UNK         0.0600 
    200 H200       -0.6415  -25.0534  -47.3253 H         1 UNK         0.3000 
    201 H201        0.1133  -26.8117  -49.4977 H         1 UNK         0.0600 
    202 H202       -1.3396  -24.1105  -49.4894 H         1 UNK         0.0600 
    203 H203       -0.6046  -24.8842  -50.8910 H         1 UNK         0.0600 
    204 H204        0.4075  -24.3307  -49.5710 H         1 UNK         0.0600 
    205 H205       -2.7131  -26.7063  -47.6179 H         1 UNK         0.3000 
    206 H206       -4.8196  -27.3603  -47.7727 H         1 UNK         0.0600 
    207 H207       -3.7485  -29.5523  -48.3125 H         1 UNK         0.0600 
    208 H208       -5.3205  -29.3979  -49.0803 H         1 UNK         0.0600 
    209 H209       -3.8580  -29.1937  -50.0352 H         1 UNK         0.0600 
    210 H210       -4.4221  -24.9754  -48.8634 H         1 UNK         0.3000 
    211 H211       -5.2849  -23.3316  -49.9983 H         1 UNK         0.0600 
    212 H212       -7.5299  -23.4399  -50.9663 H         1 UNK         0.0600 
    213 H213       -7.5055  -24.3562  -49.4696 H         1 UNK         0.0600 
    214 H214       -7.4846  -25.1938  -51.0219 H         1 UNK         0.0600 
    215 H215       -3.5867  -25.6363  -51.5634 H         1 UNK         0.3000 
    216 H216       -3.9994  -24.9975  -54.3046 H         1 UNK         0.0600 
    217 H217       -1.4249  -25.9538  -52.9532 H         1 UNK         0.0600 
    218 H218       -1.8094  -26.0549  -54.6640 H         1 UNK         0.0600 
    219 H219       -2.7313  -27.0026  -53.5069 H         1 UNK         0.0600 
    220 H220       -2.2068  -23.3288  -51.7678 H         1 UNK         0.3000 
    221 H221       -0.7595  -21.5036  -53.4511 H         1 UNK         0.0600 
    222 H222       -0.0924  -21.9901  -51.1083 H         1 UNK         0.0600 
    223 H223       -1.5822  -21.2656  -50.5083 H         1 UNK         0.0600 
    224 H224       -0.3813  -20.2761  -51.3353 H         1 UNK         0.0600 
    225 H225       -4.0493  -21.5214  -52.1094 H         1 UNK         0.3000 
    226 H226       -4.6696  -18.7749  -52.8085 H         1 UNK         0.0600 
    227 H227       -6.5703  -21.0852  -52.1513 H         1 UNK         0.0600 
    228 H228       -5.8643  -19.9952  -50.9636 H         1 UNK         0.0600 
    229 H229       -6.9607  -19.3746  -52.1851 H         1 UNK         0.0600 
    230 H230       -5.1666  -22.0041  -54.2595 H         1 UNK         0.3000 
    231 H231       -6.5413  -21.1607  -56.6044 H         1 UNK         0.0600 
    232 H232       -4.7310  -23.6015  -56.2057 H         1 UNK         0.0600 
    233 H233       -5.9246  -23.3897  -57.4769 H         1 UNK         0.0600 
    234 H234       -6.4458  -23.5290  -55.8038 H         1 UNK         0.0600 
    235 H235       -3.0562  -21.4304  -55.8665 H         1 UNK         0.3000 
    236 H236       -2.0993  -20.7269  -58.4596 H         1 UNK         0.0600 
    237 H237       -0.7019  -21.9004  -56.7848 H         1 UNK         0.0600 
    238 H238        0.0659  -20.4018  -57.2862 H         1 UNK         0.0600 
    239 H239       -0.7395  -20.4917  -55.7267 H         1 UNK         0.0600 
    240 H240       -2.7189  -18.7013  -55.5057 H         1 UNK         0.3000 
    241 H241       -1.8405  -16.3095  -56.8105 H         1 UNK         0.0600 
    242 H242       -5.8282  -16.5492  -57.6825 H         1 UNK         0.3800 
    243 H243       -5.1153  -17.7680  -56.6508 H         1 UNK         0.3800 
    244 H244       -2.2407  -15.1353  -54.8769 H         1 UNK         0.0800 
    245 H245       -1.8157  -16.7158  -54.2926 H         1 UNK         0.0800 
    246 H246       -4.4333  -15.0135  -51.7618 H         1 UNK         0.0800 
    247 H247       -2.9352  -14.5370  -52.5166 H         1 UNK         0.0800 
@<TRIPOS>BOND
     1    1    2 1    
     2    1  127 1    
     3    1  128 1    
     4    1  129 1    
     5    2    3 2    
     6    2    4 am   BACKBONE|DICT|INTERRES
     7    4    5 1    
     8    4  130 1    
     9    5    6 1    
    10    5   65 1    
    11    5  131 1    
    12    6    7 1    
    13    6  132 1    
    14    6  133 1    
    15    7    8 1    
    16    8    9 1    
    17    8  134 1    
    18    8  135 1    
    19    9   10 ar   
    20    9   14 ar   
    21   10   11 ar   
    22   10  136 1    
    23   11   12 ar   
    24   11  126 1    
    25   12   13 ar   
    26   12  137 1    
    27   13   14 ar   
    28   13   15 1    
    29   14  138 1    
    30   15   16 1    
    31   15  139 1    
    32   15  140 1    
    33   16   17 1    
    34   17   18 1    
    35   17  141 1    
    36   17  142 1    
    37   18   19 1    
    38   18   67 1    
    39   18  143 1    
    40   19   20 am   BACKBONE|DICT|INTERRES
    41   19  144 1    
    42   20   21 2    
    43   20   22 1    
    44   22   23 1    
    45   22   24 1    
    46   22  145 1    
    47   23  146 1    
    48   23  147 1    
    49   23  148 1    
    50   24   25 am   BACKBONE|DICT|INTERRES
    51   24  149 1    
    52   25   26 2    
    53   25   27 1    
    54   27   28 1    
    55   27   29 1    
    56   27  150 1    
    57   28  151 1    
    58   28  152 1    
    59   28  153 1    
    60   29   30 am   BACKBONE|DICT|INTERRES
    61   29  154 1    
    62   30   31 2    
    63   30   32 1    
    64   32   33 1    
    65   32   34 1    
    66   32  155 1    
    67   33  156 1    
    68   33  157 1    
    69   33  158 1    
    70   34   35 am   BACKBONE|DICT|INTERRES
    71   34  159 1    
    72   35   36 2    
    73   35   37 1    
    74   37   38 1    
    75   37   39 1    
    76   37  160 1    
    77   38  161 1    
    78   38  162 1    
    79   38  163 1    
    80   39   40 am   BACKBONE|DICT|INTERRES
    81   39  164 1    
    82   40   41 2    
    83   40   42 1    
    84   42   43 1    
    85   42   44 1    
    86   42  165 1    
    87   43  166 1    
    88   43  167 1    
    89   43  168 1    
    90   44   45 am   BACKBONE|DICT|INTERRES
    91   44  169 1    
    92   45   46 2    
    93   45   47 1    
    94   47   48 1    
    95   47   49 1    
    96   47  170 1    
    97   48  171 1    
    98   48  172 1    
    99   48  173 1    
   100   49   50 am   BACKBONE|DICT|INTERRES
   101   49  174 1    
   102   50   51 2    
   103   50   52 1    
   104   52   53 1    
   105   52   54 1    
   106   52  175 1    
   107   53  176 1    
   108   53  177 1    
   109   53  178 1    
   110   54   55 am   BACKBONE|DICT|INTERRES
   111   54  179 1    
   112   55   56 2    
   113   55   57 1    
   114   57   58 1    
   115   57   59 1    
   116   57  180 1    
   117   58  181 1    
   118   58  182 1    
   119   58  183 1    
   120   59   60 am   BACKBONE|DICT|INTERRES
   121   59  184 1    
   122   60   61 2    
   123   60   62 1    
   124   62   63 1    
   125   62   64 1    
   126   62  185 1    
   127   63  186 1    
   128   63  187 1    
   129   63  188 1    
   130   64   65 am   BACKBONE|DICT|INTERRES
   131   64  189 1    
   132   65   66 2    
   133   67   68 2    
   134   67   69 am   BACKBONE|DICT|INTERRES
   135   69   70 1    
   136   69  190 1    
   137   70   71 1    
   138   70   72 1    
   139   70  191 1    
   140   71  192 1    
   141   71  193 1    
   142   71  194 1    
   143   72   73 2    
   144   72   74 am   BACKBONE|DICT|INTERRES
   145   74   75 1    
   146   74  195 1    
   147   75   76 1    
   148   75   77 1    
   149   75  196 1    
   150   76  197 1    
   151   76  198 1    
   152   76  199 1    
   153   77   78 2    
   154   77   79 am   BACKBONE|DICT|INTERRES
   155   79   80 1    
   156   79  200 1    
   157   80   81 1    
   158   80   82 1    
   159   80  201 1    
   160   81  202 1    
   161   81  203 1    
   162   81  204 1    
   163   82   83 2    
   164   82   84 am   BACKBONE|DICT|INTERRES
   165   84   85 1    
   166   84  205 1    
   167   85   86 1    
   168   85   87 1    
   169   85  206 1    
   170   86  207 1    
   171   86  208 1    
   172   86  209 1    
   173   87   88 2    
   174   87   89 am   BACKBONE|DICT|INTERRES
   175   89   90 1    
   176   89  210 1    
   177   90   91 1    
   178   90   92 1    
   179   90  211 1    
   180   91  212 1    
   181   91  213 1    
   182   91  214 1    
   183   92   93 2    
   184   92   94 am   BACKBONE|DICT|INTERRES
   185   94   95 1    
   186   94  215 1    
   187   95   96 1    
   188   95   97 1    
   189   95  216 1    
   190   96  217 1    
   191   96  218 1    
   192   96  219 1    
   193   97   98 2    
   194   97   99 am   BACKBONE|DICT|INTERRES
   195   99  100 1    
   196   99  220 1    
   197  100  101 1    
   198  100  102 1    
   199  100  221 1    
   200  101  222 1    
   201  101  223 1    
   202  101  224 1    
   203  102  103 2    
   204  102  104 am   BACKBONE|DICT|INTERRES
   205  104  105 1    
   206  104  225 1    
   207  105  106 1    
   208  105  107 1    
   209  105  226 1    
   210  106  227 1    
   211  106  228 1    
   212  106  229 1    
   213  107  108 2    
   214  107  109 am   BACKBONE|DICT|INTERRES
   215  109  110 1    
   216  109  230 1    
   217  110  111 1    
   218  110  112 1    
   219  110  231 1    
   220  111  232 1    
   221  111  233 1    
   222  111  234 1    
   223  112  113 2    
   224  112  114 am   BACKBONE|DICT|INTERRES
   225  114  115 1    
   226  114  235 1    
   227  115  116 1    
   228  115  117 1    
   229  115  236 1    
   230  116  237 1    
   231  116  238 1    
   232  116  239 1    
   233  117  118 2    
   234  117  119 am   BACKBONE|DICT|INTERRES
   235  119  120 1    
   236  119  240 1    
   237  120  121 1    
   238  120  124 1    
   239  120  241 1    
   240  121  122 am   BACKBONE|DICT|INTERRES
   241  121  123 2    
   242  122  242 1    
   243  122  243 1    
   244  124  125 1    
   245  124  244 1    
   246  124  245 1    
   247  125  126 1    
   248  126  246 1    
   249  126  247 1    
@<TRIPOS>SUBSTRUCTURE
     1 UNK         1 GROUP             0       ****    0 ROOT    
