@<TRIPOS>MOLECULE
3R540
247   249    1
SMALL
USER_CHARGES


@<TRIPOS>ATOM
      1 CA          6.4820  -15.3300  -47.5100 C.3       0 UNK        -0.1800 
      2 C           5.3106  -14.3873  -47.2825 C.2       0 UNK         0.5000 
      3 O           4.9474  -14.1223  -46.1371 O.2       0 UNK        -0.5000 
      4 N           4.7256  -13.8574  -48.3654 N.am      1 UNK        -0.5000 
      5 CA          3.5220  -13.0105  -48.3592 C.3       1 UNK         0.1400 
      6 C6          2.8881  -12.8779  -49.7676 C.3       23 UNK        -0.0398 
      7 S7          2.4193  -14.4532  -50.5763 S.3       23 UNK        -0.2404 
      8 C8          1.8051  -15.4694  -49.1953 C.3       23 UNK        -0.0205 
      9 C9          1.1832  -16.7650  -49.6826 C.ar      23 UNK        -0.0193 
     10 C10        -0.2073  -16.8903  -49.7647 C.ar      23 UNK        -0.1150 
     11 C11        -0.7833  -18.0937  -50.1790 C.ar      23 UNK        -0.0193 
     12 C12         0.0419  -19.1664  -50.5174 C.ar      23 UNK        -0.1150 
     13 C13         1.4307  -19.0578  -50.4375 C.ar      23 UNK        -0.0193 
     14 C14         1.9982  -17.8502  -50.0219 C.ar      23 UNK        -0.1150 
     15 C15         2.3023  -20.2566  -50.7887 C.3       23 UNK        -0.0205 
     16 S16         3.2292  -20.9078  -49.3595 S.3       23 UNK        -0.2404 
     17 C17         1.9419  -21.1317  -48.0845 C.3       23 UNK        -0.0398 
     18 CA          1.7101  -22.6151  -47.6836 C.3       11 UNK         0.1400 
     19 N           1.1898  -22.7160  -46.3155 N.am      11 UNK        -0.5000 
     20 C          -0.0110  -22.2847  -45.9042 C.2       10 UNK         0.5000 
     21 O          -0.8803  -21.8764  -46.6774 O.2       10 UNK        -0.5000 
     22 CA         -0.3015  -22.3077  -44.3928 C.3       10 UNK         0.1400 
     23 CB          0.9647  -22.3045  -43.5146 C.3       10 UNK        -0.1800 
     24 N          -1.0953  -21.1252  -44.0823 N.am      10 UNK        -0.5000 
     25 C          -2.2889  -21.1137  -43.4794 C.2       9 UNK         0.5000 
     26 O          -2.8163  -22.1150  -42.9931 O.2       9 UNK        -0.5000 
     27 CA         -3.0277  -19.7605  -43.3961 C.3       9 UNK         0.1400 
     28 CB         -2.9901  -19.2211  -41.9574 C.3       9 UNK        -0.1800 
     29 N          -2.4923  -18.7382  -44.2990 N.am      9 UNK        -0.5000 
     30 C          -2.6146  -18.7405  -45.6341 C.2       8 UNK         0.5000 
     31 O          -3.2979  -19.5556  -46.2530 O.2       8 UNK        -0.5000 
     32 CA         -1.8275  -17.6661  -46.4139 C.3       8 UNK         0.1400 
     33 CB         -2.7394  -16.4897  -46.7910 C.3       8 UNK        -0.1800 
     34 N          -0.6472  -17.1532  -45.7094 N.am      8 UNK        -0.5000 
     35 C           0.4354  -17.8845  -45.4048 C.2       7 UNK         0.5000 
     36 O           0.5437  -19.0835  -45.6532 O.2       7 UNK        -0.5000 
     37 CA          1.5687  -17.1692  -44.6556 C.3       7 UNK         0.1400 
     38 CB          2.4287  -16.3405  -45.6187 C.3       7 UNK        -0.1800 
     39 N           1.0401  -16.3178  -43.5914 N.am      7 UNK        -0.5000 
     40 C           0.6861  -16.7744  -42.3811 C.2       6 UNK         0.5000 
     41 O           0.8625  -17.9354  -42.0115 O.2       6 UNK        -0.5000 
     42 CA         -0.0091  -15.7828  -41.4287 C.3       6 UNK         0.1400 
     43 CB          1.0075  -15.1146  -40.4930 C.3       6 UNK        -0.1800 
     44 N          -0.7748  -14.7541  -42.1344 N.am      6 UNK        -0.5000 
     45 C          -1.9080  -15.0021  -42.8070 C.2       5 UNK         0.5000 
     46 O          -2.4199  -16.1171  -42.8864 O.2       5 UNK        -0.5000 
     47 CA         -2.5641  -13.8248  -43.5499 C.3       5 UNK         0.1400 
     48 CB         -3.5946  -13.1304  -42.6475 C.3       5 UNK        -0.1800 
     49 N          -1.6171  -12.8283  -44.0496 N.am      5 UNK        -0.5000 
     50 C          -0.6023  -13.0594  -44.8933 C.2       4 UNK         0.5000 
     51 O          -0.3171  -14.1768  -45.3313 O.2       4 UNK        -0.5000 
     52 CA          0.2509  -11.8430  -45.3065 C.3       4 UNK         0.1400 
     53 CB         -0.3460  -10.4795  -44.8924 C.3       4 UNK        -0.1800 
     54 N           1.6342  -11.9373  -44.8367 N.am      4 UNK        -0.5000 
     55 C           2.0737  -12.1367  -43.5836 C.2       3 UNK         0.5000 
     56 O           1.3290  -12.3425  -42.6237 O.2       3 UNK        -0.5000 
     57 CA          3.6017  -12.0965  -43.3557 C.3       3 UNK         0.1400 
     58 CB          4.1212  -13.4650  -42.8891 C.3       3 UNK        -0.1800 
     59 N           4.3457  -11.6956  -44.5534 N.am      3 UNK        -0.5000 
     60 C           4.5650  -10.4263  -44.9337 C.2       2 UNK         0.5000 
     61 O           4.2434   -9.4484  -44.2583 O.2       2 UNK        -0.5000 
     62 CA          5.2149  -10.2074  -46.3195 C.3       2 UNK         0.1400 
     63 CB          6.7367  -10.0504  -46.1824 C.3       2 UNK        -0.1800 
     64 N           4.9298  -11.2937  -47.2607 N.am      2 UNK        -0.5000 
     65 C           3.7049  -11.6313  -47.6871 C.2       1 UNK         0.5000 
     66 O           2.7122  -10.9316  -47.4882 O.2       1 UNK        -0.5000 
     67 C           0.8343  -23.4403  -48.6566 C.2       11 UNK         0.5000 
     68 O           0.9087  -24.6698  -48.6210 O.2       11 UNK        -0.5000 
     69 N          -0.0362  -22.7848  -49.4397 N.am      12 UNK        -0.5000 
     70 CA         -1.0521  -23.4372  -50.2709 C.3       12 UNK         0.1400 
     71 CB         -1.7839  -22.3969  -51.1322 C.3       12 UNK        -0.1800 
     72 C          -2.0714  -24.2484  -49.4525 C.2       12 UNK         0.5000 
     73 O          -2.4918  -25.3103  -49.9058 O.2       12 UNK        -0.5000 
     74 N          -2.4271  -23.7662  -48.2533 N.am      13 UNK        -0.5000 
     75 CA         -3.3510  -24.4515  -47.3479 C.3       13 UNK         0.1400 
     76 CB         -3.8435  -23.4716  -46.2737 C.3       13 UNK        -0.1800 
     77 C          -2.7190  -25.6986  -46.7035 C.2       13 UNK         0.5000 
     78 O          -3.4306  -26.6661  -46.4356 O.2       13 UNK        -0.5000 
     79 N          -1.3928  -25.6719  -46.5046 N.am      14 UNK        -0.5000 
     80 CA         -0.6071  -26.8093  -46.0228 C.3       14 UNK         0.1400 
     81 CB          0.7413  -26.3097  -45.4815 C.3       14 UNK        -0.1800 
     82 C          -0.4087  -27.8690  -47.1229 C.2       14 UNK         0.5000 
     83 O          -0.4482  -29.0647  -46.8325 O.2       14 UNK        -0.5000 
     84 N          -0.2400  -27.4099  -48.3710 N.am      15 UNK        -0.5000 
     85 CA         -0.1553  -28.2417  -49.5740 C.3       15 UNK         0.1400 
     86 CB          0.4563  -27.4005  -50.7059 C.3       15 UNK        -0.1800 
     87 C          -1.5115  -28.8299  -50.0208 C.2       15 UNK         0.5000 
     88 O          -1.5233  -29.7228  -50.8690 O.2       15 UNK        -0.5000 
     89 N          -2.6164  -28.3106  -49.4639 N.am      16 UNK        -0.5000 
     90 CA         -4.0157  -28.6021  -49.7975 C.3       16 UNK         0.1400 
     91 CB         -4.3717  -30.0721  -49.4918 C.3       16 UNK        -0.1800 
     92 C          -4.3885  -28.1638  -51.2312 C.2       16 UNK         0.5000 
     93 O          -5.1715  -28.8337  -51.9080 O.2       16 UNK        -0.5000 
     94 N          -3.8158  -27.0340  -51.6593 N.am      17 UNK        -0.5000 
     95 CA         -4.0951  -26.3484  -52.9160 C.3       17 UNK         0.1400 
     96 CB         -2.7803  -25.7259  -53.4194 C.3       17 UNK        -0.1800 
     97 C          -5.1917  -25.2819  -52.7166 C.2       17 UNK         0.5000 
     98 O          -5.7292  -25.1308  -51.6149 O.2       17 UNK        -0.5000 
     99 N          -5.5113  -24.5523  -53.7932 N.am      18 UNK        -0.5000 
    100 CA        -6.5176  -23.4884  -53.8432 C.3       18 UNK         0.1400 
    101 CB        -6.8898  -23.2316  -55.3148 C.3       18 UNK        -0.1800 
    102 C         -6.0620  -22.2014  -53.1202 C.2       18 UNK         0.5000 
    103 O         -5.8714  -21.1628  -53.7543 O.2       18 UNK        -0.5000 
    104 N         -5.9114  -22.2873  -51.7926 N.am      19 UNK        -0.5000 
    105 CA        -5.4739  -21.2075  -50.9004 C.3       19 UNK         0.1400 
    106 CB        -5.3034  -21.7763  -49.4851 C.3       19 UNK        -0.1800 
    107 C         -6.3998  -19.9731  -50.8787 C.2       19 UNK         0.5000 
    108 O         -5.9629  -18.8957  -50.4801 O.2       19 UNK        -0.5000 
    109 N         -7.6509  -20.1357  -51.3306 N.am      20 UNK        -0.5000 
    110 CA        -8.6280  -19.0606  -51.5133 C.3       20 UNK         0.1400 
    111 CB       -10.0035  -19.6884  -51.7871 C.3       20 UNK        -0.1800 
    112 C         -8.2574  -18.0646  -52.6342 C.2       20 UNK         0.5000 
    113 O         -8.7883  -16.9535  -52.6472 O.2       20 UNK        -0.5000 
    114 N         -7.3626  -18.4641  -53.5503 N.am      21 UNK        -0.5000 
    115 CA        -6.8707  -17.6379  -54.6559 C.3       21 UNK         0.1400 
    116 CB        -6.4132  -18.5650  -55.7944 C.3       21 UNK        -0.1800 
    117 C         -5.7352  -16.6729  -54.2493 C.2       21 UNK         0.5000 
    118 O         -5.2617  -15.9165  -55.0990 O.2       21 UNK        -0.5000 
    119 N         -5.3027  -16.7152  -52.9852 N.am      22 UNK        -0.5000 
    120 CA        -4.1850  -15.9409  -52.4310 C.3       22 UNK         0.1400 
    121 C         -4.4886  -15.4145  -50.9997 C.2       22 UNK         0.5000 
    122 N         -3.5815  -14.6495  -50.4051 N.am      22 UNK        -0.7600 
    123 O         -5.5462  -15.6606  -50.4245 O.2       22 UNK        -0.5000 
    124 C124       -2.8350  -16.7075  -52.5470 C.3       23 UNK        -0.0398 
    125 S125       -2.8907  -18.4335  -51.9462 S.3       23 UNK        -0.2404 
    126 C126       -2.2931  -18.2602  -50.2373 C.3       23 UNK        -0.0205 
    127 H127        7.3765  -14.9406  -47.0241 H         1 UNK         0.0600 
    128 H128        6.6978  -15.4598  -48.5708 H         1 UNK         0.0600 
    129 H129        6.2600  -16.3089  -47.0852 H         1 UNK         0.0600 
    130 H130        5.0782  -14.0976  -49.2814 H         1 UNK         0.3000 
    131 H131        2.7965  -13.5064  -47.7132 H         1 UNK         0.0600 
    132 H132        1.9828  -12.2697  -49.7185 H         1 UNK         0.0800 
    133 H133        3.5680  -12.3471  -50.4360 H         1 UNK         0.0800 
    134 H134        2.6298  -15.7103  -48.5251 H         1 UNK         0.0800 
    135 H135        1.0781  -14.9001  -48.6133 H         1 UNK         0.0800 
    136 H136       -0.8397  -16.0563  -49.4953 H         1 UNK         0.1150 
    137 H137       -0.4046  -20.0894  -50.8454 H         1 UNK         0.1150 
    138 H138        3.0732  -17.7592  -49.9521 H         1 UNK         0.1150 
    139 H139        1.7026  -21.0623  -51.2151 H         1 UNK         0.0800 
    140 H140        3.0115  -19.9640  -51.5640 H         1 UNK         0.0800 
    141 H141        2.3109  -20.5852  -47.2152 H         1 UNK         0.0800 
    142 H142        1.0117  -20.6260  -48.3387 H         1 UNK         0.0800 
    143 H143        2.6825  -23.1096  -47.6586 H         1 UNK         0.0600 
    144 H144        1.8410  -23.0611  -45.6252 H         1 UNK         0.3000 
    145 H145       -0.8681  -23.2188  -44.1916 H         1 UNK         0.0600 
    146 H146        1.5463  -23.2175  -43.6458 H         1 UNK         0.0600 
    147 H147        1.6103  -21.4547  -43.7422 H         1 UNK         0.0600 
    148 H148        0.7038  -22.2450  -42.4577 H         1 UNK         0.0600 
    149 H149       -0.7685  -20.2722  -44.5240 H         1 UNK         0.3000 
    150 H150       -4.0696  -19.9431  -43.6664 H         1 UNK         0.0600 
    151 H151       -3.3675  -19.9594  -41.2489 H         1 UNK         0.0600 
    152 H152       -3.6107  -18.3310  -41.8546 H         1 UNK         0.0600 
    153 H153       -1.9753  -18.9605  -41.6534 H         1 UNK         0.0600 
    154 H154       -1.9975  -17.9687  -43.8640 H         1 UNK         0.3000 
    155 H155       -1.4764  -18.1357  -47.3342 H         1 UNK         0.0600 
    156 H156       -2.2015  -15.7381  -47.3689 H         1 UNK         0.0600 
    157 H157       -3.5810  -16.8273  -47.3974 H         1 UNK         0.0600 
    158 H158       -3.1491  -16.0055  -45.9054 H         1 UNK         0.0600 
    159 H159       -0.6412  -16.1627  -45.4885 H         1 UNK         0.3000 
    160 H160        2.2126  -17.9352  -44.2177 H         1 UNK         0.0600 
    161 H161        1.8776  -15.5048  -46.0495 H         1 UNK         0.0600 
    162 H162        2.7941  -16.9568  -46.4410 H         1 UNK         0.0600 
    163 H163        3.3021  -15.9400  -45.1073 H         1 UNK         0.0600 
    164 H164        0.8051  -15.3665  -43.8441 H         1 UNK         0.3000 
    165 H165       -0.7038  -16.3572  -40.8117 H         1 UNK         0.0600 
    166 H166        0.5116  -14.4698  -39.7674 H         1 UNK         0.0600 
    167 H167        1.5734  -15.8603  -39.9333 H         1 UNK         0.0600 
    168 H168        1.7218  -14.5077  -41.0465 H         1 UNK         0.0600 
    169 H169       -0.3834  -13.8200  -42.1521 H         1 UNK         0.3000 
    170 H170       -3.0917  -14.2332  -44.4126 H         1 UNK         0.0600 
    171 H171       -4.3325  -13.8432  -42.2767 H         1 UNK         0.0600 
    172 H172       -3.1221  -12.6660  -41.7810 H         1 UNK         0.0600 
    173 H173       -4.1376  -12.3564  -43.1902 H         1 UNK         0.0600 
    174 H174       -1.7517  -11.8828  -43.7227 H         1 UNK         0.3000 
    175 H175        0.2926  -11.8656  -46.3963 H         1 UNK         0.0600 
    176 H176       -0.3807  -10.3556  -43.8093 H         1 UNK         0.0600 
    177 H177        0.2511   -9.6608  -45.2949 H         1 UNK         0.0600 
    178 H178       -1.3578  -10.3541  -45.2803 H         1 UNK         0.0600 
    179 H179        2.3290  -11.7588  -45.5490 H         1 UNK         0.3000 
    180 H180        3.7941  -11.3751  -42.5591 H         1 UNK         0.0600 
    181 H181        3.8556  -14.2567  -43.5888 H         1 UNK         0.0600 
    182 H182        3.7061  -13.7299  -41.9175 H         1 UNK         0.0600 
    183 H183        5.2062  -13.4617  -42.7836 H         1 UNK         0.0600 
    184 H184        4.6460  -12.4543  -45.1602 H         1 UNK         0.3000 
    185 H185        4.8080   -9.2832  -46.7351 H         1 UNK         0.0600 
    186 H186        6.9853   -9.2316  -45.5059 H         1 UNK         0.0600 
    187 H187        7.2004  -10.9553  -45.7875 H         1 UNK         0.0600 
    188 H188        7.1988   -9.8275  -47.1443 H         1 UNK         0.0600 
    189 H189        5.6871  -11.9324  -47.4556 H         1 UNK         0.3000 
    190 H190       -0.0945  -21.7816  -49.3567 H         1 UNK         0.3000 
    191 H191       -0.5425  -24.1331  -50.9400 H         1 UNK         0.0600 
    192 H192       -1.1174  -21.9651  -51.8783 H         1 UNK         0.0600 
    193 H193       -2.1948  -21.5897  -50.5253 H         1 UNK         0.0600 
    194 H194       -2.6175  -22.8448  -51.6747 H         1 UNK         0.0600 
    195 H195       -2.0002  -22.9105  -47.9079 H         1 UNK         0.3000 
    196 H196       -4.2174  -24.7787  -47.9272 H         1 UNK         0.0600 
    197 H197       -4.6003  -23.9353  -45.6402 H         1 UNK         0.0600 
    198 H198       -4.2904  -22.5828  -46.7194 H         1 UNK         0.0600 
    199 H199       -3.0321  -23.1453  -45.6251 H         1 UNK         0.0600 
    200 H200       -0.8784  -24.8608  -46.8134 H         1 UNK         0.3000 
    201 H201       -1.1469  -27.2802  -45.1983 H         1 UNK         0.0600 
    202 H202        0.6001  -25.5907  -44.6746 H         1 UNK         0.0600 
    203 H203        1.3406  -25.8326  -46.2569 H         1 UNK         0.0600 
    204 H204        1.3277  -27.1368  -45.0796 H         1 UNK         0.0600 
    205 H205       -0.1365  -26.4103  -48.5093 H         1 UNK         0.3000 
    206 H206        0.5148  -29.0788  -49.3681 H         1 UNK         0.0600 
    207 H207        1.4274  -26.9964  -50.4191 H         1 UNK         0.0600 
    208 H208        0.6062  -28.0014  -51.6037 H         1 UNK         0.0600 
    209 H209       -0.1886  -26.5643  -50.9765 H         1 UNK         0.0600 
    210 H210       -2.4801  -27.5515  -48.8114 H         1 UNK         0.3000 
    211 H211       -4.6142  -27.9784  -49.1319 H         1 UNK         0.0600 
    212 H212       -3.8706  -30.7629  -50.1702 H         1 UNK         0.0600 
    213 H213       -5.4445  -30.2411  -49.5901 H         1 UNK         0.0600 
    214 H214       -4.0939  -30.3405  -48.4725 H         1 UNK         0.0600 
    215 H215       -3.2544  -26.5049  -50.9938 H         1 UNK         0.3000 
    216 H216       -4.4502  -27.0649  -53.6592 H         1 UNK         0.0600 
    217 H217       -2.0040  -26.4844  -53.5230 H         1 UNK         0.0600 
    218 H218       -2.4071  -24.9649  -52.7350 H         1 UNK         0.0600 
    219 H219       -2.9034  -25.2596  -54.3971 H         1 UNK         0.0600 
    220 H220       -5.0109  -24.7202  -54.6538 H         1 UNK         0.3000 
    221 H221       -7.4171  -23.8413  -53.3344 H         1 UNK         0.0600 
    222 H222       -6.0296  -22.8978  -55.8965 H         1 UNK         0.0600 
    223 H223       -7.2840  -24.1326  -55.7852 H         1 UNK         0.0600 
    224 H224       -7.6592  -22.4624  -55.3957 H         1 UNK         0.0600 
    225 H225       -6.0360  -23.2044  -51.3736 H         1 UNK         0.3000 
    226 H226       -4.4981  -20.8722  -51.2545 H         1 UNK         0.0600 
    227 H227       -4.6387  -22.6381  -49.4883 H         1 UNK         0.0600 
    228 H228       -4.8716  -21.0332  -48.8128 H         1 UNK         0.0600 
    229 H229       -6.2569  -22.0930  -49.0609 H         1 UNK         0.0600 
    230 H230       -7.9300  -21.0578  -51.6300 H         1 UNK         0.3000 
    231 H231       -8.6873  -18.4951  -50.5811 H         1 UNK         0.0600 
    232 H232      -10.7697  -18.9197  -51.8966 H         1 UNK         0.0600 
    233 H233      -10.3121  -20.3373  -50.9672 H         1 UNK         0.0600 
    234 H234       -9.9998  -20.2808  -52.7030 H         1 UNK         0.0600 
    235 H235       -6.9514  -19.3883  -53.4706 H         1 UNK         0.3000 
    236 H236       -7.6940  -17.0276  -55.0324 H         1 UNK         0.0600 
    237 H237       -7.2025  -19.2594  -56.0828 H         1 UNK         0.0600 
    238 H238       -6.1449  -17.9921  -56.6828 H         1 UNK         0.0600 
    239 H239       -5.5390  -19.1505  -55.5076 H         1 UNK         0.0600 
    240 H240       -5.7552  -17.3326  -52.3226 H         1 UNK         0.3000 
    241 H241       -4.0905  -15.0291  -53.0235 H         1 UNK         0.0600 
    242 H242       -2.7264  -14.3795  -50.8638 H         1 UNK         0.3800 
    243 H243       -3.7848  -14.2885  -49.4867 H         1 UNK         0.3800 
    244 H244       -2.5524  -16.7525  -53.5993 H         1 UNK         0.0800 
    245 H245       -2.0208  -16.1706  -52.0595 H         1 UNK         0.0800 
    246 H246       -2.8008  -17.4289  -49.7485 H         1 UNK         0.0800 
    247 H247       -2.5739  -19.1532  -49.6767 H         1 UNK         0.0800 
@<TRIPOS>BOND
     1    1    2 1    
     2    1  127 1    
     3    1  128 1    
     4    1  129 1    
     5    2    3 2    
     6    2    4 am   BACKBONE|DICT|INTERRES
     7    4    5 1    
     8    4  130 1    
     9    5    6 1    
    10    5   65 1    
    11    5  131 1    
    12    6    7 1    
    13    6  132 1    
    14    6  133 1    
    15    7    8 1    
    16    8    9 1    
    17    8  134 1    
    18    8  135 1    
    19    9   10 ar   
    20    9   14 ar   
    21   10   11 ar   
    22   10  136 1    
    23   11   12 ar   
    24   11  126 1    
    25   12   13 ar   
    26   12  137 1    
    27   13   14 ar   
    28   13   15 1    
    29   14  138 1    
    30   15   16 1    
    31   15  139 1    
    32   15  140 1    
    33   16   17 1    
    34   17   18 1    
    35   17  141 1    
    36   17  142 1    
    37   18   19 1    
    38   18   67 1    
    39   18  143 1    
    40   19   20 am   BACKBONE|DICT|INTERRES
    41   19  144 1    
    42   20   21 2    
    43   20   22 1    
    44   22   23 1    
    45   22   24 1    
    46   22  145 1    
    47   23  146 1    
    48   23  147 1    
    49   23  148 1    
    50   24   25 am   BACKBONE|DICT|INTERRES
    51   24  149 1    
    52   25   26 2    
    53   25   27 1    
    54   27   28 1    
    55   27   29 1    
    56   27  150 1    
    57   28  151 1    
    58   28  152 1    
    59   28  153 1    
    60   29   30 am   BACKBONE|DICT|INTERRES
    61   29  154 1    
    62   30   31 2    
    63   30   32 1    
    64   32   33 1    
    65   32   34 1    
    66   32  155 1    
    67   33  156 1    
    68   33  157 1    
    69   33  158 1    
    70   34   35 am   BACKBONE|DICT|INTERRES
    71   34  159 1    
    72   35   36 2    
    73   35   37 1    
    74   37   38 1    
    75   37   39 1    
    76   37  160 1    
    77   38  161 1    
    78   38  162 1    
    79   38  163 1    
    80   39   40 am   BACKBONE|DICT|INTERRES
    81   39  164 1    
    82   40   41 2    
    83   40   42 1    
    84   42   43 1    
    85   42   44 1    
    86   42  165 1    
    87   43  166 1    
    88   43  167 1    
    89   43  168 1    
    90   44   45 am   BACKBONE|DICT|INTERRES
    91   44  169 1    
    92   45   46 2    
    93   45   47 1    
    94   47   48 1    
    95   47   49 1    
    96   47  170 1    
    97   48  171 1    
    98   48  172 1    
    99   48  173 1    
   100   49   50 am   BACKBONE|DICT|INTERRES
   101   49  174 1    
   102   50   51 2    
   103   50   52 1    
   104   52   53 1    
   105   52   54 1    
   106   52  175 1    
   107   53  176 1    
   108   53  177 1    
   109   53  178 1    
   110   54   55 am   BACKBONE|DICT|INTERRES
   111   54  179 1    
   112   55   56 2    
   113   55   57 1    
   114   57   58 1    
   115   57   59 1    
   116   57  180 1    
   117   58  181 1    
   118   58  182 1    
   119   58  183 1    
   120   59   60 am   BACKBONE|DICT|INTERRES
   121   59  184 1    
   122   60   61 2    
   123   60   62 1    
   124   62   63 1    
   125   62   64 1    
   126   62  185 1    
   127   63  186 1    
   128   63  187 1    
   129   63  188 1    
   130   64   65 am   BACKBONE|DICT|INTERRES
   131   64  189 1    
   132   65   66 2    
   133   67   68 2    
   134   67   69 am   BACKBONE|DICT|INTERRES
   135   69   70 1    
   136   69  190 1    
   137   70   71 1    
   138   70   72 1    
   139   70  191 1    
   140   71  192 1    
   141   71  193 1    
   142   71  194 1    
   143   72   73 2    
   144   72   74 am   BACKBONE|DICT|INTERRES
   145   74   75 1    
   146   74  195 1    
   147   75   76 1    
   148   75   77 1    
   149   75  196 1    
   150   76  197 1    
   151   76  198 1    
   152   76  199 1    
   153   77   78 2    
   154   77   79 am   BACKBONE|DICT|INTERRES
   155   79   80 1    
   156   79  200 1    
   157   80   81 1    
   158   80   82 1    
   159   80  201 1    
   160   81  202 1    
   161   81  203 1    
   162   81  204 1    
   163   82   83 2    
   164   82   84 am   BACKBONE|DICT|INTERRES
   165   84   85 1    
   166   84  205 1    
   167   85   86 1    
   168   85   87 1    
   169   85  206 1    
   170   86  207 1    
   171   86  208 1    
   172   86  209 1    
   173   87   88 2    
   174   87   89 am   BACKBONE|DICT|INTERRES
   175   89   90 1    
   176   89  210 1    
   177   90   91 1    
   178   90   92 1    
   179   90  211 1    
   180   91  212 1    
   181   91  213 1    
   182   91  214 1    
   183   92   93 2    
   184   92   94 am   BACKBONE|DICT|INTERRES
   185   94   95 1    
   186   94  215 1    
   187   95   96 1    
   188   95   97 1    
   189   95  216 1    
   190   96  217 1    
   191   96  218 1    
   192   96  219 1    
   193   97   98 2    
   194   97   99 am   BACKBONE|DICT|INTERRES
   195   99  100 1    
   196   99  220 1    
   197  100  101 1    
   198  100  102 1    
   199  100  221 1    
   200  101  222 1    
   201  101  223 1    
   202  101  224 1    
   203  102  103 2    
   204  102  104 am   BACKBONE|DICT|INTERRES
   205  104  105 1    
   206  104  225 1    
   207  105  106 1    
   208  105  107 1    
   209  105  226 1    
   210  106  227 1    
   211  106  228 1    
   212  106  229 1    
   213  107  108 2    
   214  107  109 am   BACKBONE|DICT|INTERRES
   215  109  110 1    
   216  109  230 1    
   217  110  111 1    
   218  110  112 1    
   219  110  231 1    
   220  111  232 1    
   221  111  233 1    
   222  111  234 1    
   223  112  113 2    
   224  112  114 am   BACKBONE|DICT|INTERRES
   225  114  115 1    
   226  114  235 1    
   227  115  116 1    
   228  115  117 1    
   229  115  236 1    
   230  116  237 1    
   231  116  238 1    
   232  116  239 1    
   233  117  118 2    
   234  117  119 am   BACKBONE|DICT|INTERRES
   235  119  120 1    
   236  119  240 1    
   237  120  121 1    
   238  120  124 1    
   239  120  241 1    
   240  121  122 am   BACKBONE|DICT|INTERRES
   241  121  123 2    
   242  122  242 1    
   243  122  243 1    
   244  124  125 1    
   245  124  244 1    
   246  124  245 1    
   247  125  126 1    
   248  126  246 1    
   249  126  247 1    
@<TRIPOS>SUBSTRUCTURE
     1 UNK         1 GROUP             0       ****    0 ROOT    
