@<TRIPOS>MOLECULE
3R540
247   249    1
SMALL
USER_CHARGES


@<TRIPOS>ATOM
      1 CA          1.0090   -8.2580  -49.1852 C.3       0 UNK        -0.1800 
      2 C           1.3737   -9.6163  -48.6030 C.2       0 UNK         0.5000 
      3 O           2.4468   -9.7642  -48.0218 O.2       0 UNK        -0.5000 
      4 N           0.4861  -10.6047  -48.7631 N.am      1 UNK        -0.5000 
      5 CA          0.6272  -11.9713  -48.2428 C.3       1 UNK         0.1400 
      6 C6         -0.2254  -12.9756  -49.0608 C.3       23 UNK        -0.0398 
      7 S7         -1.9806  -12.5012  -49.2689 S.3       23 UNK        -0.2404 
      8 C8         -2.8089  -13.5372  -48.0114 C.3       23 UNK        -0.0205 
      9 C9         -2.8241  -15.0469  -48.2678 C.ar      23 UNK        -0.0193 
     10 C10        -2.4763  -15.6223  -49.4993 C.ar      23 UNK        -0.1150 
     11 C11        -2.5256  -17.0109  -49.6846 C.ar      23 UNK        -0.0193 
     12 C12        -2.9058  -17.8222  -48.6149 C.ar      23 UNK        -0.1150 
     13 C13        -3.2639  -17.2688  -47.3850 C.ar      23 UNK        -0.0193 
     14 C14        -3.2225  -15.8830  -47.2200 C.ar      23 UNK        -0.1150 
     15 C15        -3.6560  -18.1754  -46.2298 C.3       23 UNK        -0.0205 
     16 S16        -5.0761  -19.2353  -46.6314 S.3       23 UNK        -0.2404 
     17 C17        -4.9002  -20.5337  -45.3640 C.3       23 UNK        -0.0398 
     18 CA         -4.2282  -21.8052  -45.9352 C.3       11 UNK         0.1400 
     19 N          -2.8089  -21.6124  -46.2698 N.am      11 UNK        -0.5000 
     20 C          -2.0634  -22.4881  -46.9593 C.2       10 UNK         0.5000 
     21 O          -2.4967  -23.5514  -47.3969 O.2       10 UNK        -0.5000 
     22 CA         -0.5778  -22.1555  -47.1522 C.3       10 UNK         0.1400 
     23 CB         -0.3901  -21.1486  -48.2972 C.3       10 UNK        -0.1800 
     24 N           0.0172  -21.6503  -45.9158 N.am      10 UNK        -0.5000 
     25 C           0.2854  -22.4224  -44.8505 C.2       9 UNK         0.5000 
     26 O           0.1215  -23.6420  -44.8414 O.2       9 UNK        -0.5000 
     27 CA          0.7917  -21.7294  -43.5683 C.3       9 UNK         0.1400 
     28 CB          2.3270  -21.7230  -43.5338 C.3       9 UNK        -0.1800 
     29 N           0.3088  -20.3589  -43.4022 N.am      9 UNK        -0.5000 
     30 C          -0.9772  -19.9935  -43.3073 C.2       8 UNK         0.5000 
     31 O          -1.9171  -20.7901  -43.2925 O.2       8 UNK        -0.5000 
     32 CA         -1.2653  -18.4781  -43.2942 C.3       8 UNK         0.1400 
     33 CB         -1.3202  -17.9617  -41.8494 C.3       8 UNK        -0.1800 
     34 N          -0.3111  -17.6594  -44.0551 N.am      8 UNK        -0.5000 
     35 C           0.1108  -17.8634  -45.3139 C.2       7 UNK         0.5000 
     36 O          -0.2734  -18.7985  -46.0138 O.2       7 UNK        -0.5000 
     37 CA          1.1611  -16.8931  -45.8890 C.3       7 UNK         0.1400 
     38 CB          0.5531  -16.0691  -47.0282 C.3       7 UNK        -0.1800 
     39 N           1.7712  -15.9932  -44.9023 N.am      7 UNK        -0.5000 
     40 C           2.5994  -16.3977  -43.9275 C.2       6 UNK         0.5000 
     41 O           2.8969  -17.5808  -43.7468 O.2       6 UNK        -0.5000 
     42 CA          3.1603  -15.3074  -42.9894 C.3       6 UNK         0.1400 
     43 CB          4.3091  -15.8210  -42.0972 C.3       6 UNK        -0.1800 
     44 N           3.5715  -14.0722  -43.6634 N.am      6 UNK        -0.5000 
     45 C           4.4588  -13.9396  -44.6633 C.2       5 UNK         0.5000 
     46 O           4.9680  -14.8857  -45.2651 O.2       5 UNK        -0.5000 
     47 CA          4.8921  -12.5037  -45.0286 C.3       5 UNK         0.1400 
     48 CB          4.1432  -11.9929  -46.2645 C.3       5 UNK        -0.1800 
     49 N           4.7163  -11.5490  -43.9312 N.am      5 UNK        -0.5000 
     50 C           5.4634  -11.5377  -42.8181 C.2       4 UNK         0.5000 
     51 O           6.4403  -12.2686  -42.6491 O.2       4 UNK        -0.5000 
     52 CA          5.0544  -10.5660  -41.6928 C.3       4 UNK         0.1400 
     53 CB          5.9608   -9.3252  -41.7024 C.3       4 UNK        -0.1800 
     54 N           3.6555  -10.1261  -41.7166 N.am      4 UNK        -0.5000 
     55 C           2.5725  -10.9111  -41.6279 C.2       3 UNK         0.5000 
     56 O           2.6196  -12.1423  -41.6163 O.2       3 UNK        -0.5000 
     57 CA          1.1984  -10.2160  -41.5267 C.3       3 UNK         0.1400 
     58 CB          1.2638   -8.6718  -41.4716 C.3       3 UNK        -0.1800 
     59 N           0.2783  -10.6523  -42.5806 N.am      3 UNK        -0.5000 
     60 C           0.4495  -10.5265  -43.9037 C.2       2 UNK         0.5000 
     61 O           1.4567  -10.0409  -44.4257 O.2       2 UNK        -0.5000 
     62 CA         -0.7418  -10.9830  -44.7703 C.3       2 UNK         0.1400 
     63 CB         -1.9172   -9.9998  -44.6402 C.3       2 UNK        -0.1800 
     64 N          -0.3972  -11.0923  -46.1851 N.am      2 UNK        -0.5000 
     65 C           0.3351  -12.0727  -46.7272 C.2       1 UNK         0.5000 
     66 O           0.7684  -13.0302  -46.0832 O.2       1 UNK        -0.5000 
     67 C          -4.4282  -23.0064  -44.9911 C.2       11 UNK         0.5000 
     68 O          -5.3537  -23.7913  -45.2008 O.2       11 UNK        -0.5000 
     69 N          -3.5126  -23.1784  -44.0264 N.am      12 UNK        -0.5000 
     70 CA         -3.4402  -24.3440  -43.1392 C.3       12 UNK         0.1400 
     71 CB         -2.3638  -24.0929  -42.0728 C.3       12 UNK        -0.1800 
     72 C          -3.1694  -25.6721  -43.8809 C.2       12 UNK         0.5000 
     73 O          -3.5411  -26.7328  -43.3786 O.2       12 UNK        -0.5000 
     74 N          -2.5583  -25.5856  -45.0692 N.am      13 UNK        -0.5000 
     75 CA         -2.2822  -26.6921  -45.9829 C.3       13 UNK         0.1400 
     76 CB         -0.8446  -26.5373  -46.5104 C.3       13 UNK        -0.1800 
     77 C          -3.3076  -26.7657  -47.1357 C.2       13 UNK         0.5000 
     78 O          -3.0107  -27.3802  -48.1603 O.2       13 UNK        -0.5000 
     79 N          -4.4834  -26.1374  -46.9704 N.am      14 UNK        -0.5000 
     80 CA         -5.6013  -26.0856  -47.9218 C.3       14 UNK         0.1400 
     81 CB         -6.2219  -27.4854  -48.1156 C.3       14 UNK        -0.1800 
     82 C          -5.2105  -25.4097  -49.2519 C.2       14 UNK         0.5000 
     83 O          -5.3603  -25.9995  -50.3234 O.2       14 UNK        -0.5000 
     84 N          -4.6686  -24.1896  -49.1386 N.am      15 UNK        -0.5000 
     85 CA         -4.0989  -23.3646  -50.2106 C.3       15 UNK         0.1400 
     86 CB         -5.1884  -22.9097  -51.2022 C.3       15 UNK        -0.1800 
     87 C          -2.8967  -24.0542  -50.8859 C.2       15 UNK         0.5000 
     88 O          -2.7816  -24.0457  -52.1119 O.2       15 UNK        -0.5000 
     89 N          -2.0421  -24.6687  -50.0537 N.am      16 UNK        -0.5000 
     90 CA         -0.8876  -25.4952  -50.4193 C.3       16 UNK         0.1400 
     91 CB          0.2302  -24.6149  -51.0167 C.3       16 UNK        -0.1800 
     92 C          -1.2915  -26.6712  -51.3338 C.2       16 UNK         0.5000 
     93 O          -0.7288  -26.8362  -52.4156 O.2       16 UNK        -0.5000 
     94 N          -2.3072  -27.4314  -50.8990 N.am      17 UNK        -0.5000 
     95 CA         -2.9942  -28.4978  -51.6371 C.3       17 UNK         0.1400 
     96 CB         -2.0691  -29.7184  -51.8216 C.3       17 UNK        -0.1800 
     97 C          -3.6089  -27.9910  -52.9611 C.2       17 UNK         0.5000 
     98 O          -3.4622  -28.6303  -54.0045 O.2       17 UNK        -0.5000 
     99 N          -4.2665  -26.8256  -52.8808 N.am      18 UNK        -0.5000 
    100 CA        -4.9022  -26.0648  -53.9615 C.3       18 UNK         0.1400 
    101 CB        -6.0978  -26.8466  -54.5444 C.3       18 UNK        -0.1800 
    102 C         -3.9377  -25.5526  -55.0561 C.2       18 UNK         0.5000 
    103 O         -4.3974  -25.1935  -56.1420 O.2       18 UNK        -0.5000 
    104 N         -2.6287  -25.5089  -54.7709 N.am      19 UNK        -0.5000 
    105 CA        -1.6082  -25.0012  -55.6880 C.3       19 UNK         0.1400 
    106 CB        -0.2415  -25.5983  -55.3239 C.3       19 UNK        -0.1800 
    107 C         -1.5302  -23.4645  -55.6977 C.2       19 UNK         0.5000 
    108 O         -1.1949  -22.8896  -56.7347 O.2       19 UNK        -0.5000 
    109 N         -1.8222  -22.8221  -54.5583 N.am      20 UNK        -0.5000 
    110 CA        -1.8158  -21.3686  -54.4203 C.3       20 UNK         0.1400 
    111 CB        -1.6081  -20.9917  -52.9443 C.3       20 UNK        -0.1800 
    112 C         -3.1318  -20.7834  -54.9544 C.2       20 UNK         0.5000 
    113 O         -4.2041  -21.1825  -54.4948 O.2       20 UNK        -0.5000 
    114 N         -3.0345  -19.8222  -55.8829 N.am      21 UNK        -0.5000 
    115 CA        -4.1785  -19.1317  -56.4927 C.3       21 UNK         0.1400 
    116 CB        -3.6751  -18.2285  -57.6288 C.3       21 UNK        -0.1800 
    117 C         -5.0134  -18.3182  -55.4831 C.2       21 UNK         0.5000 
    118 O         -6.2262  -18.1901  -55.6534 O.2       21 UNK        -0.5000 
    119 N         -4.3465  -17.8157  -54.4385 N.am      22 UNK        -0.5000 
    120 CA        -4.9475  -17.1872  -53.2542 C.3       22 UNK         0.1400 
    121 C         -5.5583  -18.1848  -52.2236 C.2       22 UNK         0.5000 
    122 N         -5.4528  -19.4968  -52.4004 N.am      22 UNK        -0.7600 
    123 O         -6.1685  -17.7576  -51.2481 O.2       22 UNK        -0.5000 
    124 C124       -3.9866  -16.1608  -52.5888 C.3       23 UNK        -0.0398 
    125 S125       -2.2254  -16.6586  -52.5030 S.3       23 UNK        -0.2404 
    126 C126       -2.1582  -17.6943  -51.0014 C.3       23 UNK        -0.0205 
    127 H127        0.9787   -7.5078  -48.3950 H         1 UNK         0.0600 
    128 H128        1.7545   -7.9520  -49.9191 H         1 UNK         0.0600 
    129 H129        0.0355   -8.2746  -49.6760 H         1 UNK         0.0600 
    130 H130       -0.3739  -10.4268  -49.2640 H         1 UNK         0.3000 
    131 H131        1.6714  -12.2670  -48.3653 H         1 UNK         0.0600 
    132 H132        0.2001  -13.0622  -50.0613 H         1 UNK         0.0800 
    133 H133       -0.1628  -13.9780  -48.6417 H         1 UNK         0.0800 
    134 H134       -2.3494  -13.3408  -47.0418 H         1 UNK         0.0800 
    135 H135       -3.8431  -13.2003  -47.9311 H         1 UNK         0.0800 
    136 H136       -2.1708  -14.9917  -50.3194 H         1 UNK         0.1150 
    137 H137       -2.9328  -18.8957  -48.7394 H         1 UNK         0.1150 
    138 H138       -3.4940  -15.4508  -46.2670 H         1 UNK         0.1150 
    139 H139       -2.8027  -18.8039  -45.9885 H         1 UNK         0.0800 
    140 H140       -3.8884  -17.5942  -45.3365 H         1 UNK         0.0800 
    141 H141       -5.9070  -20.7605  -45.0077 H         1 UNK         0.0800 
    142 H142       -4.3541  -20.1519  -44.4997 H         1 UNK         0.0800 
    143 H143       -4.7435  -22.0586  -46.8644 H         1 UNK         0.0600 
    144 H144       -2.3625  -20.7836  -45.9066 H         1 UNK         0.3000 
    145 H145       -0.0610  -23.0762  -47.4320 H         1 UNK         0.0600 
    146 H146       -0.9257  -20.2171  -48.1143 H         1 UNK         0.0600 
    147 H147        0.6628  -20.9060  -48.4404 H         1 UNK         0.0600 
    148 H148       -0.7609  -21.5576  -49.2382 H         1 UNK         0.0600 
    149 H149        0.1260  -20.6418  -45.8464 H         1 UNK         0.3000 
    150 H150        0.4324  -22.3109  -42.7172 H         1 UNK         0.0600 
    151 H151        2.7251  -22.7337  -43.6337 H         1 UNK         0.0600 
    152 H152        2.6991  -21.3197  -42.5918 H         1 UNK         0.0600 
    153 H153        2.7441  -21.1229  -44.3437 H         1 UNK         0.0600 
    154 H154        1.0077  -19.6294  -43.4277 H         1 UNK         0.3000 
    155 H155       -2.2498  -18.3322  -43.7368 H         1 UNK         0.0600 
    156 H156       -2.0339  -18.5346  -41.2555 H         1 UNK         0.0600 
    157 H157       -1.6352  -16.9186  -41.8140 H         1 UNK         0.0600 
    158 H158       -0.3490  -18.0369  -41.3585 H         1 UNK         0.0600 
    159 H159        0.0712  -16.8621  -43.5700 H         1 UNK         0.3000 
    160 H160        1.9573  -17.5082  -46.3133 H         1 UNK         0.0600 
    161 H161        1.3067  -15.4354  -47.4952 H         1 UNK         0.0600 
    162 H162       -0.2570  -15.4340  -46.6691 H         1 UNK         0.0600 
    163 H163        0.1411  -16.7129  -47.8070 H         1 UNK         0.0600 
    164 H164        1.5775  -15.0047  -45.0098 H         1 UNK         0.3000 
    165 H165        2.3369  -15.0287  -42.3303 H         1 UNK         0.0600 
    166 H166        5.1624  -16.1516  -42.6904 H         1 UNK         0.0600 
    167 H167        4.6559  -15.0426  -41.4171 H         1 UNK         0.0600 
    168 H168        3.9868  -16.6642  -41.4852 H         1 UNK         0.0600 
    169 H169        3.2303  -13.2243  -43.2224 H         1 UNK         0.3000 
    170 H170        5.9544  -12.5461  -45.2784 H         1 UNK         0.0600 
    171 H171        3.1034  -11.7724  -46.0320 H         1 UNK         0.0600 
    172 H172        4.5959  -11.0775  -46.6456 H         1 UNK         0.0600 
    173 H173        4.1571  -12.7248  -47.0732 H         1 UNK         0.0600 
    174 H174        3.9269  -10.9196  -43.9933 H         1 UNK         0.3000 
    175 H175        5.2100  -11.0926  -40.7491 H         1 UNK         0.0600 
    176 H176        5.8228   -8.7350  -42.6092 H         1 UNK         0.0600 
    177 H177        5.7586   -8.6806  -40.8467 H         1 UNK         0.0600 
    178 H178        7.0133   -9.6074  -41.6515 H         1 UNK         0.0600 
    179 H179        3.5082   -9.1279  -41.7510 H         1 UNK         0.3000 
    180 H180        0.7650  -10.5551  -40.5847 H         1 UNK         0.0600 
    181 H181        1.6937   -8.2424  -42.3773 H         1 UNK         0.0600 
    182 H182        1.8583   -8.3305  -40.6232 H         1 UNK         0.0600 
    183 H183        0.2674   -8.2467  -41.3502 H         1 UNK         0.0600 
    184 H184       -0.5703  -11.0897  -42.2503 H         1 UNK         0.3000 
    185 H185       -1.0651  -11.9645  -44.4167 H         1 UNK         0.0600 
    186 H186       -2.7708  -10.3253  -45.2353 H         1 UNK         0.0600 
    187 H187       -2.2578   -9.9214  -43.6071 H         1 UNK         0.0600 
    188 H188       -1.6406   -8.9977  -44.9707 H         1 UNK         0.0600 
    189 H189       -0.6698  -10.3229  -46.7776 H         1 UNK         0.3000 
    190 H190       -2.8089  -22.4585  -43.8896 H         1 UNK         0.3000 
    191 H191       -4.4048  -24.4395  -42.6366 H         1 UNK         0.0600 
    192 H192       -1.3725  -24.0070  -42.5176 H         1 UNK         0.0600 
    193 H193       -2.5628  -23.1764  -41.5169 H         1 UNK         0.0600 
    194 H194       -2.3298  -24.9108  -41.3521 H         1 UNK         0.0600 
    195 H195       -2.2964  -24.6693  -45.4081 H         1 UNK         0.3000 
    196 H196       -2.3416  -27.6416  -45.4478 H         1 UNK         0.0600 
    197 H197       -0.1272  -26.5190  -45.6898 H         1 UNK         0.0600 
    198 H198       -0.7213  -25.6138  -47.0759 H         1 UNK         0.0600 
    199 H199       -0.5670  -27.3665  -47.1622 H         1 UNK         0.0600 
    200 H200       -4.6217  -25.6098  -46.1168 H         1 UNK         0.3000 
    201 H201       -6.3629  -25.4506  -47.4669 H         1 UNK         0.0600 
    202 H202       -7.1164  -27.4307  -48.7371 H         1 UNK         0.0600 
    203 H203       -6.5161  -27.9211  -47.1610 H         1 UNK         0.0600 
    204 H204       -5.5315  -28.1759  -48.6009 H         1 UNK         0.0600 
    205 H205       -4.4717  -23.8602  -48.2027 H         1 UNK         0.3000 
    206 H206       -3.6995  -22.4675  -49.7355 H         1 UNK         0.0600 
    207 H207       -5.9635  -22.3365  -50.6942 H         1 UNK         0.0600 
    208 H208       -5.6698  -23.7514  -51.6972 H         1 UNK         0.0600 
    209 H209       -4.7686  -22.2730  -51.9809 H         1 UNK         0.0600 
    210 H210       -2.2357  -24.5902  -49.0604 H         1 UNK         0.3000 
    211 H211       -0.5079  -25.9362  -49.4974 H         1 UNK         0.0600 
    212 H212        0.5104  -23.8161  -50.3300 H         1 UNK         0.0600 
    213 H213        1.1266  -25.2037  -51.2141 H         1 UNK         0.0600 
    214 H214       -0.0726  -24.1551  -51.9581 H         1 UNK         0.0600 
    215 H215       -2.6789  -27.2456  -49.9690 H         1 UNK         0.3000 
    216 H216       -3.8316  -28.8091  -51.0108 H         1 UNK         0.0600 
    217 H217       -2.6117  -30.5556  -52.2620 H         1 UNK         0.0600 
    218 H218       -1.2264  -29.4947  -52.4763 H         1 UNK         0.0600 
    219 H219       -1.6705  -30.0575  -50.8655 H         1 UNK         0.0600 
    220 H220       -4.3681  -26.4114  -51.9579 H         1 UNK         0.3000 
    221 H221       -5.3026  -25.1679  -53.4900 H         1 UNK         0.0600 
    222 H222       -5.7738  -27.7281  -55.0981 H         1 UNK         0.0600 
    223 H223       -6.7755  -27.1745  -53.7561 H         1 UNK         0.0600 
    224 H224       -6.6773  -26.2262  -55.2288 H         1 UNK         0.0600 
    225 H225       -2.3194  -25.7898  -53.8485 H         1 UNK         0.3000 
    226 H226       -1.8538  -25.3302  -56.7000 H         1 UNK         0.0600 
    227 H227       -0.2802  -26.6874  -55.2903 H         1 UNK         0.0600 
    228 H228        0.5127  -25.3208  -56.0611 H         1 UNK         0.0600 
    229 H229        0.1064  -25.2430  -54.3534 H         1 UNK         0.0600 
    230 H230       -2.1523  -23.3527  -53.7550 H         1 UNK         0.3000 
    231 H231       -0.9776  -20.9607  -54.9895 H         1 UNK         0.0600 
    232 H232       -1.4896  -19.9137  -52.8373 H         1 UNK         0.0600 
    233 H233       -0.7115  -21.4599  -52.5377 H         1 UNK         0.0600 
    234 H234       -2.4526  -21.2920  -52.3237 H         1 UNK         0.0600 
    235 H235       -2.1195  -19.5515  -56.2141 H         1 UNK         0.3000 
    236 H236       -4.8345  -19.8909  -56.9237 H         1 UNK         0.0600 
    237 H237       -3.1549  -18.8071  -58.3924 H         1 UNK         0.0600 
    238 H238       -4.5054  -17.7185  -58.1191 H         1 UNK         0.0600 
    239 H239       -2.9906  -17.4629  -57.2614 H         1 UNK         0.0600 
    240 H240       -3.3492  -17.9636  -54.3872 H         1 UNK         0.3000 
    241 H241       -5.8075  -16.6128  -53.6039 H         1 UNK         0.0600 
    242 H242       -5.0025  -19.8977  -53.2157 H         1 UNK         0.3800 
    243 H243       -5.8812  -20.1059  -51.7239 H         1 UNK         0.3800 
    244 H244       -4.0093  -15.2440  -53.1791 H         1 UNK         0.0800 
    245 H245       -4.3391  -15.8609  -51.6010 H         1 UNK         0.0800 
    246 H246       -1.1448  -18.0859  -50.9054 H         1 UNK         0.0800 
    247 H247       -2.8048  -18.5591  -51.1558 H         1 UNK         0.0800 
@<TRIPOS>BOND
     1    1    2 1    
     2    1  127 1    
     3    1  128 1    
     4    1  129 1    
     5    2    3 2    
     6    2    4 am   BACKBONE|DICT|INTERRES
     7    4    5 1    
     8    4  130 1    
     9    5    6 1    
    10    5   65 1    
    11    5  131 1    
    12    6    7 1    
    13    6  132 1    
    14    6  133 1    
    15    7    8 1    
    16    8    9 1    
    17    8  134 1    
    18    8  135 1    
    19    9   10 ar   
    20    9   14 ar   
    21   10   11 ar   
    22   10  136 1    
    23   11   12 ar   
    24   11  126 1    
    25   12   13 ar   
    26   12  137 1    
    27   13   14 ar   
    28   13   15 1    
    29   14  138 1    
    30   15   16 1    
    31   15  139 1    
    32   15  140 1    
    33   16   17 1    
    34   17   18 1    
    35   17  141 1    
    36   17  142 1    
    37   18   19 1    
    38   18   67 1    
    39   18  143 1    
    40   19   20 am   BACKBONE|DICT|INTERRES
    41   19  144 1    
    42   20   21 2    
    43   20   22 1    
    44   22   23 1    
    45   22   24 1    
    46   22  145 1    
    47   23  146 1    
    48   23  147 1    
    49   23  148 1    
    50   24   25 am   BACKBONE|DICT|INTERRES
    51   24  149 1    
    52   25   26 2    
    53   25   27 1    
    54   27   28 1    
    55   27   29 1    
    56   27  150 1    
    57   28  151 1    
    58   28  152 1    
    59   28  153 1    
    60   29   30 am   BACKBONE|DICT|INTERRES
    61   29  154 1    
    62   30   31 2    
    63   30   32 1    
    64   32   33 1    
    65   32   34 1    
    66   32  155 1    
    67   33  156 1    
    68   33  157 1    
    69   33  158 1    
    70   34   35 am   BACKBONE|DICT|INTERRES
    71   34  159 1    
    72   35   36 2    
    73   35   37 1    
    74   37   38 1    
    75   37   39 1    
    76   37  160 1    
    77   38  161 1    
    78   38  162 1    
    79   38  163 1    
    80   39   40 am   BACKBONE|DICT|INTERRES
    81   39  164 1    
    82   40   41 2    
    83   40   42 1    
    84   42   43 1    
    85   42   44 1    
    86   42  165 1    
    87   43  166 1    
    88   43  167 1    
    89   43  168 1    
    90   44   45 am   BACKBONE|DICT|INTERRES
    91   44  169 1    
    92   45   46 2    
    93   45   47 1    
    94   47   48 1    
    95   47   49 1    
    96   47  170 1    
    97   48  171 1    
    98   48  172 1    
    99   48  173 1    
   100   49   50 am   BACKBONE|DICT|INTERRES
   101   49  174 1    
   102   50   51 2    
   103   50   52 1    
   104   52   53 1    
   105   52   54 1    
   106   52  175 1    
   107   53  176 1    
   108   53  177 1    
   109   53  178 1    
   110   54   55 am   BACKBONE|DICT|INTERRES
   111   54  179 1    
   112   55   56 2    
   113   55   57 1    
   114   57   58 1    
   115   57   59 1    
   116   57  180 1    
   117   58  181 1    
   118   58  182 1    
   119   58  183 1    
   120   59   60 am   BACKBONE|DICT|INTERRES
   121   59  184 1    
   122   60   61 2    
   123   60   62 1    
   124   62   63 1    
   125   62   64 1    
   126   62  185 1    
   127   63  186 1    
   128   63  187 1    
   129   63  188 1    
   130   64   65 am   BACKBONE|DICT|INTERRES
   131   64  189 1    
   132   65   66 2    
   133   67   68 2    
   134   67   69 am   BACKBONE|DICT|INTERRES
   135   69   70 1    
   136   69  190 1    
   137   70   71 1    
   138   70   72 1    
   139   70  191 1    
   140   71  192 1    
   141   71  193 1    
   142   71  194 1    
   143   72   73 2    
   144   72   74 am   BACKBONE|DICT|INTERRES
   145   74   75 1    
   146   74  195 1    
   147   75   76 1    
   148   75   77 1    
   149   75  196 1    
   150   76  197 1    
   151   76  198 1    
   152   76  199 1    
   153   77   78 2    
   154   77   79 am   BACKBONE|DICT|INTERRES
   155   79   80 1    
   156   79  200 1    
   157   80   81 1    
   158   80   82 1    
   159   80  201 1    
   160   81  202 1    
   161   81  203 1    
   162   81  204 1    
   163   82   83 2    
   164   82   84 am   BACKBONE|DICT|INTERRES
   165   84   85 1    
   166   84  205 1    
   167   85   86 1    
   168   85   87 1    
   169   85  206 1    
   170   86  207 1    
   171   86  208 1    
   172   86  209 1    
   173   87   88 2    
   174   87   89 am   BACKBONE|DICT|INTERRES
   175   89   90 1    
   176   89  210 1    
   177   90   91 1    
   178   90   92 1    
   179   90  211 1    
   180   91  212 1    
   181   91  213 1    
   182   91  214 1    
   183   92   93 2    
   184   92   94 am   BACKBONE|DICT|INTERRES
   185   94   95 1    
   186   94  215 1    
   187   95   96 1    
   188   95   97 1    
   189   95  216 1    
   190   96  217 1    
   191   96  218 1    
   192   96  219 1    
   193   97   98 2    
   194   97   99 am   BACKBONE|DICT|INTERRES
   195   99  100 1    
   196   99  220 1    
   197  100  101 1    
   198  100  102 1    
   199  100  221 1    
   200  101  222 1    
   201  101  223 1    
   202  101  224 1    
   203  102  103 2    
   204  102  104 am   BACKBONE|DICT|INTERRES
   205  104  105 1    
   206  104  225 1    
   207  105  106 1    
   208  105  107 1    
   209  105  226 1    
   210  106  227 1    
   211  106  228 1    
   212  106  229 1    
   213  107  108 2    
   214  107  109 am   BACKBONE|DICT|INTERRES
   215  109  110 1    
   216  109  230 1    
   217  110  111 1    
   218  110  112 1    
   219  110  231 1    
   220  111  232 1    
   221  111  233 1    
   222  111  234 1    
   223  112  113 2    
   224  112  114 am   BACKBONE|DICT|INTERRES
   225  114  115 1    
   226  114  235 1    
   227  115  116 1    
   228  115  117 1    
   229  115  236 1    
   230  116  237 1    
   231  116  238 1    
   232  116  239 1    
   233  117  118 2    
   234  117  119 am   BACKBONE|DICT|INTERRES
   235  119  120 1    
   236  119  240 1    
   237  120  121 1    
   238  120  124 1    
   239  120  241 1    
   240  121  122 am   BACKBONE|DICT|INTERRES
   241  121  123 2    
   242  122  242 1    
   243  122  243 1    
   244  124  125 1    
   245  124  244 1    
   246  124  245 1    
   247  125  126 1    
   248  126  246 1    
   249  126  247 1    
@<TRIPOS>SUBSTRUCTURE
     1 UNK         1 GROUP             0       ****    0 ROOT    
