@<TRIPOS>MOLECULE
3R540
247   249    1
SMALL
USER_CHARGES


@<TRIPOS>ATOM
      1 CA         -1.5646  -10.3078  -47.2752 C.3       0 UNK        -0.1800 
      2 C          -1.1244  -11.6716  -46.7476 C.2       0 UNK         0.5000 
      3 O          -1.8277  -12.2501  -45.9234 O.2       0 UNK        -0.5000 
      4 N           0.0105  -12.2278  -47.1916 N.am      1 UNK        -0.5000 
      5 CA          0.9760  -11.6401  -48.1283 C.3       1 UNK         0.1400 
      6 C6          1.5920  -12.7213  -49.0591 C.3       23 UNK        -0.0398 
      7 S7          2.6540  -13.9384  -48.2029 S.3       23 UNK        -0.2404 
      8 C8          1.5416  -15.3664  -48.0741 C.3       23 UNK        -0.0205 
      9 C9          1.7650  -16.3829  -49.1818 C.ar      23 UNK        -0.0193 
     10 C10         1.2509  -16.1661  -50.4634 C.ar      23 UNK        -0.1150 
     11 C11         1.4307  -17.1075  -51.4826 C.ar      23 UNK        -0.0193 
     12 C12         2.1311  -18.2857  -51.1926 C.ar      23 UNK        -0.1150 
     13 C13         2.6276  -18.5299  -49.9093 C.ar      23 UNK        -0.0193 
     14 C14         2.4556  -17.5659  -48.9125 C.ar      23 UNK        -0.1150 
     15 C15         3.3555  -19.8354  -49.6120 C.3       23 UNK        -0.0205 
     16 S16         2.6786  -20.7210  -48.1692 S.3       23 UNK        -0.2404 
     17 C17         0.9293  -20.9535  -48.6413 C.3       23 UNK        -0.0398 
     18 CA          0.2735  -22.0974  -47.8339 C.3       11 UNK         0.1400 
     19 N           0.2014  -21.8121  -46.3983 N.am      11 UNK        -0.5000 
     20 C          -0.0602  -22.7354  -45.4637 C.2       10 UNK         0.5000 
     21 O          -0.2468  -23.9259  -45.7166 O.2       10 UNK        -0.5000 
     22 CA         -0.1780  -22.2439  -44.0102 C.3       10 UNK         0.1400 
     23 CB          1.2096  -22.0007  -43.3985 C.3       10 UNK        -0.1800 
     24 N          -0.9976  -21.0374  -43.8859 N.am      10 UNK        -0.5000 
     25 C          -2.3030  -20.9772  -44.1867 C.2       9 UNK         0.5000 
     26 O          -2.9579  -21.9438  -44.5750 O.2       9 UNK        -0.5000 
     27 CA         -2.9886  -19.6038  -44.0727 C.3       9 UNK         0.1400 
     28 CB         -3.3490  -19.2909  -42.6129 C.3       9 UNK        -0.1800 
     29 N          -2.1810  -18.5156  -44.6202 N.am      9 UNK        -0.5000 
     30 C          -1.7955  -18.4148  -45.9001 C.2       8 UNK         0.5000 
     31 O          -2.1004  -19.2196  -46.7793 O.2       8 UNK        -0.5000 
     32 CA         -0.8527  -17.2475  -46.2364 C.3       8 UNK         0.1400 
     33 CB         -1.6238  -15.9175  -46.2971 C.3       8 UNK        -0.1800 
     34 N           0.2536  -17.1442  -45.2828 N.am      8 UNK        -0.5000 
     35 C           1.1550  -18.1140  -45.0623 C.2       7 UNK         0.5000 
     36 O           1.1668  -19.1866  -45.6618 O.2       7 UNK        -0.5000 
     37 CA          2.1759  -17.8708  -43.9396 C.3       7 UNK         0.1400 
     38 CB          3.3505  -17.0126  -44.4358 C.3       7 UNK        -0.1800 
     39 N           1.5508  -17.2478  -42.7731 N.am      7 UNK        -0.5000 
     40 C           0.6494  -17.8562  -41.9869 C.2       6 UNK         0.5000 
     41 O           0.3058  -19.0302  -42.1201 O.2       6 UNK        -0.5000 
     42 CA         -0.0199  -16.9868  -40.9068 C.3       6 UNK         0.1400 
     43 CB          0.8583  -16.9121  -39.6491 C.3       6 UNK        -0.1800 
     44 N          -0.3002  -15.6321  -41.3853 N.am      6 UNK        -0.5000 
     45 C          -1.1705  -15.3357  -42.3624 C.2       5 UNK         0.5000 
     46 O          -1.8953  -16.1715  -42.9004 O.2       5 UNK        -0.5000 
     47 CA         -1.1906  -13.8754  -42.8546 C.3       5 UNK         0.1400 
     48 CB         -2.2359  -13.0563  -42.0841 C.3       5 UNK        -0.1800 
     49 N           0.1220  -13.2347  -42.7297 N.am      5 UNK        -0.5000 
     50 C           1.1809  -13.5414  -43.4896 C.2       4 UNK         0.5000 
     51 O           1.1327  -14.3010  -44.4620 O.2       4 UNK        -0.5000 
     52 CA          2.5304  -12.9845  -43.0153 C.3       4 UNK         0.1400 
     53 CB          3.0365  -13.8246  -41.8205 C.3       4 UNK        -0.1800 
     54 N           3.4830  -13.0213  -44.1218 N.am      4 UNK        -0.5000 
     55 C           4.7431  -12.5676  -44.0978 C.2       3 UNK         0.5000 
     56 O           5.2733  -12.0500  -43.1140 O.2       3 UNK        -0.5000 
     57 CA          5.5376  -12.6797  -45.4106 C.3       3 UNK         0.1400 
     58 CB          5.6137  -14.1317  -45.9150 C.3       3 UNK        -0.1800 
     59 N           4.9637  -11.8148  -46.4409 N.am      3 UNK        -0.5000 
     60 C           5.0487  -10.4749  -46.4353 C.2       2 UNK         0.5000 
     61 O           5.7136   -9.8366  -45.6183 O.2       2 UNK        -0.5000 
     62 CA          4.2639   -9.7056  -47.5186 C.3       2 UNK         0.1400 
     63 CB          5.1951   -9.3055  -48.6735 C.3       2 UNK        -0.1800 
     64 N           3.1230  -10.4437  -48.0651 N.am      2 UNK        -0.5000 
     65 C           2.0306  -10.7957  -47.3726 C.2       1 UNK         0.5000 
     66 O           1.8522  -10.4858  -46.1918 O.2       1 UNK        -0.5000 
     67 C          -1.1036  -22.4941  -48.4055 C.2       11 UNK         0.5000 
     68 O          -1.1673  -23.4195  -49.2132 O.2       11 UNK        -0.5000 
     69 N          -2.1862  -21.8521  -47.9376 N.am      12 UNK        -0.5000 
     70 CA         -3.5638  -22.2028  -48.2928 C.3       12 UNK         0.1400 
     71 CB         -4.5401  -21.1479  -47.7507 C.3       12 UNK        -0.1800 
     72 C          -3.9570  -23.6064  -47.8012 C.2       12 UNK         0.5000 
     73 O          -4.5836  -24.3529  -48.5521 O.2       12 UNK        -0.5000 
     74 N          -3.5513  -23.9568  -46.5725 N.am      13 UNK        -0.5000 
     75 CA         -3.7304  -25.2861  -45.9885 C.3       13 UNK         0.1400 
     76 CB         -3.3532  -25.2597  -44.4999 C.3       13 UNK        -0.1800 
     77 C          -2.9386  -26.3699  -46.7415 C.2       13 UNK         0.5000 
     78 O          -3.4879  -27.4384  -47.0096 O.2       13 UNK        -0.5000 
     79 N          -1.6895  -26.0622  -47.1219 N.am      14 UNK        -0.5000 
     80 CA         -0.8378  -26.9202  -47.9524 C.3       14 UNK         0.1400 
     81 CB          0.5801  -26.3333  -48.0164 C.3       14 UNK        -0.1800 
     82 C          -1.4067  -27.1394  -49.3692 C.2       14 UNK         0.5000 
     83 O          -1.2990  -28.2426  -49.9051 O.2       14 UNK        -0.5000 
     84 N          -2.0470  -26.1022  -49.9250 N.am      15 UNK        -0.5000 
     85 CA         -2.7928  -26.1357  -51.1845 C.3       15 UNK         0.1400 
     86 CB         -2.9087  -24.7013  -51.7315 C.3       15 UNK        -0.1800 
     87 C          -4.1905  -26.7808  -51.0595 C.2       15 UNK         0.5000 
     88 O          -4.9051  -26.8412  -52.0593 O.2       15 UNK        -0.5000 
     89 N          -4.5833  -27.2152  -49.8510 N.am      16 UNK        -0.5000 
     90 CA         -5.8752  -27.8171  -49.4964 C.3       16 UNK         0.1400 
     91 CB         -6.0131  -29.2133  -50.1378 C.3       16 UNK        -0.1800 
     92 C          -7.0793  -26.8966  -49.7956 C.2       16 UNK         0.5000 
     93 O          -8.1546  -27.3802  -50.1536 O.2       16 UNK        -0.5000 
     94 N          -6.8589  -25.5800  -49.6636 N.am      17 UNK        -0.5000 
     95 CA         -7.7754  -24.4751  -49.9581 C.3       17 UNK         0.1400 
     96 CB         -8.9916  -24.5020  -49.0095 C.3       17 UNK        -0.1800 
     97 C          -8.1806  -24.3618  -51.4454 C.2       17 UNK         0.5000 
     98 O          -9.1614  -23.6821  -51.7525 O.2       17 UNK        -0.5000 
     99 N          -7.4184  -24.9925  -52.3535 N.am      18 UNK        -0.5000 
    100 CA        -7.6407  -24.9311  -53.8022 C.3       18 UNK         0.1400 
    101 CB        -6.9045  -26.0961  -54.4805 C.3       18 UNK        -0.1800 
    102 C         -7.2087  -23.5883  -54.4248 C.2       18 UNK         0.5000 
    103 O         -7.6335  -23.2748  -55.5378 O.2       18 UNK        -0.5000 
    104 N         -6.3830  -22.8228  -53.7033 N.am      19 UNK        -0.5000 
    105 CA        -5.9373  -21.4823  -54.0549 C.3       19 UNK         0.1400 
    106 CB        -4.5329  -21.5583  -54.6768 C.3       19 UNK        -0.1800 
    107 C         -5.9176  -20.6269  -52.7828 C.2       19 UNK         0.5000 
    108 O         -5.7219  -21.1597  -51.6856 O.2       19 UNK        -0.5000 
    109 N         -6.0820  -19.3105  -52.9574 N.am      20 UNK        -0.5000 
    110 CA        -5.9214  -18.3010  -51.9132 C.3       20 UNK         0.1400 
    111 CB        -6.6294  -17.0080  -52.3524 C.3       20 UNK        -0.1800 
    112 C         -4.4203  -18.0841  -51.6596 C.2       20 UNK         0.5000 
    113 O         -3.7969  -17.2579  -52.3327 O.2       20 UNK        -0.5000 
    114 N         -3.8574  -18.9150  -50.7720 N.am      21 UNK        -0.5000 
    115 CA        -2.4361  -19.0921  -50.4476 C.3       21 UNK         0.1400 
    116 CB        -1.8038  -17.7993  -49.9035 C.3       21 UNK        -0.1800 
    117 C         -1.6332  -19.6872  -51.6185 C.2       21 UNK         0.5000 
    118 O         -1.0760  -20.7757  -51.4903 O.2       21 UNK        -0.5000 
    119 N         -1.6379  -18.9788  -52.7476 N.am      22 UNK        -0.5000 
    120 CA        -1.0938  -19.3876  -54.0445 C.3       22 UNK         0.1400 
    121 C         -1.7437  -18.6501  -55.2520 C.2       22 UNK         0.5000 
    122 N         -2.7377  -17.7854  -55.0635 N.am      22 UNK        -0.7600 
    123 O         -1.3627  -18.8899  -56.3942 O.2       22 UNK        -0.5000 
    124 C124        0.4607  -19.4319  -54.0751 C.3       23 UNK        -0.0398 
    125 S125        1.3662  -17.8456  -54.2606 S.3       23 UNK        -0.2404 
    126 C126        0.8355  -16.7948  -52.8590 C.3       23 UNK        -0.0205 
    127 H127       -1.8142  -10.3674  -48.3345 H         1 UNK         0.0600 
    128 H128       -0.7823   -9.5618  -47.1361 H         1 UNK         0.0600 
    129 H129       -2.4503   -9.9603  -46.7429 H         1 UNK         0.0600 
    130 H130        0.3111  -13.0923  -46.7650 H         1 UNK         0.3000 
    131 H131        0.4551  -10.9432  -48.7859 H         1 UNK         0.0600 
    132 H132        2.1822  -12.2581  -49.8508 H         1 UNK         0.0800 
    133 H133        0.7893  -13.2385  -49.5842 H         1 UNK         0.0800 
    134 H134        0.5025  -15.0410  -48.0838 H         1 UNK         0.0800 
    135 H135        1.7130  -15.8265  -47.1020 H         1 UNK         0.0800 
    136 H136        0.7018  -15.2596  -50.6712 H         1 UNK         0.1150 
    137 H137        2.3026  -19.0248  -51.9570 H         1 UNK         0.1150 
    138 H138        2.8434  -17.7495  -47.9202 H         1 UNK         0.1150 
    139 H139        3.3265  -20.5030  -50.4745 H         1 UNK         0.0800 
    140 H140        4.4076  -19.6156  -49.4276 H         1 UNK         0.0800 
    141 H141        0.8935  -21.1710  -49.7101 H         1 UNK         0.0800 
    142 H142        0.3913  -20.0156  -48.4921 H         1 UNK         0.0800 
    143 H143        0.9129  -22.9752  -47.9503 H         1 UNK         0.0600 
    144 H144        0.3954  -20.8541  -46.1143 H         1 UNK         0.3000 
    145 H145       -0.6647  -23.0337  -43.4342 H         1 UNK         0.0600 
    146 H146        1.1339  -21.7282  -42.3458 H         1 UNK         0.0600 
    147 H147        1.7438  -21.2023  -43.9133 H         1 UNK         0.0600 
    148 H148        1.8250  -22.8991  -43.4588 H         1 UNK         0.0600 
    149 H149       -0.5350  -20.2066  -43.5315 H         1 UNK         0.3000 
    150 H150       -3.9150  -19.6476  -44.6486 H         1 UNK         0.0600 
    151 H151       -3.9757  -20.0762  -42.1883 H         1 UNK         0.0600 
    152 H152       -3.9023  -18.3547  -42.5361 H         1 UNK         0.0600 
    153 H153       -2.4601  -19.2047  -41.9875 H         1 UNK         0.0600 
    154 H154       -1.9100  -17.7799  -43.9736 H         1 UNK         0.3000 
    155 H155       -0.4146  -17.4388  -47.2171 H         1 UNK         0.0600 
    156 H156       -2.2733  -15.7784  -45.4339 H         1 UNK         0.0600 
    157 H157       -2.2589  -15.8786  -47.1820 H         1 UNK         0.0600 
    158 H158       -0.9547  -15.0595  -46.3366 H         1 UNK         0.0600 
    159 H159        0.3364  -16.2762  -44.7680 H         1 UNK         0.3000 
    160 H160        2.5737  -18.8403  -43.6329 H         1 UNK         0.0600 
    161 H161        3.0263  -16.0297  -44.7739 H         1 UNK         0.0600 
    162 H162        3.8525  -17.4936  -45.2762 H         1 UNK         0.0600 
    163 H163        4.0948  -16.8692  -43.6525 H         1 UNK         0.0600 
    164 H164        1.7514  -16.2732  -42.6159 H         1 UNK         0.3000 
    165 H165       -0.9681  -17.4571  -40.6377 H         1 UNK         0.0600 
    166 H166        0.3622  -16.3545  -38.8546 H         1 UNK         0.0600 
    167 H167        1.0687  -17.9099  -39.2616 H         1 UNK         0.0600 
    168 H168        1.8156  -16.4298  -39.8512 H         1 UNK         0.0600 
    169 H169        0.2359  -14.8838  -40.9740 H         1 UNK         0.3000 
    170 H170       -1.4732  -13.8887  -43.9082 H         1 UNK         0.0600 
    171 H171       -3.2259  -13.5053  -42.1749 H         1 UNK         0.0600 
    172 H172       -1.9988  -12.9934  -41.0214 H         1 UNK         0.0600 
    173 H173       -2.3043  -12.0411  -42.4757 H         1 UNK         0.0600 
    174 H174        0.2367  -12.5903  -41.9605 H         1 UNK         0.3000 
    175 H175        2.3911  -11.9458  -42.7096 H         1 UNK         0.0600 
    176 H176        3.2910  -14.8406  -42.1227 H         1 UNK         0.0600 
    177 H177        3.9223  -13.3857  -41.3630 H         1 UNK         0.0600 
    178 H178        2.2874  -13.8922  -41.0312 H         1 UNK         0.0600 
    179 H179        3.1047  -13.4165  -44.9731 H         1 UNK         0.3000 
    180 H180        6.5592  -12.3473  -45.2132 H         1 UNK         0.0600 
    181 H181        6.2188  -14.2024  -46.8190 H         1 UNK         0.0600 
    182 H182        4.6317  -14.5460  -46.1396 H         1 UNK         0.0600 
    183 H183        6.0732  -14.7776  -45.1658 H         1 UNK         0.0600 
    184 H184        4.3930  -12.2600  -47.1452 H         1 UNK         0.3000 
    185 H185        3.8818   -8.7929  -47.0565 H         1 UNK         0.0600 
    186 H186        5.5934  -10.1795  -49.1904 H         1 UNK         0.0600 
    187 H187        4.6741   -8.6889  -49.4062 H         1 UNK         0.0600 
    188 H188        6.0438   -8.7253  -48.3085 H         1 UNK         0.0600 
    189 H189        3.2043  -10.7252  -49.0310 H         1 UNK         0.3000 
    190 H190       -2.0653  -21.0697  -47.2996 H         1 UNK         0.3000 
    191 H191       -3.6367  -22.1998  -49.3825 H         1 UNK         0.0600 
    192 H192       -4.3063  -20.1533  -48.1279 H         1 UNK         0.0600 
    193 H193       -4.5197  -21.1018  -46.6620 H         1 UNK         0.0600 
    194 H194       -5.5637  -21.3761  -48.0506 H         1 UNK         0.0600 
    195 H195       -3.0948  -23.2613  -45.9887 H         1 UNK         0.3000 
    196 H196       -4.7899  -25.5402  -46.0624 H         1 UNK         0.0600 
    197 H197       -3.9708  -24.5488  -43.9508 H         1 UNK         0.0600 
    198 H198       -2.3105  -24.9795  -44.3508 H         1 UNK         0.0600 
    199 H199       -3.4993  -26.2390  -44.0426 H         1 UNK         0.0600 
    200 H200       -1.2889  -25.1806  -46.8141 H         1 UNK         0.3000 
    201 H201       -0.7780  -27.8960  -47.4661 H         1 UNK         0.0600 
    202 H202        1.0051  -26.2177  -47.0192 H         1 UNK         0.0600 
    203 H203        0.5908  -25.3570  -48.5001 H         1 UNK         0.0600 
    204 H204        1.2466  -26.9859  -48.5815 H         1 UNK         0.0600 
    205 H205       -2.0171  -25.2060  -49.4482 H         1 UNK         0.3000 
    206 H206       -2.2283  -26.7285  -51.9067 H         1 UNK         0.0600 
    207 H207       -3.4916  -24.0630  -51.0674 H         1 UNK         0.0600 
    208 H208       -1.9266  -24.2440  -51.8542 H         1 UNK         0.0600 
    209 H209       -3.3951  -24.6875  -52.7078 H         1 UNK         0.0600 
    210 H210       -3.9432  -27.0966  -49.0753 H         1 UNK         0.3000 
    211 H211       -5.8616  -27.9512  -48.4141 H         1 UNK         0.0600 
    212 H212       -6.0955  -29.1536  -51.2235 H         1 UNK         0.0600 
    213 H213       -6.9014  -29.7278  -49.7699 H         1 UNK         0.0600 
    214 H214       -5.1545  -29.8415  -49.9004 H         1 UNK         0.0600 
    215 H215       -5.9375  -25.2855  -49.3414 H         1 UNK         0.3000 
    216 H216       -7.2137  -23.5656  -49.7394 H         1 UNK         0.0600 
    217 H217       -9.5878  -23.5944  -49.1103 H         1 UNK         0.0600 
    218 H218       -8.6770  -24.5662  -47.9678 H         1 UNK         0.0600 
    219 H219       -9.6483  -25.3474  -49.2156 H         1 UNK         0.0600 
    220 H220       -6.6350  -25.5553  -52.0410 H         1 UNK         0.3000 
    221 H221       -8.7092  -25.0533  -53.9910 H         1 UNK         0.0600 
    222 H222       -5.8223  -25.9882  -54.4009 H         1 UNK         0.0600 
    223 H223       -7.1814  -27.0529  -54.0372 H         1 UNK         0.0600 
    224 H224       -7.1492  -26.1455  -55.5421 H         1 UNK         0.0600 
    225 H225       -6.1285  -23.1207  -52.7711 H         1 UNK         0.3000 
    226 H226       -6.6297  -21.0288  -54.7674 H         1 UNK         0.0600 
    227 H227       -4.5321  -22.1776  -55.5739 H         1 UNK         0.0600 
    228 H228       -4.1794  -20.5681  -54.9655 H         1 UNK         0.0600 
    229 H229       -3.8060  -21.9776  -53.9795 H         1 UNK         0.0600 
    230 H230       -6.2135  -18.9571  -53.8943 H         1 UNK         0.3000 
    231 H231       -6.3909  -18.6491  -50.9904 H         1 UNK         0.0600 
    232 H232       -6.5069  -16.2243  -51.6038 H         1 UNK         0.0600 
    233 H233       -7.6998  -17.1706  -52.4802 H         1 UNK         0.0600 
    234 H234       -6.2350  -16.6262  -53.2950 H         1 UNK         0.0600 
    235 H235       -4.4660  -19.6205  -50.3780 H         1 UNK         0.3000 
    236 H236       -2.4022  -19.8221  -49.6420 H         1 UNK         0.0600 
    237 H237       -1.7495  -17.0109  -50.6538 H         1 UNK         0.0600 
    238 H238       -2.3716  -17.4163  -49.0567 H         1 UNK         0.0600 
    239 H239       -0.7891  -17.9917  -49.5559 H         1 UNK         0.0600 
    240 H240       -2.1735  -18.1177  -52.7414 H         1 UNK         0.3000 
    241 H241       -1.4278  -20.4184  -54.1771 H         1 UNK         0.0600 
    242 H242       -3.1344  -17.3330  -55.8719 H         1 UNK         0.3800 
    243 H243       -3.1095  -17.5625  -54.1484 H         1 UNK         0.3800 
    244 H244        0.7665  -20.0508  -54.9198 H         1 UNK         0.0800 
    245 H245        0.8317  -19.9677  -53.2039 H         1 UNK         0.0800 
    246 H246        1.1223  -15.7742  -53.1165 H         1 UNK         0.0800 
    247 H247       -0.2508  -16.7790  -52.7938 H         1 UNK         0.0800 
@<TRIPOS>BOND
     1    1    2 1    
     2    1  127 1    
     3    1  128 1    
     4    1  129 1    
     5    2    3 2    
     6    2    4 am   BACKBONE|DICT|INTERRES
     7    4    5 1    
     8    4  130 1    
     9    5    6 1    
    10    5   65 1    
    11    5  131 1    
    12    6    7 1    
    13    6  132 1    
    14    6  133 1    
    15    7    8 1    
    16    8    9 1    
    17    8  134 1    
    18    8  135 1    
    19    9   10 ar   
    20    9   14 ar   
    21   10   11 ar   
    22   10  136 1    
    23   11   12 ar   
    24   11  126 1    
    25   12   13 ar   
    26   12  137 1    
    27   13   14 ar   
    28   13   15 1    
    29   14  138 1    
    30   15   16 1    
    31   15  139 1    
    32   15  140 1    
    33   16   17 1    
    34   17   18 1    
    35   17  141 1    
    36   17  142 1    
    37   18   19 1    
    38   18   67 1    
    39   18  143 1    
    40   19   20 am   BACKBONE|DICT|INTERRES
    41   19  144 1    
    42   20   21 2    
    43   20   22 1    
    44   22   23 1    
    45   22   24 1    
    46   22  145 1    
    47   23  146 1    
    48   23  147 1    
    49   23  148 1    
    50   24   25 am   BACKBONE|DICT|INTERRES
    51   24  149 1    
    52   25   26 2    
    53   25   27 1    
    54   27   28 1    
    55   27   29 1    
    56   27  150 1    
    57   28  151 1    
    58   28  152 1    
    59   28  153 1    
    60   29   30 am   BACKBONE|DICT|INTERRES
    61   29  154 1    
    62   30   31 2    
    63   30   32 1    
    64   32   33 1    
    65   32   34 1    
    66   32  155 1    
    67   33  156 1    
    68   33  157 1    
    69   33  158 1    
    70   34   35 am   BACKBONE|DICT|INTERRES
    71   34  159 1    
    72   35   36 2    
    73   35   37 1    
    74   37   38 1    
    75   37   39 1    
    76   37  160 1    
    77   38  161 1    
    78   38  162 1    
    79   38  163 1    
    80   39   40 am   BACKBONE|DICT|INTERRES
    81   39  164 1    
    82   40   41 2    
    83   40   42 1    
    84   42   43 1    
    85   42   44 1    
    86   42  165 1    
    87   43  166 1    
    88   43  167 1    
    89   43  168 1    
    90   44   45 am   BACKBONE|DICT|INTERRES
    91   44  169 1    
    92   45   46 2    
    93   45   47 1    
    94   47   48 1    
    95   47   49 1    
    96   47  170 1    
    97   48  171 1    
    98   48  172 1    
    99   48  173 1    
   100   49   50 am   BACKBONE|DICT|INTERRES
   101   49  174 1    
   102   50   51 2    
   103   50   52 1    
   104   52   53 1    
   105   52   54 1    
   106   52  175 1    
   107   53  176 1    
   108   53  177 1    
   109   53  178 1    
   110   54   55 am   BACKBONE|DICT|INTERRES
   111   54  179 1    
   112   55   56 2    
   113   55   57 1    
   114   57   58 1    
   115   57   59 1    
   116   57  180 1    
   117   58  181 1    
   118   58  182 1    
   119   58  183 1    
   120   59   60 am   BACKBONE|DICT|INTERRES
   121   59  184 1    
   122   60   61 2    
   123   60   62 1    
   124   62   63 1    
   125   62   64 1    
   126   62  185 1    
   127   63  186 1    
   128   63  187 1    
   129   63  188 1    
   130   64   65 am   BACKBONE|DICT|INTERRES
   131   64  189 1    
   132   65   66 2    
   133   67   68 2    
   134   67   69 am   BACKBONE|DICT|INTERRES
   135   69   70 1    
   136   69  190 1    
   137   70   71 1    
   138   70   72 1    
   139   70  191 1    
   140   71  192 1    
   141   71  193 1    
   142   71  194 1    
   143   72   73 2    
   144   72   74 am   BACKBONE|DICT|INTERRES
   145   74   75 1    
   146   74  195 1    
   147   75   76 1    
   148   75   77 1    
   149   75  196 1    
   150   76  197 1    
   151   76  198 1    
   152   76  199 1    
   153   77   78 2    
   154   77   79 am   BACKBONE|DICT|INTERRES
   155   79   80 1    
   156   79  200 1    
   157   80   81 1    
   158   80   82 1    
   159   80  201 1    
   160   81  202 1    
   161   81  203 1    
   162   81  204 1    
   163   82   83 2    
   164   82   84 am   BACKBONE|DICT|INTERRES
   165   84   85 1    
   166   84  205 1    
   167   85   86 1    
   168   85   87 1    
   169   85  206 1    
   170   86  207 1    
   171   86  208 1    
   172   86  209 1    
   173   87   88 2    
   174   87   89 am   BACKBONE|DICT|INTERRES
   175   89   90 1    
   176   89  210 1    
   177   90   91 1    
   178   90   92 1    
   179   90  211 1    
   180   91  212 1    
   181   91  213 1    
   182   91  214 1    
   183   92   93 2    
   184   92   94 am   BACKBONE|DICT|INTERRES
   185   94   95 1    
   186   94  215 1    
   187   95   96 1    
   188   95   97 1    
   189   95  216 1    
   190   96  217 1    
   191   96  218 1    
   192   96  219 1    
   193   97   98 2    
   194   97   99 am   BACKBONE|DICT|INTERRES
   195   99  100 1    
   196   99  220 1    
   197  100  101 1    
   198  100  102 1    
   199  100  221 1    
   200  101  222 1    
   201  101  223 1    
   202  101  224 1    
   203  102  103 2    
   204  102  104 am   BACKBONE|DICT|INTERRES
   205  104  105 1    
   206  104  225 1    
   207  105  106 1    
   208  105  107 1    
   209  105  226 1    
   210  106  227 1    
   211  106  228 1    
   212  106  229 1    
   213  107  108 2    
   214  107  109 am   BACKBONE|DICT|INTERRES
   215  109  110 1    
   216  109  230 1    
   217  110  111 1    
   218  110  112 1    
   219  110  231 1    
   220  111  232 1    
   221  111  233 1    
   222  111  234 1    
   223  112  113 2    
   224  112  114 am   BACKBONE|DICT|INTERRES
   225  114  115 1    
   226  114  235 1    
   227  115  116 1    
   228  115  117 1    
   229  115  236 1    
   230  116  237 1    
   231  116  238 1    
   232  116  239 1    
   233  117  118 2    
   234  117  119 am   BACKBONE|DICT|INTERRES
   235  119  120 1    
   236  119  240 1    
   237  120  121 1    
   238  120  124 1    
   239  120  241 1    
   240  121  122 am   BACKBONE|DICT|INTERRES
   241  121  123 2    
   242  122  242 1    
   243  122  243 1    
   244  124  125 1    
   245  124  244 1    
   246  124  245 1    
   247  125  126 1    
   248  126  246 1    
   249  126  247 1    
@<TRIPOS>SUBSTRUCTURE
     1 UNK         1 GROUP             0       ****    0 ROOT    
