@<TRIPOS>MOLECULE
3R540
247   249    1
SMALL
USER_CHARGES


@<TRIPOS>ATOM
      1 CA         -1.1108  -13.6187  -49.3756 C.3       0 UNK        -0.1800 
      2 C           0.1796  -12.8460  -49.1382 C.2       0 UNK         0.5000 
      3 O           0.3891  -11.8024  -49.7572 O.2       0 UNK        -0.5000 
      4 N           1.0459  -13.3545  -48.2535 N.am      1 UNK        -0.5000 
      5 CA          2.3026  -12.7129  -47.8564 C.3       1 UNK         0.1400 
      6 C6          3.2847  -13.7055  -47.1858 C.3       23 UNK        -0.0398 
      7 S7          3.8058  -15.0485  -48.3074 S.3       23 UNK        -0.2404 
      8 C8          2.9172  -16.4814  -47.6178 C.3       23 UNK        -0.0205 
      9 C9          2.3203  -17.3486  -48.7156 C.ar      23 UNK        -0.0193 
     10 C10         1.2834  -16.8510  -49.5083 C.ar      23 UNK        -0.1150 
     11 C11         0.7116  -17.6340  -50.5121 C.ar      23 UNK        -0.0193 
     12 C12         1.1913  -18.9283  -50.7286 C.ar      23 UNK        -0.1150 
     13 C13         2.2143  -19.4492  -49.9299 C.ar      23 UNK        -0.0193 
     14 C14         2.7777  -18.6526  -48.9266 C.ar      23 UNK        -0.1150 
     15 C15         2.7012  -20.8784  -50.1393 C.3       23 UNK        -0.0205 
     16 S16         1.3856  -22.1160  -49.8800 S.3       23 UNK        -0.2404 
     17 C17         0.7397  -21.6102  -48.2507 C.3       23 UNK        -0.0398 
     18 CA          0.0132  -22.7415  -47.4894 C.3       11 UNK         0.1400 
     19 N          -0.0954  -22.4313  -46.0623 N.am      11 UNK        -0.5000 
     20 C          -0.5136  -23.2844  -45.1182 C.2       10 UNK         0.5000 
     21 O          -0.8232  -24.4530  -45.3420 O.2       10 UNK        -0.5000 
     22 CA         -0.6616  -22.7246  -43.6930 C.3       10 UNK         0.1400 
     23 CB          0.7025  -22.6406  -42.9930 C.3       10 UNK        -0.1800 
     24 N          -1.3149  -21.4152  -43.6753 N.am      10 UNK        -0.5000 
     25 C          -2.5758  -21.1976  -44.0765 C.2       9 UNK         0.5000 
     26 O          -3.3361  -22.0927  -44.4453 O.2       9 UNK        -0.5000 
     27 CA         -3.0556  -19.7348  -44.1161 C.3       9 UNK         0.1400 
     28 CB         -3.4732  -19.2580  -42.7174 C.3       9 UNK        -0.1800 
     29 N          -2.0547  -18.8212  -44.6690 N.am      9 UNK        -0.5000 
     30 C          -1.5782  -18.8775  -45.9213 C.2       8 UNK         0.5000 
     31 O          -1.9556  -19.6921  -46.7614 O.2       8 UNK        -0.5000 
     32 CA         -0.4448  -17.8997  -46.2756 C.3       8 UNK         0.1400 
     33 CB         -0.9965  -16.4937  -46.5554 C.3       8 UNK        -0.1800 
     34 N           0.5759  -17.8408  -45.2275 N.am      8 UNK        -0.5000 
     35 C           1.3470  -18.8799  -44.8733 C.2       7 UNK         0.5000 
     36 O           1.3238  -19.9736  -45.4356 O.2       7 UNK        -0.5000 
     37 CA          2.2527  -18.6853  -43.6471 C.3       7 UNK         0.1400 
     38 CB          3.5745  -18.0091  -44.0400 C.3       7 UNK        -0.1800 
     39 N           1.5831  -17.9160  -42.5978 N.am      7 UNK        -0.5000 
     40 C           0.5694  -18.3892  -41.8567 C.2       6 UNK         0.5000 
     41 O           0.1298  -19.5339  -41.9571 O.2       6 UNK        -0.5000 
     42 CA         -0.0942  -17.4116  -40.8687 C.3       6 UNK         0.1400 
     43 CB          0.6509  -17.4123  -39.5260 C.3       6 UNK        -0.1800 
     44 N          -0.1613  -16.0443  -41.3843 N.am      6 UNK        -0.5000 
     45 C          -0.8734  -15.6661  -42.4556 C.2       5 UNK         0.5000 
     46 O          -1.6055  -16.4261  -43.0883 O.2       5 UNK        -0.5000 
     47 CA         -0.6916  -14.2114  -42.9304 C.3       5 UNK         0.1400 
     48 CB         -1.7514  -13.2978  -42.2990 C.3       5 UNK        -0.1800 
     49 N           0.6413  -13.6802  -42.6351 N.am      5 UNK        -0.5000 
     50 C           1.7847  -14.1420  -43.1558 C.2       4 UNK         0.5000 
     51 O           1.8231  -15.0576  -43.9807 O.2       4 UNK        -0.5000 
     52 CA          3.0881  -13.4965  -42.6357 C.3       4 UNK         0.1400 
     53 CB          4.3448  -14.0410  -43.3369 C.3       4 UNK        -0.1800 
     54 N           3.0844  -12.0380  -42.7480 N.am      4 UNK        -0.5000 
     55 C           2.4367  -11.1716  -41.9609 C.2       3 UNK         0.5000 
     56 O           1.7271  -11.5210  -41.0165 O.2       3 UNK        -0.5000 
     57 CA          2.5701   -9.6701  -42.2939 C.3       3 UNK         0.1400 
     58 CB          3.8646   -9.0811  -41.7016 C.3       3 UNK        -0.1800 
     59 N           2.4310   -9.3476  -43.7228 N.am      3 UNK        -0.5000 
     60 C           3.2344   -9.6813  -44.7416 C.2       2 UNK         0.5000 
     61 O           4.2917  -10.3047  -44.6178 O.2       2 UNK        -0.5000 
     62 CA          2.7531   -9.2924  -46.1503 C.3       2 UNK         0.1400 
     63 CB          3.6237   -8.1702  -46.7356 C.3       2 UNK        -0.1800 
     64 N           2.7905  -10.4510  -47.0430 N.am      2 UNK        -0.5000 
     65 C           2.0126  -11.5333  -46.9083 C.2       1 UNK         0.5000 
     66 O           1.1203  -11.6341  -46.0618 O.2       1 UNK        -0.5000 
     67 C          -1.3610  -23.0787  -48.1091 C.2       11 UNK         0.5000 
     68 O          -1.4744  -24.0676  -48.8327 O.2       11 UNK        -0.5000 
     69 N          -2.3960  -22.2950  -47.7758 N.am      12 UNK        -0.5000 
     70 CA         -3.7865  -22.5341  -48.1670 C.3       12 UNK         0.1400 
     71 CB         -4.6650  -21.3770  -47.6724 C.3       12 UNK        -0.1800 
     72 C          -4.3318  -23.8816  -47.6587 C.2       12 UNK         0.5000 
     73 O          -5.0087  -24.5835  -48.4086 O.2       12 UNK        -0.5000 
     74 N          -4.0088  -24.2286  -46.4069 N.am      13 UNK        -0.5000 
     75 CA         -4.3984  -25.4881  -45.7798 C.3       13 UNK         0.1400 
     76 CB         -4.2008  -25.3834  -44.2592 C.3       13 UNK        -0.1800 
     77 C          -3.6421  -26.7027  -46.3495 C.2       13 UNK         0.5000 
     78 O          -4.2747  -27.7025  -46.6924 O.2       13 UNK        -0.5000 
     79 N          -2.3071  -26.6120  -46.4071 N.am      14 UNK        -0.5000 
     80 CA         -1.4296  -27.7409  -46.7135 C.3       14 UNK         0.1400 
     81 CB         -0.0680  -27.5239  -46.0341 C.3       14 UNK        -0.1800 
     82 C          -1.2358  -27.9851  -48.2180 C.2       14 UNK         0.5000 
     83 O          -1.2509  -29.1415  -48.6425 O.2       14 UNK        -0.5000 
     84 N          -1.0140  -26.9124  -48.9876 N.am      15 UNK        -0.5000 
     85 CA         -0.5872  -26.9816  -50.3879 C.3       15 UNK         0.1400 
     86 CB          0.6708  -26.1127  -50.5573 C.3       15 UNK        -0.1800 
     87 C          -1.6766  -26.5372  -51.3778 C.2       15 UNK         0.5000 
     88 O          -1.5247  -26.7979  -52.5718 O.2       15 UNK        -0.5000 
     89 N          -2.7330  -25.8748  -50.8808 N.am      16 UNK        -0.5000 
     90 CA         -3.8002  -25.2160  -51.6413 C.3       16 UNK         0.1400 
     91 CB         -4.6511  -26.2343  -52.4292 C.3       16 UNK        -0.1800 
     92 C          -3.2284  -24.0899  -52.5216 C.2       16 UNK         0.5000 
     93 O          -3.2268  -24.1968  -53.7490 O.2       16 UNK        -0.5000 
     94 N          -2.7107  -23.0499  -51.8535 N.am      17 UNK        -0.5000 
     95 CA         -2.1262  -21.8306  -52.4165 C.3       17 UNK         0.1400 
     96 CB         -1.9630  -20.8092  -51.2821 C.3       17 UNK        -0.1800 
     97 C          -2.9666  -21.2165  -53.5527 C.2       17 UNK         0.5000 
     98 O          -4.0784  -20.7522  -53.2982 O.2       17 UNK        -0.5000 
     99 N          -2.4391  -21.2542  -54.7840 N.am      18 UNK        -0.5000 
    100 CA        -3.0858  -20.7992  -56.0245 C.3       18 UNK         0.1400 
    101 CB        -3.2718  -19.2672  -56.0087 C.3       18 UNK        -0.1800 
    102 C         -4.3977  -21.5532  -56.3508 C.2       18 UNK         0.5000 
    103 O         -5.2972  -20.9822  -56.9689 O.2       18 UNK        -0.5000 
    104 N         -4.4800  -22.8194  -55.9137 N.am      19 UNK        -0.5000 
    105 CA        -5.6250  -23.7340  -55.9878 C.3       19 UNK         0.1400 
    106 CB        -6.0431  -24.0012  -57.4492 C.3       19 UNK        -0.1800 
    107 C         -6.8111  -23.3207  -55.0888 C.2       19 UNK         0.5000 
    108 O         -7.9223  -23.8150  -55.2884 O.2       19 UNK        -0.5000 
    109 N         -6.5649  -22.4464  -54.1054 N.am      20 UNK        -0.5000 
    110 CA        -7.5482  -21.9464  -53.1524 C.3       20 UNK         0.1400 
    111 CB        -8.4299  -20.8658  -53.8196 C.3       20 UNK        -0.1800 
    112 C         -6.7960  -21.4744  -51.8972 C.2       20 UNK         0.5000 
    113 O         -6.1238  -22.2874  -51.2596 O.2       20 UNK        -0.5000 
    114 N         -6.9013  -20.1794  -51.5787 N.am      21 UNK        -0.5000 
    115 CA        -6.2068  -19.5167  -50.4810 C.3       21 UNK         0.1400 
    116 CB        -7.1849  -19.3140  -49.3085 C.3       21 UNK        -0.1800 
    117 C         -5.5944  -18.2043  -50.9954 C.2       21 UNK         0.5000 
    118 O         -5.9998  -17.1211  -50.5712 O.2       21 UNK        -0.5000 
    119 N         -4.6506  -18.3374  -51.9352 N.am      22 UNK        -0.5000 
    120 CA        -3.9002  -17.2493  -52.5920 C.3       22 UNK         0.1400 
    121 C         -4.7259  -16.4374  -53.6368 C.2       22 UNK         0.5000 
    122 N         -5.8745  -16.9216  -54.0926 N.am      22 UNK        -0.7600 
    123 O         -4.3088  -15.3663  -54.0694 O.2       22 UNK        -0.5000 
    124 C124       -3.1234  -16.3249  -51.6073 C.3       23 UNK        -0.0398 
    125 S125       -2.0125  -17.2244  -50.4724 S.3       23 UNK        -0.2404 
    126 C126       -0.4256  -17.0734  -51.3492 C.3       23 UNK        -0.0205 
    127 H127       -1.2076  -13.8731  -50.4310 H         1 UNK         0.0600 
    128 H128       -1.1447  -14.5439  -48.8020 H         1 UNK         0.0600 
    129 H129       -1.9699  -13.0116  -49.0908 H         1 UNK         0.0600 
    130 H130        0.8015  -14.1842  -47.7369 H         1 UNK         0.3000 
    131 H131        2.7821  -12.3197  -48.7559 H         1 UNK         0.0600 
    132 H132        2.8521  -14.1218  -46.2755 H         1 UNK         0.0800 
    133 H133        4.1911  -13.1838  -46.8731 H         1 UNK         0.0800 
    134 H134        3.6071  -17.0572  -46.9998 H         1 UNK         0.0800 
    135 H135        2.1161  -16.1558  -46.9560 H         1 UNK         0.0800 
    136 H136        0.9173  -15.8500  -49.3445 H         1 UNK         0.1150 
    137 H137        0.7582  -19.5424  -51.5047 H         1 UNK         0.1150 
    138 H138        3.5676  -19.0498  -48.3048 H         1 UNK         0.1150 
    139 H139        3.0876  -20.9789  -51.1542 H         1 UNK         0.0800 
    140 H140        3.5323  -21.1056  -49.4700 H         1 UNK         0.0800 
    141 H141        0.0977  -20.7351  -48.3681 H         1 UNK         0.0800 
    142 H142        1.5964  -21.2770  -47.6642 H         1 UNK         0.0800 
    143 H143        0.6276  -23.6417  -47.5626 H         1 UNK         0.0600 
    144 H144        0.1785  -21.4928  -45.7847 H         1 UNK         0.3000 
    145 H145       -1.2889  -23.4176  -43.1284 H         1 UNK         0.0600 
    146 H146        0.5939  -22.3209  -41.9565 H         1 UNK         0.0600 
    147 H147        1.1967  -23.6128  -42.9834 H         1 UNK         0.0600 
    148 H148        1.3700  -21.9375  -43.4914 H         1 UNK         0.0600 
    149 H149       -0.7668  -20.6362  -43.3236 H         1 UNK         0.3000 
    150 H150       -3.9333  -19.6920  -44.7640 H         1 UNK         0.0600 
    151 H151       -4.2479  -19.9028  -42.3007 H         1 UNK         0.0600 
    152 H152       -3.8748  -18.2450  -42.7499 H         1 UNK         0.0600 
    153 H153       -2.6335  -19.2622  -42.0226 H         1 UNK         0.0600 
    154 H154       -1.7253  -18.0813  -44.0551 H         1 UNK         0.3000 
    155 H155        0.0315  -18.2654  -47.1873 H         1 UNK         0.0600 
    156 H156       -1.5247  -16.0827  -45.6959 H         1 UNK         0.0600 
    157 H157       -1.7007  -16.5179  -47.3878 H         1 UNK         0.0600 
    158 H158       -0.2018  -15.7990  -46.8202 H         1 UNK         0.0600 
    159 H159        0.6615  -16.9759  -44.7099 H         1 UNK         0.3000 
    160 H160        2.4895  -19.6730  -43.2460 H         1 UNK         0.0600 
    161 H161        4.2239  -17.8768  -43.1746 H         1 UNK         0.0600 
    162 H162        3.4144  -17.0316  -44.4931 H         1 UNK         0.0600 
    163 H163        4.1183  -18.6164  -44.7646 H         1 UNK         0.0600 
    164 H164        1.8519  -16.9475  -42.5028 H         1 UNK         0.3000 
    165 H165       -1.1152  -17.7566  -40.6937 H         1 UNK         0.0600 
    166 H166        0.1458  -16.7815  -38.7943 H         1 UNK         0.0600 
    167 H167        0.6989  -18.4186  -39.1075 H         1 UNK         0.0600 
    168 H168        1.6748  -17.0515  -39.6317 H         1 UNK         0.0600 
    169 H169        0.4059  -15.3519  -40.9182 H         1 UNK         0.3000 
    170 H170       -0.8262  -14.1976  -44.0140 H         1 UNK         0.0600 
    171 H171       -2.7577  -13.6566  -42.5195 H         1 UNK         0.0600 
    172 H172       -1.6484  -13.2510  -41.2141 H         1 UNK         0.0600 
    173 H173       -1.6767  -12.2819  -42.6875 H         1 UNK         0.0600 
    174 H174        0.7029  -12.9209  -41.9641 H         1 UNK         0.3000 
    175 H175        3.1658  -13.7576  -41.5784 H         1 UNK         0.0600 
    176 H176        4.3482  -13.8046  -44.4003 H         1 UNK         0.0600 
    177 H177        5.2507  -13.6199  -42.9006 H         1 UNK         0.0600 
    178 H178        4.4148  -15.1245  -43.2371 H         1 UNK         0.0600 
    179 H179        3.6282  -11.6394  -43.5091 H         1 UNK         0.3000 
    180 H180        1.7345   -9.1706  -41.8010 H         1 UNK         0.0600 
    181 H181        4.7573   -9.5486  -42.1176 H         1 UNK         0.0600 
    182 H182        3.8972   -9.2272  -40.6212 H         1 UNK         0.0600 
    183 H183        3.9302   -8.0088  -41.8862 H         1 UNK         0.0600 
    184 H184        1.5715   -8.8686  -43.9543 H         1 UNK         0.3000 
    185 H185        1.7222   -8.9360  -46.0954 H         1 UNK         0.0600 
    186 H186        3.6003   -7.2861  -46.0971 H         1 UNK         0.0600 
    187 H187        4.6661   -8.4768  -46.8329 H         1 UNK         0.0600 
    188 H188        3.2688   -7.8681  -47.7212 H         1 UNK         0.0600 
    189 H189        3.5188  -10.4500  -47.7423 H         1 UNK         0.3000 
    190 H190       -2.2215  -21.4609  -47.2187 H         1 UNK         0.3000 
    191 H191       -3.8306  -22.5462  -49.2570 H         1 UNK         0.0600 
    192 H192       -4.6793  -21.3140  -46.5851 H         1 UNK         0.0600 
    193 H193       -5.6951  -21.5081  -48.0038 H         1 UNK         0.0600 
    194 H194       -4.3115  -20.4194  -48.0542 H         1 UNK         0.0600 
    195 H195       -3.4897  -23.5711  -45.8337 H         1 UNK         0.3000 
    196 H196       -5.4633  -25.6440  -45.9657 H         1 UNK         0.0600 
    197 H197       -3.1610  -25.1837  -43.9985 H         1 UNK         0.0600 
    198 H198       -4.4934  -26.3087  -43.7616 H         1 UNK         0.0600 
    199 H199       -4.8079  -24.5814  -43.8388 H         1 UNK         0.0600 
    200 H200       -1.8525  -25.7579  -46.0883 H         1 UNK         0.3000 
    201 H201       -1.8645  -28.6472  -46.2857 H         1 UNK         0.0600 
    202 H202       -0.1799  -27.4022  -44.9566 H         1 UNK         0.0600 
    203 H203        0.4390  -26.6383  -46.4194 H         1 UNK         0.0600 
    204 H204        0.5916  -28.3768  -46.1989 H         1 UNK         0.0600 
    205 H205       -1.0692  -25.9815  -48.5864 H         1 UNK         0.3000 
    206 H206       -0.3166  -28.0052  -50.6549 H         1 UNK         0.0600 
    207 H207        1.4658  -26.4330  -49.8839 H         1 UNK         0.0600 
    208 H208        1.0599  -26.1810  -51.5739 H         1 UNK         0.0600 
    209 H209        0.4662  -25.0609  -50.3576 H         1 UNK         0.0600 
    210 H210       -2.7211  -25.6776  -49.8889 H         1 UNK         0.3000 
    211 H211       -4.4615  -24.7385  -50.9190 H         1 UNK         0.0600 
    212 H212       -4.0793  -26.7374  -53.2091 H         1 UNK         0.0600 
    213 H213       -5.4925  -25.7375  -52.9138 H         1 UNK         0.0600 
    214 H214       -5.0609  -26.9977  -51.7680 H         1 UNK         0.0600 
    215 H215       -2.7033  -23.1068  -50.8462 H         1 UNK         0.3000 
    216 H216       -1.1362  -22.0835  -52.7999 H         1 UNK         0.0600 
    217 H217       -1.5557  -19.8744  -51.6636 H         1 UNK         0.0600 
    218 H218       -1.2850  -21.1696  -50.5119 H         1 UNK         0.0600 
    219 H219       -2.9143  -20.5780  -50.8015 H         1 UNK         0.0600 
    220 H220       -1.5324  -21.6840  -54.9041 H         1 UNK         0.3000 
    221 H221       -2.3934  -21.0378  -56.8328 H         1 UNK         0.0600 
    222 H222       -4.0411  -18.9631  -55.2995 H         1 UNK         0.0600 
    223 H223       -2.3464  -18.7566  -55.7425 H         1 UNK         0.0600 
    224 H224       -3.5735  -18.9000  -56.9902 H         1 UNK         0.0600 
    225 H225       -3.7117  -23.1768  -55.3521 H         1 UNK         0.3000 
    226 H226       -5.2677  -24.6803  -55.5797 H         1 UNK         0.0600 
    227 H227       -5.1855  -24.2820  -58.0605 H         1 UNK         0.0600 
    228 H228       -6.7611  -24.8201  -57.5058 H         1 UNK         0.0600 
    229 H229       -6.5115  -23.1289  -57.9053 H         1 UNK         0.0600 
    230 H230       -5.6222  -22.0946  -53.9750 H         1 UNK         0.3000 
    231 H231       -8.1892  -22.7716  -52.8357 H         1 UNK         0.0600 
    232 H232       -9.1613  -20.4602  -53.1193 H         1 UNK         0.0600 
    233 H233       -8.9938  -21.2817  -54.6546 H         1 UNK         0.0600 
    234 H234       -7.8342  -20.0394  -54.2094 H         1 UNK         0.0600 
    235 H235       -7.4664  -19.5833  -52.1659 H         1 UNK         0.3000 
    236 H236       -5.3740  -20.1326  -50.1396 H         1 UNK         0.0600 
    237 H237       -6.6863  -18.8397  -48.4624 H         1 UNK         0.0600 
    238 H238       -8.0290  -18.6843  -49.5918 H         1 UNK         0.0600 
    239 H239       -7.5843  -20.2663  -48.9598 H         1 UNK         0.0600 
    240 H240       -4.4468  -19.2712  -52.2865 H         1 UNK         0.3000 
    241 H241       -3.1470  -17.7608  -53.1919 H         1 UNK         0.0600 
    242 H242       -6.3979  -16.3968  -54.7754 H         1 UNK         0.3800 
    243 H243       -6.2173  -17.8093  -53.7680 H         1 UNK         0.3800 
    244 H244       -2.5313  -15.5926  -52.1579 H         1 UNK         0.0800 
    245 H245       -3.8187  -15.7399  -51.0044 H         1 UNK         0.0800 
    246 H246       -0.4881  -17.5917  -52.3071 H         1 UNK         0.0800 
    247 H247       -0.2266  -16.0246  -51.5746 H         1 UNK         0.0800 
@<TRIPOS>BOND
     1    1    2 1    
     2    1  127 1    
     3    1  128 1    
     4    1  129 1    
     5    2    3 2    
     6    2    4 am   BACKBONE|DICT|INTERRES
     7    4    5 1    
     8    4  130 1    
     9    5    6 1    
    10    5   65 1    
    11    5  131 1    
    12    6    7 1    
    13    6  132 1    
    14    6  133 1    
    15    7    8 1    
    16    8    9 1    
    17    8  134 1    
    18    8  135 1    
    19    9   10 ar   
    20    9   14 ar   
    21   10   11 ar   
    22   10  136 1    
    23   11   12 ar   
    24   11  126 1    
    25   12   13 ar   
    26   12  137 1    
    27   13   14 ar   
    28   13   15 1    
    29   14  138 1    
    30   15   16 1    
    31   15  139 1    
    32   15  140 1    
    33   16   17 1    
    34   17   18 1    
    35   17  141 1    
    36   17  142 1    
    37   18   19 1    
    38   18   67 1    
    39   18  143 1    
    40   19   20 am   BACKBONE|DICT|INTERRES
    41   19  144 1    
    42   20   21 2    
    43   20   22 1    
    44   22   23 1    
    45   22   24 1    
    46   22  145 1    
    47   23  146 1    
    48   23  147 1    
    49   23  148 1    
    50   24   25 am   BACKBONE|DICT|INTERRES
    51   24  149 1    
    52   25   26 2    
    53   25   27 1    
    54   27   28 1    
    55   27   29 1    
    56   27  150 1    
    57   28  151 1    
    58   28  152 1    
    59   28  153 1    
    60   29   30 am   BACKBONE|DICT|INTERRES
    61   29  154 1    
    62   30   31 2    
    63   30   32 1    
    64   32   33 1    
    65   32   34 1    
    66   32  155 1    
    67   33  156 1    
    68   33  157 1    
    69   33  158 1    
    70   34   35 am   BACKBONE|DICT|INTERRES
    71   34  159 1    
    72   35   36 2    
    73   35   37 1    
    74   37   38 1    
    75   37   39 1    
    76   37  160 1    
    77   38  161 1    
    78   38  162 1    
    79   38  163 1    
    80   39   40 am   BACKBONE|DICT|INTERRES
    81   39  164 1    
    82   40   41 2    
    83   40   42 1    
    84   42   43 1    
    85   42   44 1    
    86   42  165 1    
    87   43  166 1    
    88   43  167 1    
    89   43  168 1    
    90   44   45 am   BACKBONE|DICT|INTERRES
    91   44  169 1    
    92   45   46 2    
    93   45   47 1    
    94   47   48 1    
    95   47   49 1    
    96   47  170 1    
    97   48  171 1    
    98   48  172 1    
    99   48  173 1    
   100   49   50 am   BACKBONE|DICT|INTERRES
   101   49  174 1    
   102   50   51 2    
   103   50   52 1    
   104   52   53 1    
   105   52   54 1    
   106   52  175 1    
   107   53  176 1    
   108   53  177 1    
   109   53  178 1    
   110   54   55 am   BACKBONE|DICT|INTERRES
   111   54  179 1    
   112   55   56 2    
   113   55   57 1    
   114   57   58 1    
   115   57   59 1    
   116   57  180 1    
   117   58  181 1    
   118   58  182 1    
   119   58  183 1    
   120   59   60 am   BACKBONE|DICT|INTERRES
   121   59  184 1    
   122   60   61 2    
   123   60   62 1    
   124   62   63 1    
   125   62   64 1    
   126   62  185 1    
   127   63  186 1    
   128   63  187 1    
   129   63  188 1    
   130   64   65 am   BACKBONE|DICT|INTERRES
   131   64  189 1    
   132   65   66 2    
   133   67   68 2    
   134   67   69 am   BACKBONE|DICT|INTERRES
   135   69   70 1    
   136   69  190 1    
   137   70   71 1    
   138   70   72 1    
   139   70  191 1    
   140   71  192 1    
   141   71  193 1    
   142   71  194 1    
   143   72   73 2    
   144   72   74 am   BACKBONE|DICT|INTERRES
   145   74   75 1    
   146   74  195 1    
   147   75   76 1    
   148   75   77 1    
   149   75  196 1    
   150   76  197 1    
   151   76  198 1    
   152   76  199 1    
   153   77   78 2    
   154   77   79 am   BACKBONE|DICT|INTERRES
   155   79   80 1    
   156   79  200 1    
   157   80   81 1    
   158   80   82 1    
   159   80  201 1    
   160   81  202 1    
   161   81  203 1    
   162   81  204 1    
   163   82   83 2    
   164   82   84 am   BACKBONE|DICT|INTERRES
   165   84   85 1    
   166   84  205 1    
   167   85   86 1    
   168   85   87 1    
   169   85  206 1    
   170   86  207 1    
   171   86  208 1    
   172   86  209 1    
   173   87   88 2    
   174   87   89 am   BACKBONE|DICT|INTERRES
   175   89   90 1    
   176   89  210 1    
   177   90   91 1    
   178   90   92 1    
   179   90  211 1    
   180   91  212 1    
   181   91  213 1    
   182   91  214 1    
   183   92   93 2    
   184   92   94 am   BACKBONE|DICT|INTERRES
   185   94   95 1    
   186   94  215 1    
   187   95   96 1    
   188   95   97 1    
   189   95  216 1    
   190   96  217 1    
   191   96  218 1    
   192   96  219 1    
   193   97   98 2    
   194   97   99 am   BACKBONE|DICT|INTERRES
   195   99  100 1    
   196   99  220 1    
   197  100  101 1    
   198  100  102 1    
   199  100  221 1    
   200  101  222 1    
   201  101  223 1    
   202  101  224 1    
   203  102  103 2    
   204  102  104 am   BACKBONE|DICT|INTERRES
   205  104  105 1    
   206  104  225 1    
   207  105  106 1    
   208  105  107 1    
   209  105  226 1    
   210  106  227 1    
   211  106  228 1    
   212  106  229 1    
   213  107  108 2    
   214  107  109 am   BACKBONE|DICT|INTERRES
   215  109  110 1    
   216  109  230 1    
   217  110  111 1    
   218  110  112 1    
   219  110  231 1    
   220  111  232 1    
   221  111  233 1    
   222  111  234 1    
   223  112  113 2    
   224  112  114 am   BACKBONE|DICT|INTERRES
   225  114  115 1    
   226  114  235 1    
   227  115  116 1    
   228  115  117 1    
   229  115  236 1    
   230  116  237 1    
   231  116  238 1    
   232  116  239 1    
   233  117  118 2    
   234  117  119 am   BACKBONE|DICT|INTERRES
   235  119  120 1    
   236  119  240 1    
   237  120  121 1    
   238  120  124 1    
   239  120  241 1    
   240  121  122 am   BACKBONE|DICT|INTERRES
   241  121  123 2    
   242  122  242 1    
   243  122  243 1    
   244  124  125 1    
   245  124  244 1    
   246  124  245 1    
   247  125  126 1    
   248  126  246 1    
   249  126  247 1    
@<TRIPOS>SUBSTRUCTURE
     1 UNK         1 GROUP             0       ****    0 ROOT    
