@<TRIPOS>MOLECULE
3R540
247   249    1
SMALL
USER_CHARGES


@<TRIPOS>ATOM
      1 CA          1.4527  -10.4271  -52.9032 C.3       0 UNK        -0.1800 
      2 C           1.0571  -11.6747  -52.1258 C.2       0 UNK         0.5000 
      3 O           1.8381  -12.6235  -52.0518 O.2       0 UNK        -0.5000 
      4 N          -0.1536  -11.6801  -51.5537 N.am      1 UNK        -0.5000 
      5 CA         -0.6772  -12.7597  -50.7149 C.3       1 UNK         0.1400 
      6 C6         -2.2184  -12.6635  -50.5925 C.3       23 UNK        -0.0398 
      7 S7         -3.0196  -13.9486  -49.5709 S.3       23 UNK        -0.2404 
      8 C8         -2.9620  -15.4163  -50.6496 C.3       23 UNK        -0.0205 
      9 C9         -1.6840  -16.2124  -50.4341 C.ar      23 UNK        -0.0193 
     10 C10        -0.7178  -16.3140  -51.4391 C.ar      23 UNK        -0.1150 
     11 C11         0.4743  -17.0086  -51.2090 C.ar      23 UNK        -0.0193 
     12 C12         0.6861  -17.6248  -49.9725 C.ar      23 UNK        -0.1150 
     13 C13        -0.2795  -17.5411  -48.9664 C.ar      23 UNK        -0.0193 
     14 C14        -1.4616  -16.8392  -49.2065 C.ar      23 UNK        -0.1150 
     15 C15        -0.0382  -18.1729  -47.6057 C.3       23 UNK        -0.0205 
     16 S16        -1.2365  -19.4925  -47.2487 S.3       23 UNK        -0.2404 
     17 C17        -0.6871  -20.7917  -48.3973 C.3       23 UNK        -0.0398 
     18 CA         -0.5361  -22.1922  -47.7640 C.3       11 UNK         0.1400 
     19 N           0.4559  -22.2563  -46.6846 N.am      11 UNK        -0.5000 
     20 C           1.0102  -23.4083  -46.2777 C.2       10 UNK         0.5000 
     21 O           0.7404  -24.5035  -46.7703 O.2       10 UNK        -0.5000 
     22 CA          1.9880  -23.3427  -45.0960 C.3       10 UNK         0.1400 
     23 CB          3.3524  -22.7828  -45.5277 C.3       10 UNK        -0.1800 
     24 N           1.4500  -22.5587  -43.9879 N.am      10 UNK        -0.5000 
     25 C           0.4420  -22.9571  -43.2000 C.2       9 UNK         0.5000 
     26 O          -0.1548  -24.0249  -43.3408 O.2       9 UNK        -0.5000 
     27 CA          0.0181  -21.9924  -42.0774 C.3       9 UNK         0.1400 
     28 CB          0.8765  -22.2130  -40.8232 C.3       9 UNK        -0.1800 
     29 N           0.1026  -20.5880  -42.4757 N.am      9 UNK        -0.5000 
     30 C          -0.7009  -20.0167  -43.3841 C.2       8 UNK         0.5000 
     31 O          -1.6051  -20.6126  -43.9651 O.2       8 UNK        -0.5000 
     32 CA         -0.4201  -18.5428  -43.7279 C.3       8 UNK         0.1400 
     33 CB         -1.0664  -17.6360  -42.6722 C.3       8 UNK        -0.1800 
     34 N           1.0052  -18.2202  -43.8333 N.am      8 UNK        -0.5000 
     35 C           1.9188  -18.8921  -44.5542 C.2       7 UNK         0.5000 
     36 O           1.6449  -19.8365  -45.2948 O.2       7 UNK        -0.5000 
     37 CA          3.3975  -18.4824  -44.3998 C.3       7 UNK         0.1400 
     38 CB          3.8483  -17.6725  -45.6229 C.3       7 UNK        -0.1800 
     39 N           3.6835  -17.7061  -43.1922 N.am      7 UNK        -0.5000 
     40 C           3.4718  -18.0935  -41.9255 C.2       6 UNK         0.5000 
     41 O           3.0991  -19.2249  -41.6107 O.2       6 UNK        -0.5000 
     42 CA          3.6495  -17.0161  -40.8330 C.3       6 UNK         0.1400 
     43 CB          4.9693  -17.2321  -40.0772 C.3       6 UNK        -0.1800 
     44 N           3.6065  -15.6332  -41.3316 N.am      6 UNK        -0.5000 
     45 C           2.5680  -15.0609  -41.9589 C.2       5 UNK         0.5000 
     46 O           1.5052  -15.6462  -42.1780 O.2       5 UNK        -0.5000 
     47 CA          2.7897  -13.6230  -42.4612 C.3       5 UNK         0.1400 
     48 CB          3.9084  -13.5820  -43.5186 C.3       5 UNK        -0.1800 
     49 N           1.5718  -13.0965  -43.0732 N.am      5 UNK        -0.5000 
     50 C           0.7737  -12.1606  -42.5430 C.2       4 UNK         0.5000 
     51 O           0.9861  -11.6228  -41.4551 O.2       4 UNK        -0.5000 
     52 CA         -0.4584  -11.7217  -43.3647 C.3       4 UNK         0.1400 
     53 CB         -0.2202  -10.3372  -43.9883 C.3       4 UNK        -0.1800 
     54 N          -0.8041  -12.6581  -44.4344 N.am      4 UNK        -0.5000 
     55 C          -1.4395  -13.8231  -44.2542 C.2       3 UNK         0.5000 
     56 O          -1.9177  -14.1713  -43.1749 O.2       3 UNK        -0.5000 
     57 CA         -1.5629  -14.7597  -45.4773 C.3       3 UNK         0.1400 
     58 CB         -3.0100  -14.7729  -45.9924 C.3       3 UNK        -0.1800 
     59 N          -0.6581  -14.4407  -46.5900 N.am      3 UNK        -0.5000 
     60 C           0.6822  -14.4752  -46.5348 C.2       2 UNK         0.5000 
     61 O           1.3012  -14.7819  -45.5167 O.2       2 UNK        -0.5000 
     62 CA          1.4705  -14.0859  -47.8013 C.3       2 UNK         0.1400 
     63 CB          2.5715  -15.1120  -48.1145 C.3       2 UNK        -0.1800 
     64 N           0.6272  -13.9163  -48.9867 N.am      2 UNK        -0.5000 
     65 C           0.0513  -12.7645  -49.3537 C.2       1 UNK         0.5000 
     66 O           0.0846  -11.7351  -48.6759 O.2       1 UNK        -0.5000 
     67 C          -1.8889  -22.8167  -47.3612 C.2       11 UNK         0.5000 
     68 O          -2.5574  -23.3970  -48.2206 O.2       11 UNK        -0.5000 
     69 N          -2.2487  -22.7408  -46.0689 N.am      12 UNK        -0.5000 
     70 CA         -3.4034  -23.4325  -45.4961 C.3       12 UNK         0.1400 
     71 CB         -3.6576  -22.9755  -44.0536 C.3       12 UNK        -0.1800 
     72 C          -3.2633  -24.9616  -45.5693 C.2       12 UNK         0.5000 
     73 O          -4.2001  -25.6338  -46.0001 O.2       12 UNK        -0.5000 
     74 N          -2.0867  -25.4796  -45.1923 N.am      13 UNK        -0.5000 
     75 CA         -1.7524  -26.9005  -45.2902 C.3       13 UNK         0.1400 
     76 CB         -0.4266  -27.1662  -44.5611 C.3       13 UNK        -0.1800 
     77 C          -1.6858  -27.4002  -46.7461 C.2       13 UNK         0.5000 
     78 O          -2.1275  -28.5159  -47.0237 O.2       13 UNK        -0.5000 
     79 N          -1.1377  -26.5692  -47.6427 N.am      14 UNK        -0.5000 
     80 CA         -0.9614  -26.8829  -49.0575 C.3       14 UNK         0.1400 
     81 CB          0.0500  -25.9083  -49.6789 C.3       14 UNK        -0.1800 
     82 C          -2.2749  -26.8831  -49.8593 C.2       14 UNK         0.5000 
     83 O          -2.5220  -27.8414  -50.5936 O.2       14 UNK        -0.5000 
     84 N          -3.0714  -25.8095  -49.7476 N.am      15 UNK        -0.5000 
     85 CA         -4.2121  -25.5642  -50.6366 C.3       15 UNK         0.1400 
     86 CB         -3.7073  -24.9555  -51.9630 C.3       15 UNK        -0.1800 
     87 C          -5.3092  -24.6995  -49.9904 C.2       15 UNK         0.5000 
     88 O          -6.0186  -23.9933  -50.7088 O.2       15 UNK        -0.5000 
     89 N          -5.4290  -24.7297  -48.6532 N.am      16 UNK        -0.5000 
     90 CA         -6.4146  -23.9831  -47.8500 C.3       16 UNK         0.1400 
     91 CB         -7.8405  -24.5023  -48.1322 C.3       16 UNK        -0.1800 
     92 C          -6.3181  -22.4446  -47.9943 C.2       16 UNK         0.5000 
     93 O          -7.2775  -21.7432  -47.6710 O.2       16 UNK        -0.5000 
     94 N          -5.1744  -21.9555  -48.5030 N.am      17 UNK        -0.5000 
     95 CA         -4.8880  -20.5781  -48.9240 C.3       17 UNK         0.1400 
     96 CB         -4.8468  -19.6385  -47.7019 C.3       17 UNK        -0.1800 
     97 C          -5.8278  -20.0566  -50.0394 C.2       17 UNK         0.5000 
     98 O          -5.9390  -18.8432  -50.2255 O.2       17 UNK        -0.5000 
     99 N          -6.5011  -20.9696  -50.7549 N.am      18 UNK        -0.5000 
    100 CA        -7.5271  -20.6615  -51.7466 C.3       18 UNK         0.1400 
    101 CB        -8.3322  -21.9356  -52.0424 C.3       18 UNK        -0.1800 
    102 C         -6.9291  -20.0951  -53.0429 C.2       18 UNK         0.5000 
    103 O         -5.8638  -20.5426  -53.4737 O.2       18 UNK        -0.5000 
    104 N         -7.6429  -19.1311  -53.6439 N.am      19 UNK        -0.5000 
    105 CA        -7.4094  -18.5241  -54.9646 C.3       19 UNK         0.1400 
    106 CB        -7.7127  -19.5597  -56.0675 C.3       19 UNK        -0.1800 
    107 C         -6.0217  -17.8715  -55.1646 C.2       19 UNK         0.5000 
    108 O         -5.6325  -17.6203  -56.3063 O.2       19 UNK        -0.5000 
    109 N         -5.2946  -17.6307  -54.0625 N.am      20 UNK        -0.5000 
    110 CA        -3.8810  -17.2446  -54.0066 C.3       20 UNK         0.1400 
    111 CB        -3.6788  -15.8015  -54.5140 C.3       20 UNK        -0.1800 
    112 C         -2.9558  -18.2733  -54.6978 C.2       20 UNK         0.5000 
    113 O         -1.9763  -17.8906  -55.3383 O.2       20 UNK        -0.5000 
    114 N         -3.2883  -19.5672  -54.5583 N.am      21 UNK        -0.5000 
    115 CA        -2.5235  -20.6922  -55.1064 C.3       21 UNK         0.1400 
    116 CB        -3.4058  -21.9506  -55.0865 C.3       21 UNK        -0.1800 
    117 C         -1.1997  -20.9556  -54.3605 C.2       21 UNK         0.5000 
    118 O         -0.3232  -21.6270  -54.9056 O.2       21 UNK        -0.5000 
    119 N         -1.0883  -20.4306  -53.1328 N.am      22 UNK        -0.5000 
    120 CA         0.0881  -20.4853  -52.2462 C.3       22 UNK         0.1400 
    121 C          0.3792  -21.8862  -51.6273 C.2       22 UNK         0.5000 
    122 N         -0.4994  -22.8705  -51.7670 N.am      22 UNK        -0.7600 
    123 O          1.3996  -22.0759  -50.9727 O.2       22 UNK        -0.5000 
    124 C124        1.3712  -19.8436  -52.8533 C.3       23 UNK        -0.0398 
    125 S125        1.1087  -18.2077  -53.6266 S.3       23 UNK        -0.2404 
    126 C126        1.5464  -17.0613  -52.2856 C.3       23 UNK        -0.0205 
    127 H127        2.3501   -9.9848  -52.4707 H         1 UNK         0.0600 
    128 H128        0.6636   -9.6747  -52.8925 H         1 UNK         0.0600 
    129 H129        1.6639  -10.6833  -53.9414 H         1 UNK         0.0600 
    130 H130       -0.7343  -10.8567  -51.6244 H         1 UNK         0.3000 
    131 H131       -0.4469  -13.6911  -51.2293 H         1 UNK         0.0600 
    132 H132       -2.6692  -12.6887  -51.5856 H         1 UNK         0.0800 
    133 H133       -2.4948  -11.6968  -50.1682 H         1 UNK         0.0800 
    134 H134       -3.0725  -15.1156  -51.6916 H         1 UNK         0.0800 
    135 H135       -3.8165  -16.0551  -50.4205 H         1 UNK         0.0800 
    136 H136       -0.8795  -15.8374  -52.3960 H         1 UNK         0.1150 
    137 H137        1.6085  -18.1579  -49.7895 H         1 UNK         0.1150 
    138 H138       -2.2072  -16.7717  -48.4281 H         1 UNK         0.1150 
    139 H139        0.9756  -18.5681  -47.5328 H         1 UNK         0.0800 
    140 H140       -0.1219  -17.4043  -46.8375 H         1 UNK         0.0800 
    141 H141       -1.3876  -20.8256  -49.2329 H         1 UNK         0.0800 
    142 H142        0.2707  -20.5018  -48.8304 H         1 UNK         0.0800 
    143 H143       -0.1523  -22.8250  -48.5659 H         1 UNK         0.0600 
    144 H144        0.7126  -21.3846  -46.2296 H         1 UNK         0.3000 
    145 H145        2.1463  -24.3631  -44.7398 H         1 UNK         0.0600 
    146 H146        4.0527  -22.7625  -44.6926 H         1 UNK         0.0600 
    147 H147        3.2749  -21.7711  -45.9251 H         1 UNK         0.0600 
    148 H148        3.7949  -23.4039  -46.3075 H         1 UNK         0.0600 
    149 H149        1.8220  -21.6273  -43.8678 H         1 UNK         0.3000 
    150 H150       -1.0204  -22.2137  -41.8227 H         1 UNK         0.0600 
    151 H151        0.8260  -23.2513  -40.4926 H         1 UNK         0.0600 
    152 H152        0.5325  -21.5917  -39.9961 H         1 UNK         0.0600 
    153 H153        1.9255  -21.9759  -41.0064 H         1 UNK         0.0600 
    154 H154        0.8481  -20.0386  -42.0686 H         1 UNK         0.3000 
    155 H155       -0.8821  -18.3225  -44.6886 H         1 UNK         0.0600 
    156 H156       -2.1422  -17.8060  -42.6131 H         1 UNK         0.0600 
    157 H157       -0.9160  -16.5855  -42.9110 H         1 UNK         0.0600 
    158 H158       -0.6476  -17.8094  -41.6801 H         1 UNK         0.0600 
    159 H159        1.3183  -17.4300  -43.2796 H         1 UNK         0.3000 
    160 H160        3.9859  -19.4008  -44.3537 H         1 UNK         0.0600 
    161 H161        3.3140  -16.7245  -45.6828 H         1 UNK         0.0600 
    162 H162        3.6588  -18.2169  -46.5492 H         1 UNK         0.0600 
    163 H163        4.9161  -17.4566  -45.5853 H         1 UNK         0.0600 
    164 H164        3.9829  -16.7542  -43.3397 H         1 UNK         0.3000 
    165 H165        2.8257  -17.1378  -40.1268 H         1 UNK         0.0600 
    166 H166        5.0650  -16.5375  -39.2424 H         1 UNK         0.0600 
    167 H167        5.0241  -18.2408  -39.6655 H         1 UNK         0.0600 
    168 H168        5.8329  -17.0965  -40.7295 H         1 UNK         0.0600 
    169 H169        4.4456  -15.0888  -41.1915 H         1 UNK         0.3000 
    170 H170        3.0899  -13.0099  -41.6092 H         1 UNK         0.0600 
    171 H171        3.6962  -14.2448  -44.3585 H         1 UNK         0.0600 
    172 H172        4.0353  -12.5746  -43.9156 H         1 UNK         0.0600 
    173 H173        4.8686  -13.8817  -43.0977 H         1 UNK         0.0600 
    174 H174        1.2854  -13.5666  -43.9260 H         1 UNK         0.3000 
    175 H175       -1.3028  -11.6447  -42.6765 H         1 UNK         0.0600 
    176 H176        0.6137  -10.3508  -44.6913 H         1 UNK         0.0600 
    177 H177       -1.1041   -9.9872  -44.5218 H         1 UNK         0.0600 
    178 H178        0.0089   -9.5963  -43.2212 H         1 UNK         0.0600 
    179 H179       -0.4620  -12.4390  -45.3584 H         1 UNK         0.3000 
    180 H180       -1.3159  -15.7663  -45.1364 H         1 UNK         0.0600 
    181 H181       -3.3015  -13.8016  -46.3936 H         1 UNK         0.0600 
    182 H182       -3.7092  -15.0204  -45.1926 H         1 UNK         0.0600 
    183 H183       -3.1479  -15.5161  -46.7761 H         1 UNK         0.0600 
    184 H184       -1.0914  -14.1757  -47.4628 H         1 UNK         0.3000 
    185 H185        1.9657  -13.1372  -47.5838 H         1 UNK         0.0600 
    186 H186        2.1853  -16.1299  -48.1391 H         1 UNK         0.0600 
    187 H187        3.0477  -14.9074  -49.0736 H         1 UNK         0.0600 
    188 H188        3.3544  -15.0780  -47.3567 H         1 UNK         0.0600 
    189 H189        0.5296  -14.7279  -49.5815 H         1 UNK         0.3000 
    190 H190       -1.6910  -22.1835  -45.4316 H         1 UNK         0.3000 
    191 H191       -4.2743  -23.1477  -46.0818 H         1 UNK         0.0600 
    192 H192       -3.9076  -21.9154  -44.0172 H         1 UNK         0.0600 
    193 H193       -2.7887  -23.1408  -43.4169 H         1 UNK         0.0600 
    194 H194       -4.4954  -23.5175  -43.6130 H         1 UNK         0.0600 
    195 H195       -1.3715  -24.8682  -44.8131 H         1 UNK         0.3000 
    196 H196       -2.5367  -27.4654  -44.7820 H         1 UNK         0.0600 
    197 H197       -0.4953  -26.8932  -43.5079 H         1 UNK         0.0600 
    198 H198        0.3954  -26.5992  -44.9992 H         1 UNK         0.0600 
    199 H199       -0.1595  -28.2226  -44.6070 H         1 UNK         0.0600 
    200 H200       -0.7270  -25.7012  -47.3126 H         1 UNK         0.3000 
    201 H201       -0.5342  -27.8857  -49.1265 H         1 UNK         0.0600 
    202 H202        1.0171  -25.9723  -49.1798 H         1 UNK         0.0600 
    203 H203       -0.2942  -24.8777  -49.6080 H         1 UNK         0.0600 
    204 H204        0.2133  -26.1323  -50.7338 H         1 UNK         0.0600 
    205 H205       -2.8107  -25.0461  -49.1270 H         1 UNK         0.3000 
    206 H206       -4.6973  -26.5158  -50.8627 H         1 UNK         0.0600 
    207 H207       -2.9579  -25.5891  -52.4373 H         1 UNK         0.0600 
    208 H208       -3.2638  -23.9727  -51.8024 H         1 UNK         0.0600 
    209 H209       -4.5204  -24.8353  -52.6801 H         1 UNK         0.0600 
    210 H210       -4.8002  -25.3190  -48.1204 H         1 UNK         0.3000 
    211 H211       -6.2035  -24.2026  -46.8046 H         1 UNK         0.0600 
    212 H212       -8.1762  -24.2447  -49.1371 H         1 UNK         0.0600 
    213 H213       -8.5591  -24.0768  -47.4308 H         1 UNK         0.0600 
    214 H214       -7.8930  -25.5859  -48.0278 H         1 UNK         0.0600 
    215 H215       -4.4333  -22.6224  -48.6890 H         1 UNK         0.3000 
    216 H216       -3.8877  -20.5990  -49.3577 H         1 UNK         0.0600 
    217 H217       -4.4368  -18.6644  -47.9716 H         1 UNK         0.0600 
    218 H218       -4.2174  -20.0467  -46.9110 H         1 UNK         0.0600 
    219 H219       -5.8405  -19.4721  -47.2854 H         1 UNK         0.0600 
    220 H220       -6.3155  -21.9545  -50.5971 H         1 UNK         0.3000 
    221 H221       -8.2033  -19.9215  -51.3133 H         1 UNK         0.0600 
    222 H222       -7.7073  -22.7094  -52.4906 H         1 UNK         0.0600 
    223 H223       -8.7710  -22.3461  -51.1327 H         1 UNK         0.0600 
    224 H224       -9.1488  -21.7311  -52.7359 H         1 UNK         0.0600 
    225 H225       -8.4843  -18.8152  -53.1811 H         1 UNK         0.3000 
    226 H226       -8.1353  -17.7155  -55.0604 H         1 UNK         0.0600 
    227 H227       -8.7021  -19.9980  -55.9365 H         1 UNK         0.0600 
    228 H228       -7.6935  -19.1021  -57.0573 H         1 UNK         0.0600 
    229 H229       -6.9840  -20.3713  -56.0677 H         1 UNK         0.0600 
    230 H230       -5.7132  -17.8800  -53.1771 H         1 UNK         0.3000 
    231 H231       -3.6056  -17.2632  -52.9516 H         1 UNK         0.0600 
    232 H232       -2.6549  -15.4673  -54.3423 H         1 UNK         0.0600 
    233 H233       -4.3380  -15.1051  -53.9958 H         1 UNK         0.0600 
    234 H234       -3.8741  -15.7158  -55.5831 H         1 UNK         0.0600 
    235 H235       -4.1485  -19.8082  -54.0724 H         1 UNK         0.3000 
    236 H236       -2.2756  -20.4646  -56.1451 H         1 UNK         0.0600 
    237 H237       -3.6883  -22.2284  -54.0701 H         1 UNK         0.0600 
    238 H238       -4.3222  -21.7981  -55.6571 H         1 UNK         0.0600 
    239 H239       -2.8861  -22.8021  -55.5277 H         1 UNK         0.0600 
    240 H240       -1.8730  -19.9020  -52.7838 H         1 UNK         0.3000 
    241 H241       -0.1947  -19.8733  -51.3911 H         1 UNK         0.0600 
    242 H242       -0.2897  -23.7734  -51.3776 H         1 UNK         0.3800 
    243 H243       -1.3293  -22.7358  -52.3194 H         1 UNK         0.3800 
    244 H244        1.7899  -20.5008  -53.6167 H         1 UNK         0.0800 
    245 H245        2.1449  -19.7485  -52.0900 H         1 UNK         0.0800 
    246 H246        1.6745  -16.0630  -52.7071 H         1 UNK         0.0800 
    247 H247        2.5143  -17.3367  -51.8640 H         1 UNK         0.0800 
@<TRIPOS>BOND
     1    1    2 1    
     2    1  127 1    
     3    1  128 1    
     4    1  129 1    
     5    2    3 2    
     6    2    4 am   BACKBONE|DICT|INTERRES
     7    4    5 1    
     8    4  130 1    
     9    5    6 1    
    10    5   65 1    
    11    5  131 1    
    12    6    7 1    
    13    6  132 1    
    14    6  133 1    
    15    7    8 1    
    16    8    9 1    
    17    8  134 1    
    18    8  135 1    
    19    9   10 ar   
    20    9   14 ar   
    21   10   11 ar   
    22   10  136 1    
    23   11   12 ar   
    24   11  126 1    
    25   12   13 ar   
    26   12  137 1    
    27   13   14 ar   
    28   13   15 1    
    29   14  138 1    
    30   15   16 1    
    31   15  139 1    
    32   15  140 1    
    33   16   17 1    
    34   17   18 1    
    35   17  141 1    
    36   17  142 1    
    37   18   19 1    
    38   18   67 1    
    39   18  143 1    
    40   19   20 am   BACKBONE|DICT|INTERRES
    41   19  144 1    
    42   20   21 2    
    43   20   22 1    
    44   22   23 1    
    45   22   24 1    
    46   22  145 1    
    47   23  146 1    
    48   23  147 1    
    49   23  148 1    
    50   24   25 am   BACKBONE|DICT|INTERRES
    51   24  149 1    
    52   25   26 2    
    53   25   27 1    
    54   27   28 1    
    55   27   29 1    
    56   27  150 1    
    57   28  151 1    
    58   28  152 1    
    59   28  153 1    
    60   29   30 am   BACKBONE|DICT|INTERRES
    61   29  154 1    
    62   30   31 2    
    63   30   32 1    
    64   32   33 1    
    65   32   34 1    
    66   32  155 1    
    67   33  156 1    
    68   33  157 1    
    69   33  158 1    
    70   34   35 am   BACKBONE|DICT|INTERRES
    71   34  159 1    
    72   35   36 2    
    73   35   37 1    
    74   37   38 1    
    75   37   39 1    
    76   37  160 1    
    77   38  161 1    
    78   38  162 1    
    79   38  163 1    
    80   39   40 am   BACKBONE|DICT|INTERRES
    81   39  164 1    
    82   40   41 2    
    83   40   42 1    
    84   42   43 1    
    85   42   44 1    
    86   42  165 1    
    87   43  166 1    
    88   43  167 1    
    89   43  168 1    
    90   44   45 am   BACKBONE|DICT|INTERRES
    91   44  169 1    
    92   45   46 2    
    93   45   47 1    
    94   47   48 1    
    95   47   49 1    
    96   47  170 1    
    97   48  171 1    
    98   48  172 1    
    99   48  173 1    
   100   49   50 am   BACKBONE|DICT|INTERRES
   101   49  174 1    
   102   50   51 2    
   103   50   52 1    
   104   52   53 1    
   105   52   54 1    
   106   52  175 1    
   107   53  176 1    
   108   53  177 1    
   109   53  178 1    
   110   54   55 am   BACKBONE|DICT|INTERRES
   111   54  179 1    
   112   55   56 2    
   113   55   57 1    
   114   57   58 1    
   115   57   59 1    
   116   57  180 1    
   117   58  181 1    
   118   58  182 1    
   119   58  183 1    
   120   59   60 am   BACKBONE|DICT|INTERRES
   121   59  184 1    
   122   60   61 2    
   123   60   62 1    
   124   62   63 1    
   125   62   64 1    
   126   62  185 1    
   127   63  186 1    
   128   63  187 1    
   129   63  188 1    
   130   64   65 am   BACKBONE|DICT|INTERRES
   131   64  189 1    
   132   65   66 2    
   133   67   68 2    
   134   67   69 am   BACKBONE|DICT|INTERRES
   135   69   70 1    
   136   69  190 1    
   137   70   71 1    
   138   70   72 1    
   139   70  191 1    
   140   71  192 1    
   141   71  193 1    
   142   71  194 1    
   143   72   73 2    
   144   72   74 am   BACKBONE|DICT|INTERRES
   145   74   75 1    
   146   74  195 1    
   147   75   76 1    
   148   75   77 1    
   149   75  196 1    
   150   76  197 1    
   151   76  198 1    
   152   76  199 1    
   153   77   78 2    
   154   77   79 am   BACKBONE|DICT|INTERRES
   155   79   80 1    
   156   79  200 1    
   157   80   81 1    
   158   80   82 1    
   159   80  201 1    
   160   81  202 1    
   161   81  203 1    
   162   81  204 1    
   163   82   83 2    
   164   82   84 am   BACKBONE|DICT|INTERRES
   165   84   85 1    
   166   84  205 1    
   167   85   86 1    
   168   85   87 1    
   169   85  206 1    
   170   86  207 1    
   171   86  208 1    
   172   86  209 1    
   173   87   88 2    
   174   87   89 am   BACKBONE|DICT|INTERRES
   175   89   90 1    
   176   89  210 1    
   177   90   91 1    
   178   90   92 1    
   179   90  211 1    
   180   91  212 1    
   181   91  213 1    
   182   91  214 1    
   183   92   93 2    
   184   92   94 am   BACKBONE|DICT|INTERRES
   185   94   95 1    
   186   94  215 1    
   187   95   96 1    
   188   95   97 1    
   189   95  216 1    
   190   96  217 1    
   191   96  218 1    
   192   96  219 1    
   193   97   98 2    
   194   97   99 am   BACKBONE|DICT|INTERRES
   195   99  100 1    
   196   99  220 1    
   197  100  101 1    
   198  100  102 1    
   199  100  221 1    
   200  101  222 1    
   201  101  223 1    
   202  101  224 1    
   203  102  103 2    
   204  102  104 am   BACKBONE|DICT|INTERRES
   205  104  105 1    
   206  104  225 1    
   207  105  106 1    
   208  105  107 1    
   209  105  226 1    
   210  106  227 1    
   211  106  228 1    
   212  106  229 1    
   213  107  108 2    
   214  107  109 am   BACKBONE|DICT|INTERRES
   215  109  110 1    
   216  109  230 1    
   217  110  111 1    
   218  110  112 1    
   219  110  231 1    
   220  111  232 1    
   221  111  233 1    
   222  111  234 1    
   223  112  113 2    
   224  112  114 am   BACKBONE|DICT|INTERRES
   225  114  115 1    
   226  114  235 1    
   227  115  116 1    
   228  115  117 1    
   229  115  236 1    
   230  116  237 1    
   231  116  238 1    
   232  116  239 1    
   233  117  118 2    
   234  117  119 am   BACKBONE|DICT|INTERRES
   235  119  120 1    
   236  119  240 1    
   237  120  121 1    
   238  120  124 1    
   239  120  241 1    
   240  121  122 am   BACKBONE|DICT|INTERRES
   241  121  123 2    
   242  122  242 1    
   243  122  243 1    
   244  124  125 1    
   245  124  244 1    
   246  124  245 1    
   247  125  126 1    
   248  126  246 1    
   249  126  247 1    
@<TRIPOS>SUBSTRUCTURE
     1 UNK         1 GROUP             0       ****    0 ROOT    
