@<TRIPOS>MOLECULE
3R540
247   249    1
SMALL
USER_CHARGES


@<TRIPOS>ATOM
      1 CA         -3.0211  -15.7289  -44.5706 C.3       0 UNK        -0.1800 
      2 C          -2.8068  -14.2837  -44.9949 C.2       0 UNK         0.5000 
      3 O          -3.2903  -13.3688  -44.3274 O.2       0 UNK        -0.5000 
      4 N          -2.0927  -14.0790  -46.1075 N.am      1 UNK        -0.5000 
      5 CA         -1.6808  -12.7686  -46.6190 C.3       1 UNK         0.1400 
      6 C6         -1.3151  -12.8315  -48.1259 C.3       23 UNK        -0.0398 
      7 S7         -0.0476  -14.0730  -48.5721 S.3       23 UNK        -0.2404 
      8 C8         -1.0497  -15.3144  -49.4520 C.3       23 UNK        -0.0205 
      9 C9         -0.1723  -16.3385  -50.1560 C.ar      23 UNK        -0.0193 
     10 C10         0.4295  -16.0138  -51.3762 C.ar      23 UNK        -0.1150 
     11 C11         1.2349  -16.9417  -52.0422 C.ar      23 UNK        -0.0193 
     12 C12         1.4463  -18.1983  -51.4710 C.ar      23 UNK        -0.1150 
     13 C13         0.8227  -18.5508  -50.2719 C.ar      23 UNK        -0.0193 
     14 C14         0.0182  -17.6141  -49.6127 C.ar      23 UNK        -0.1150 
     15 C15         0.9642  -19.9692  -49.7424 C.3       23 UNK        -0.0205 
     16 S16         1.7192  -20.0392  -48.0876 S.3       23 UNK        -0.2404 
     17 C17         1.8447  -21.8437  -47.8429 C.3       23 UNK        -0.0398 
     18 CA          0.6597  -22.5333  -47.1196 C.3       11 UNK         0.1400 
     19 N           0.5605  -22.2308  -45.6891 N.am      11 UNK        -0.5000 
     20 C          -0.1103  -23.0159  -44.8306 C.2       10 UNK         0.5000 
     21 O          -0.6762  -24.0590  -45.1646 O.2       10 UNK        -0.5000 
     22 CA         -0.2071  -22.5480  -43.3680 C.3       10 UNK         0.1400 
     23 CB          1.1070  -22.8007  -42.6139 C.3       10 UNK        -0.1800 
     24 N          -0.5911  -21.1425  -43.2493 N.am      10 UNK        -0.5000 
     25 C          -1.7659  -20.6442  -43.6607 C.2       9 UNK         0.5000 
     26 O          -2.6587  -21.3223  -44.1685 O.2       9 UNK        -0.5000 
     27 CA         -1.9646  -19.1268  -43.5133 C.3       9 UNK         0.1400 
     28 CB         -2.3756  -18.7715  -42.0765 C.3       9 UNK        -0.1800 
     29 N          -0.7726  -18.3688  -43.8917 N.am      9 UNK        -0.5000 
     30 C          -0.2508  -18.3453  -45.1265 C.2       8 UNK         0.5000 
     31 O          -0.7595  -18.9147  -46.0890 O.2       8 UNK        -0.5000 
     32 CA          1.0806  -17.5972  -45.3079 C.3       8 UNK         0.1400 
     33 CB          0.8427  -16.0875  -45.4123 C.3       8 UNK        -0.1800 
     34 N           2.0313  -17.8831  -44.2355 N.am      8 UNK        -0.5000 
     35 C           2.5253  -19.0984  -43.9567 C.2       7 UNK         0.5000 
     36 O           2.2705  -20.1131  -44.6056 O.2       7 UNK        -0.5000 
     37 CA          3.4117  -19.2059  -42.7055 C.3       7 UNK         0.1400 
     38 CB          4.8635  -18.8160  -43.0223 C.3       7 UNK        -0.1800 
     39 N           2.9013  -18.3752  -41.6150 N.am      7 UNK        -0.5000 
     40 C           1.7974  -18.6562  -40.9086 C.2       6 UNK         0.5000 
     41 O           1.1222  -19.6731  -41.0719 O.2       6 UNK        -0.5000 
     42 CA          1.3550  -17.6026  -39.8753 C.3       6 UNK         0.1400 
     43 CB          2.1609  -17.7432  -38.5753 C.3       6 UNK        -0.1800 
     44 N           1.4780  -16.2326  -40.3793 N.am      6 UNK        -0.5000 
     45 C           0.7333  -15.7307  -41.3741 C.2       5 UNK         0.5000 
     46 O          -0.1591  -16.3619  -41.9372 O.2       5 UNK        -0.5000 
     47 CA          1.0557  -14.3017  -41.8501 C.3       5 UNK         0.1400 
     48 CB          0.2159  -13.2725  -41.0800 C.3       5 UNK        -0.1800 
     49 N           2.4706  -13.9245  -41.7799 N.am      5 UNK        -0.5000 
     50 C           3.4856  -14.5793  -42.3625 C.2       4 UNK         0.5000 
     51 O           3.3632  -15.6620  -42.9369 O.2       4 UNK        -0.5000 
     52 CA          4.8562  -13.8773  -42.2923 C.3       4 UNK         0.1400 
     53 CB          5.9927  -14.6911  -42.9476 C.3       4 UNK        -0.1800 
     54 N           4.7890  -12.5132  -42.8346 N.am      4 UNK        -0.5000 
     55 C           4.4879  -12.1542  -44.0929 C.2       3 UNK         0.5000 
     56 O           4.3004  -12.9492  -45.0146 O.2       3 UNK        -0.5000 
     57 CA          4.3634  -10.6385  -44.3413 C.3       3 UNK         0.1400 
     58 CB          5.2187  -10.1599  -45.5326 C.3       3 UNK        -0.1800 
     59 N           2.9569  -10.2351  -44.4592 N.am      3 UNK        -0.5000 
     60 C           2.0940  -10.4795  -45.4577 C.2       2 UNK         0.5000 
     61 O           2.3919  -10.9782  -46.5453 O.2       2 UNK        -0.5000 
     62 CA          0.6411  -10.0294  -45.1971 C.3       2 UNK         0.1400 
     63 CB          0.4614   -8.5499  -45.5739 C.3       2 UNK        -0.1800 
     64 N          -0.3536  -10.8227  -45.9241 N.am      2 UNK        -0.5000 
     65 C          -0.5655  -12.1350  -45.7518 C.2       1 UNK         0.5000 
     66 O           0.0584  -12.8201  -44.9383 O.2       1 UNK        -0.5000 
     67 C          -0.6904  -22.3630  -47.8453 C.2       11 UNK         0.5000 
     68 O          -0.9918  -23.1644  -48.7280 O.2       11 UNK        -0.5000 
     69 N          -1.4983  -21.3646  -47.4517 N.am      12 UNK        -0.5000 
     70 CA         -2.8485  -21.1530  -47.9765 C.3       12 UNK         0.1400 
     71 CB         -3.4317  -19.8273  -47.4685 C.3       12 UNK        -0.1800 
     72 C          -3.7893  -22.3227  -47.6498 C.2       12 UNK         0.5000 
     73 O          -4.5275  -22.7579  -48.5319 O.2       12 UNK        -0.5000 
     74 N          -3.7160  -22.8448  -46.4172 N.am      13 UNK        -0.5000 
     75 CA         -4.4447  -24.0359  -45.9785 C.3       13 UNK         0.1400 
     76 CB         -4.2380  -24.2506  -44.4720 C.3       13 UNK        -0.1800 
     77 C          -4.0531  -25.2933  -46.7762 C.2       13 UNK         0.5000 
     78 O          -4.9383  -26.0275  -47.2172 O.2       13 UNK        -0.5000 
     79 N          -2.7445  -25.4841  -47.0038 N.am      14 UNK        -0.5000 
     80 CA         -2.1952  -26.5531  -47.8454 C.3       14 UNK         0.1400 
     81 CB         -0.6653  -26.5748  -47.7124 C.3       14 UNK        -0.1800 
     82 C          -2.6176  -26.4353  -49.3254 C.2       14 UNK         0.5000 
     83 O          -2.8455  -27.4535  -49.9783 O.2       14 UNK        -0.5000 
     84 N          -2.7664  -25.1949  -49.8070 N.am      15 UNK        -0.5000 
     85 CA         -3.2764  -24.8289  -51.1295 C.3       15 UNK         0.1400 
     86 CB         -2.6770  -23.4666  -51.5217 C.3       15 UNK        -0.1800 
     87 C          -4.8202  -24.8205  -51.2205 C.2       15 UNK         0.5000 
     88 O          -5.3556  -24.2795  -52.1898 O.2       15 UNK        -0.5000 
     89 N          -5.5067  -25.4085  -50.2274 N.am      16 UNK        -0.5000 
     90 CA         -6.9589  -25.5801  -50.1181 C.3       16 UNK         0.1400 
     91 CB         -7.4899  -26.4894  -51.2468 C.3       16 UNK        -0.1800 
     92 C          -7.7026  -24.2347  -50.0194 C.2       16 UNK         0.5000 
     93 O          -8.5921  -23.9534  -50.8221 O.2       16 UNK        -0.5000 
     94 N          -7.2882  -23.4144  -49.0442 N.am      17 UNK        -0.5000 
     95 CA         -7.7208  -22.0313  -48.8039 C.3       17 UNK         0.1400 
     96 CB         -9.2204  -21.9589  -48.4470 C.3       17 UNK        -0.1800 
     97 C          -7.3166  -21.1014  -49.9667 C.2       17 UNK         0.5000 
     98 O          -8.0984  -20.2498  -50.3923 O.2       17 UNK        -0.5000 
     99 N          -6.0908  -21.3191  -50.4646 N.am      18 UNK        -0.5000 
    100 CA        -5.4354  -20.6524  -51.5930 C.3       18 UNK         0.1400 
    101 CB        -5.1853  -19.1627  -51.2816 C.3       18 UNK        -0.1800 
    102 C         -6.1248  -20.8682  -52.9584 C.2       18 UNK         0.5000 
    103 O         -5.8106  -20.1507  -53.9087 O.2       18 UNK        -0.5000 
    104 N         -7.0112  -21.8694  -53.0653 N.am      19 UNK        -0.5000 
    105 CA        -7.7123  -22.2397  -54.2980 C.3       19 UNK         0.1400 
    106 CB        -8.8113  -23.2618  -53.9772 C.3       19 UNK        -0.1800 
    107 C         -6.7732  -22.7857  -55.3895 C.2       19 UNK         0.5000 
    108 O         -7.0374  -22.5777  -56.5743 O.2       19 UNK        -0.5000 
    109 N         -5.6794  -23.4411  -54.9757 N.am      20 UNK        -0.5000 
    110 CA        -4.6092  -23.9099  -55.8596 C.3       20 UNK         0.1400 
    111 CB        -3.8146  -25.0110  -55.1395 C.3       20 UNK        -0.1800 
    112 C         -3.6705  -22.7803  -56.3408 C.2       20 UNK         0.5000 
    113 O         -2.8603  -23.0232  -57.2367 O.2       20 UNK        -0.5000 
    114 N         -3.7943  -21.5805  -55.7496 N.am      21 UNK        -0.5000 
    115 CA        -2.9980  -20.3729  -55.9900 C.3       21 UNK         0.1400 
    116 CB        -3.2457  -19.8360  -57.4177 C.3       21 UNK        -0.1800 
    117 C         -1.5028  -20.5635  -55.6466 C.2       21 UNK         0.5000 
    118 O         -1.1659  -21.4199  -54.8248 O.2       21 UNK        -0.5000 
    119 N         -0.6352  -19.7427  -56.2484 N.am      22 UNK        -0.5000 
    120 CA         0.8207  -19.7536  -56.0357 C.3       22 UNK         0.1400 
    121 C          1.6478  -19.3722  -57.2984 C.2       22 UNK         0.5000 
    122 N          1.0610  -19.3294  -58.4894 N.am      22 UNK        -0.7600 
    123 O          2.8494  -19.1349  -57.2083 O.2       22 UNK        -0.5000 
    124 C124        1.2332  -18.9845  -54.7516 C.3       23 UNK        -0.0398 
    125 S125        0.8508  -17.1958  -54.7790 S.3       23 UNK        -0.2404 
    126 C126        1.8621  -16.5950  -53.3851 C.3       23 UNK        -0.0205 
    127 H127       -2.4549  -15.9331  -43.6623 H         1 UNK         0.0600 
    128 H128       -2.6976  -16.4292  -45.3411 H         1 UNK         0.0600 
    129 H129       -4.0758  -15.9133  -44.3668 H         1 UNK         0.0600 
    130 H130       -1.6888  -14.8668  -46.5902 H         1 UNK         0.3000 
    131 H131       -2.5445  -12.1056  -46.5321 H         1 UNK         0.0600 
    132 H132       -0.9702  -11.8585  -48.4790 H         1 UNK         0.0800 
    133 H133       -2.2218  -13.0308  -48.6984 H         1 UNK         0.0800 
    134 H134       -1.6807  -14.8194  -50.1919 H         1 UNK         0.0800 
    135 H135       -1.7237  -15.8057  -48.7487 H         1 UNK         0.0800 
    136 H136        0.2662  -15.0366  -51.8088 H         1 UNK         0.1150 
    137 H137        2.0695  -18.9178  -51.9823 H         1 UNK         0.1150 
    138 H138       -0.4645  -17.8855  -48.6836 H         1 UNK         0.1150 
    139 H139       -0.0278  -20.4179  -49.7220 H         1 UNK         0.0800 
    140 H140        1.5597  -20.5746  -50.4274 H         1 UNK         0.0800 
    141 H141        2.7599  -22.0308  -47.2798 H         1 UNK         0.0800 
    142 H142        2.0065  -22.3182  -48.8122 H         1 UNK         0.0800 
    143 H143        0.8844  -23.6008  -47.1800 H         1 UNK         0.0600 
    144 H144        1.0236  -21.3885  -45.3557 H         1 UNK         0.3000 
    145 H145       -0.9867  -23.1413  -42.8854 H         1 UNK         0.0600 
    146 H146        1.0168  -22.5269  -41.5625 H         1 UNK         0.0600 
    147 H147        1.3809  -23.8556  -42.6532 H         1 UNK         0.0600 
    148 H148        1.9347  -22.2324  -43.0368 H         1 UNK         0.0600 
    149 H149        0.0817  -20.5190  -42.8196 H         1 UNK         0.3000 
    150 H150       -2.7761  -18.8311  -44.1809 H         1 UNK         0.0600 
    151 H151       -3.2598  -19.3330  -41.7726 H         1 UNK         0.0600 
    152 H152       -2.6171  -17.7130  -41.9841 H         1 UNK         0.0600 
    153 H153       -1.5817  -18.9953  -41.3632 H         1 UNK         0.0600 
    154 H154       -0.3364  -17.8138  -43.1605 H         1 UNK         0.3000 
    155 H155        1.5358  -17.9235  -46.2422 H         1 UNK         0.0600 
    156 H156        0.2883  -15.7048  -44.5575 H         1 UNK         0.0600 
    157 H157        0.2586  -15.8602  -46.3023 H         1 UNK         0.0600 
    158 H158        1.7789  -15.5334  -45.4857 H         1 UNK         0.0600 
    159 H159        2.3459  -17.0942  -43.6768 H         1 UNK         0.3000 
    160 H160        3.4059  -20.2473  -42.3769 H         1 UNK         0.0600 
    161 H161        5.5003  -18.9169  -42.1434 H         1 UNK         0.0600 
    162 H162        4.9404  -17.7879  -43.3769 H         1 UNK         0.0600 
    163 H163        5.2764  -19.4604  -43.7993 H         1 UNK         0.0600 
    164 H164        3.3501  -17.4799  -41.4822 H         1 UNK         0.3000 
    165 H165        0.3033  -17.7864  -39.6446 H         1 UNK         0.0600 
    166 H166        1.7989  -17.0552  -37.8111 H         1 UNK         0.0600 
    167 H167        2.0740  -18.7523  -38.1702 H         1 UNK         0.0600 
    168 H168        3.2214  -17.5428  -38.7329 H         1 UNK         0.0600 
    169 H169        2.1928  -15.6506  -39.9684 H         1 UNK         0.3000 
    170 H170        0.7687  -14.2444  -42.8989 H         1 UNK         0.0600 
    171 H171       -0.8463  -13.5149  -41.1374 H         1 UNK         0.0600 
    172 H172        0.4898  -13.2367  -40.0249 H         1 UNK         0.0600 
    173 H173        0.3398  -12.2727  -41.4968 H         1 UNK         0.0600 
    174 H174        2.6704  -13.0437  -41.3297 H         1 UNK         0.3000 
    175 H175        5.0983  -13.7792  -41.2331 H         1 UNK         0.0600 
    176 H176        5.7991  -14.8922  -44.0015 H         1 UNK         0.0600 
    177 H177        6.9454  -14.1667  -42.8755 H         1 UNK         0.0600 
    178 H178        6.1141  -15.6547  -42.4516 H         1 UNK         0.0600 
    179 H179        4.9285  -11.7776  -42.1555 H         1 UNK         0.3000 
    180 H180        4.7435  -10.1208  -43.4590 H         1 UNK         0.0600 
    181 H181        4.9654  -10.6757  -46.4589 H         1 UNK         0.0600 
    182 H182        6.2767  -10.3442  -45.3433 H         1 UNK         0.0600 
    183 H183        5.0991   -9.0895  -45.7001 H         1 UNK         0.0600 
    184 H184        2.5831   -9.7978  -43.6284 H         1 UNK         0.3000 
    185 H185        0.4328  -10.1434  -44.1310 H         1 UNK         0.0600 
    186 H186        1.1619   -7.9171  -45.0275 H         1 UNK         0.0600 
    187 H187        0.6324   -8.3837  -46.6383 H         1 UNK         0.0600 
    188 H188       -0.5430   -8.1996  -45.3354 H         1 UNK         0.0600 
    189 H189       -0.8901  -10.3260  -46.6197 H         1 UNK         0.3000 
    190 H190       -1.1645  -20.6891  -46.7692 H         1 UNK         0.3000 
    191 H191       -2.7730  -21.0832  -49.0630 H         1 UNK         0.0600 
    192 H192       -3.4711  -19.7948  -46.3799 H         1 UNK         0.0600 
    193 H193       -4.4469  -19.6788  -47.8388 H         1 UNK         0.0600 
    194 H194       -2.8366  -18.9803  -47.8099 H         1 UNK         0.0600 
    195 H195       -3.1214  -22.3948  -45.7264 H         1 UNK         0.3000 
    196 H196       -5.5077  -23.8540  -46.1492 H         1 UNK         0.0600 
    197 H197       -4.7827  -25.1289  -44.1236 H         1 UNK         0.0600 
    198 H198       -4.5998  -23.3958  -43.9004 H         1 UNK         0.0600 
    199 H199       -3.1865  -24.3955  -44.2239 H         1 UNK         0.0600 
    200 H200       -2.0791  -24.8460  -46.5812 H         1 UNK         0.3000 
    201 H201       -2.5812  -27.5020  -47.4674 H         1 UNK         0.0600 
    202 H202       -0.3606  -26.6945  -46.6725 H         1 UNK         0.0600 
    203 H203       -0.2141  -25.6575  -48.0897 H         1 UNK         0.0600 
    204 H204       -0.2375  -27.4051  -48.2756 H         1 UNK         0.0600 
    205 H205       -2.4882  -24.4199  -49.2137 H         1 UNK         0.3000 
    206 H206       -2.9277  -25.5668  -51.8543 H         1 UNK         0.0600 
    207 H207       -1.5888  -23.5159  -51.5625 H         1 UNK         0.0600 
    208 H208       -3.0190  -23.1338  -52.5018 H         1 UNK         0.0600 
    209 H209       -2.9438  -22.6950  -50.8019 H         1 UNK         0.0600 
    210 H210       -4.9755  -25.7725  -49.4467 H         1 UNK         0.3000 
    211 H211       -7.1359  -26.0970  -49.1738 H         1 UNK         0.0600 
    212 H212       -8.5523  -26.6958  -51.1128 H         1 UNK         0.0600 
    213 H213       -6.9716  -27.4481  -51.2552 H         1 UNK         0.0600 
    214 H214       -7.3683  -26.0353  -52.2303 H         1 UNK         0.0600 
    215 H215       -6.4748  -23.7011  -48.5137 H         1 UNK         0.3000 
    216 H216       -7.1621  -21.6858  -47.9328 H         1 UNK         0.0600 
    217 H217       -9.4947  -20.9528  -48.1279 H         1 UNK         0.0600 
    218 H218       -9.4638  -22.6363  -47.6286 H         1 UNK         0.0600 
    219 H219       -9.8561  -22.2140  -49.2951 H         1 UNK         0.0600 
    220 H220       -5.5377  -22.0344  -50.0005 H         1 UNK         0.3000 
    221 H221       -4.4589  -21.1255  -51.6882 H         1 UNK         0.0600 
    222 H222       -6.1165  -18.5983  -51.2286 H         1 UNK         0.0600 
    223 H223       -4.6630  -19.0405  -50.3328 H         1 UNK         0.0600 
    224 H224       -4.5662  -18.6988  -52.0503 H         1 UNK         0.0600 
    225 H225       -7.1868  -22.4492  -52.2552 H         1 UNK         0.3000 
    226 H226       -8.1893  -21.3402  -54.6926 H         1 UNK         0.0600 
    227 H227       -9.5194  -22.8647  -53.2497 H         1 UNK         0.0600 
    228 H228       -9.3765  -23.5233  -54.8725 H         1 UNK         0.0600 
    229 H229       -8.3935  -24.1837  -53.5713 H         1 UNK         0.0600 
    230 H230       -5.5609  -23.6131  -53.9796 H         1 UNK         0.3000 
    231 H231       -5.0653  -24.3528  -56.7474 H         1 UNK         0.0600 
    232 H232       -4.4691  -25.8113  -54.7937 H         1 UNK         0.0600 
    233 H233       -3.2774  -24.6197  -54.2769 H         1 UNK         0.0600 
    234 H234       -3.0769  -25.4589  -55.8064 H         1 UNK         0.0600 
    235 H235       -4.5048  -21.4805  -55.0363 H         1 UNK         0.3000 
    236 H236       -3.3732  -19.6267  -55.2883 H         1 UNK         0.0600 
    237 H237       -2.7843  -20.4690  -58.1764 H         1 UNK         0.0600 
    238 H238       -4.3128  -19.7832  -57.6347 H         1 UNK         0.0600 
    239 H239       -2.8498  -18.8275  -57.5399 H         1 UNK         0.0600 
    240 H240       -0.9794  -19.0292  -56.8741 H         1 UNK         0.3000 
    241 H241        1.1071  -20.7943  -55.8720 H         1 UNK         0.0600 
    242 H242        0.0968  -19.5923  -58.6121 H         1 UNK         0.3800 
    243 H243        1.6140  -19.0873  -59.2972 H         1 UNK         0.3800 
    244 H244        2.2992  -19.1190  -54.5621 H         1 UNK         0.0800 
    245 H245        0.7217  -19.4264  -53.8962 H         1 UNK         0.0800 
    246 H246        2.8706  -17.0061  -53.4502 H         1 UNK         0.0800 
    247 H247        1.9715  -15.5131  -53.4746 H         1 UNK         0.0800 
@<TRIPOS>BOND
     1    1    2 1    
     2    1  127 1    
     3    1  128 1    
     4    1  129 1    
     5    2    3 2    
     6    2    4 am   BACKBONE|DICT|INTERRES
     7    4    5 1    
     8    4  130 1    
     9    5    6 1    
    10    5   65 1    
    11    5  131 1    
    12    6    7 1    
    13    6  132 1    
    14    6  133 1    
    15    7    8 1    
    16    8    9 1    
    17    8  134 1    
    18    8  135 1    
    19    9   10 ar   
    20    9   14 ar   
    21   10   11 ar   
    22   10  136 1    
    23   11   12 ar   
    24   11  126 1    
    25   12   13 ar   
    26   12  137 1    
    27   13   14 ar   
    28   13   15 1    
    29   14  138 1    
    30   15   16 1    
    31   15  139 1    
    32   15  140 1    
    33   16   17 1    
    34   17   18 1    
    35   17  141 1    
    36   17  142 1    
    37   18   19 1    
    38   18   67 1    
    39   18  143 1    
    40   19   20 am   BACKBONE|DICT|INTERRES
    41   19  144 1    
    42   20   21 2    
    43   20   22 1    
    44   22   23 1    
    45   22   24 1    
    46   22  145 1    
    47   23  146 1    
    48   23  147 1    
    49   23  148 1    
    50   24   25 am   BACKBONE|DICT|INTERRES
    51   24  149 1    
    52   25   26 2    
    53   25   27 1    
    54   27   28 1    
    55   27   29 1    
    56   27  150 1    
    57   28  151 1    
    58   28  152 1    
    59   28  153 1    
    60   29   30 am   BACKBONE|DICT|INTERRES
    61   29  154 1    
    62   30   31 2    
    63   30   32 1    
    64   32   33 1    
    65   32   34 1    
    66   32  155 1    
    67   33  156 1    
    68   33  157 1    
    69   33  158 1    
    70   34   35 am   BACKBONE|DICT|INTERRES
    71   34  159 1    
    72   35   36 2    
    73   35   37 1    
    74   37   38 1    
    75   37   39 1    
    76   37  160 1    
    77   38  161 1    
    78   38  162 1    
    79   38  163 1    
    80   39   40 am   BACKBONE|DICT|INTERRES
    81   39  164 1    
    82   40   41 2    
    83   40   42 1    
    84   42   43 1    
    85   42   44 1    
    86   42  165 1    
    87   43  166 1    
    88   43  167 1    
    89   43  168 1    
    90   44   45 am   BACKBONE|DICT|INTERRES
    91   44  169 1    
    92   45   46 2    
    93   45   47 1    
    94   47   48 1    
    95   47   49 1    
    96   47  170 1    
    97   48  171 1    
    98   48  172 1    
    99   48  173 1    
   100   49   50 am   BACKBONE|DICT|INTERRES
   101   49  174 1    
   102   50   51 2    
   103   50   52 1    
   104   52   53 1    
   105   52   54 1    
   106   52  175 1    
   107   53  176 1    
   108   53  177 1    
   109   53  178 1    
   110   54   55 am   BACKBONE|DICT|INTERRES
   111   54  179 1    
   112   55   56 2    
   113   55   57 1    
   114   57   58 1    
   115   57   59 1    
   116   57  180 1    
   117   58  181 1    
   118   58  182 1    
   119   58  183 1    
   120   59   60 am   BACKBONE|DICT|INTERRES
   121   59  184 1    
   122   60   61 2    
   123   60   62 1    
   124   62   63 1    
   125   62   64 1    
   126   62  185 1    
   127   63  186 1    
   128   63  187 1    
   129   63  188 1    
   130   64   65 am   BACKBONE|DICT|INTERRES
   131   64  189 1    
   132   65   66 2    
   133   67   68 2    
   134   67   69 am   BACKBONE|DICT|INTERRES
   135   69   70 1    
   136   69  190 1    
   137   70   71 1    
   138   70   72 1    
   139   70  191 1    
   140   71  192 1    
   141   71  193 1    
   142   71  194 1    
   143   72   73 2    
   144   72   74 am   BACKBONE|DICT|INTERRES
   145   74   75 1    
   146   74  195 1    
   147   75   76 1    
   148   75   77 1    
   149   75  196 1    
   150   76  197 1    
   151   76  198 1    
   152   76  199 1    
   153   77   78 2    
   154   77   79 am   BACKBONE|DICT|INTERRES
   155   79   80 1    
   156   79  200 1    
   157   80   81 1    
   158   80   82 1    
   159   80  201 1    
   160   81  202 1    
   161   81  203 1    
   162   81  204 1    
   163   82   83 2    
   164   82   84 am   BACKBONE|DICT|INTERRES
   165   84   85 1    
   166   84  205 1    
   167   85   86 1    
   168   85   87 1    
   169   85  206 1    
   170   86  207 1    
   171   86  208 1    
   172   86  209 1    
   173   87   88 2    
   174   87   89 am   BACKBONE|DICT|INTERRES
   175   89   90 1    
   176   89  210 1    
   177   90   91 1    
   178   90   92 1    
   179   90  211 1    
   180   91  212 1    
   181   91  213 1    
   182   91  214 1    
   183   92   93 2    
   184   92   94 am   BACKBONE|DICT|INTERRES
   185   94   95 1    
   186   94  215 1    
   187   95   96 1    
   188   95   97 1    
   189   95  216 1    
   190   96  217 1    
   191   96  218 1    
   192   96  219 1    
   193   97   98 2    
   194   97   99 am   BACKBONE|DICT|INTERRES
   195   99  100 1    
   196   99  220 1    
   197  100  101 1    
   198  100  102 1    
   199  100  221 1    
   200  101  222 1    
   201  101  223 1    
   202  101  224 1    
   203  102  103 2    
   204  102  104 am   BACKBONE|DICT|INTERRES
   205  104  105 1    
   206  104  225 1    
   207  105  106 1    
   208  105  107 1    
   209  105  226 1    
   210  106  227 1    
   211  106  228 1    
   212  106  229 1    
   213  107  108 2    
   214  107  109 am   BACKBONE|DICT|INTERRES
   215  109  110 1    
   216  109  230 1    
   217  110  111 1    
   218  110  112 1    
   219  110  231 1    
   220  111  232 1    
   221  111  233 1    
   222  111  234 1    
   223  112  113 2    
   224  112  114 am   BACKBONE|DICT|INTERRES
   225  114  115 1    
   226  114  235 1    
   227  115  116 1    
   228  115  117 1    
   229  115  236 1    
   230  116  237 1    
   231  116  238 1    
   232  116  239 1    
   233  117  118 2    
   234  117  119 am   BACKBONE|DICT|INTERRES
   235  119  120 1    
   236  119  240 1    
   237  120  121 1    
   238  120  124 1    
   239  120  241 1    
   240  121  122 am   BACKBONE|DICT|INTERRES
   241  121  123 2    
   242  122  242 1    
   243  122  243 1    
   244  124  125 1    
   245  124  244 1    
   246  124  245 1    
   247  125  126 1    
   248  126  246 1    
   249  126  247 1    
@<TRIPOS>SUBSTRUCTURE
     1 UNK         1 GROUP             0       ****    0 ROOT    
