@<TRIPOS>MOLECULE
3R540
247   249    1
SMALL
USER_CHARGES


@<TRIPOS>ATOM
      1 CA          6.9114  -10.8066  -47.2996 C.3       0 UNK        -0.1800 
      2 C           5.7395  -11.7459  -47.0520 C.2       0 UNK         0.5000 
      3 O           5.5322  -12.1804  -45.9192 O.2       0 UNK        -0.5000 
      4 N           4.9727  -12.0576  -48.1059 N.am      1 UNK        -0.5000 
      5 CA          3.7946  -12.9360  -48.0564 C.3       1 UNK         0.1400 
      6 C6          3.4588  -13.5100  -49.4613 C.3       23 UNK        -0.0398 
      7 S7          3.0387  -15.2838  -49.4117 S.3       23 UNK        -0.2404 
      8 C8          4.6900  -16.0227  -49.6171 C.3       23 UNK        -0.0205 
      9 C9          4.6497  -17.5426  -49.5423 C.ar      23 UNK        -0.0193 
     10 C10         4.0339  -18.2746  -50.5599 C.ar      23 UNK        -0.1150 
     11 C11         4.0046  -19.6722  -50.5212 C.ar      23 UNK        -0.0193 
     12 C12         4.6253  -20.3390  -49.4596 C.ar      23 UNK        -0.1150 
     13 C13         5.2733  -19.6201  -48.4499 C.ar      23 UNK        -0.0193 
     14 C14         5.2654  -18.2218  -48.4868 C.ar      23 UNK        -0.1150 
     15 C15         6.0366  -20.3487  -47.3527 C.3       23 UNK        -0.0205 
     16 S16         5.0307  -20.6080  -45.8619 S.3       23 UNK        -0.2404 
     17 C17         3.9997  -22.0334  -46.3502 C.3       23 UNK        -0.0398 
     18 CA          3.5276  -22.8446  -45.1171 C.3       11 UNK         0.1400 
     19 N           2.6112  -22.0602  -44.2824 N.am      11 UNK        -0.5000 
     20 C           2.3524  -22.2834  -42.9883 C.2       10 UNK         0.5000 
     21 O           2.8937  -23.1677  -42.3240 O.2       10 UNK        -0.5000 
     22 CA          1.2739  -21.3933  -42.3403 C.3       10 UNK         0.1400 
     23 CB          1.8783  -20.0650  -41.8607 C.3       10 UNK        -0.1800 
     24 N           0.1427  -21.1250  -43.2336 N.am      10 UNK        -0.5000 
     25 C          -0.7026  -22.0607  -43.6903 C.2       9 UNK         0.5000 
     26 O          -0.6343  -23.2508  -43.3833 O.2       9 UNK        -0.5000 
     27 CA         -1.7727  -21.6085  -44.6991 C.3       9 UNK         0.1400 
     28 CB         -2.9521  -20.9286  -43.9902 C.3       9 UNK        -0.1800 
     29 N          -1.2348  -20.7237  -45.7318 N.am      9 UNK        -0.5000 
     30 C          -0.3322  -21.0969  -46.6501 C.2       8 UNK         0.5000 
     31 O           0.0980  -22.2443  -46.7517 O.2       8 UNK        -0.5000 
     32 CA          0.2065  -20.0096  -47.5948 C.3       8 UNK         0.1400 
     33 CB         -0.7522  -19.7898  -48.7751 C.3       8 UNK        -0.1800 
     34 N           0.4502  -18.7420  -46.9089 N.am      8 UNK        -0.5000 
     35 C           1.2966  -18.5863  -45.8811 C.2       7 UNK         0.5000 
     36 O           1.9706  -19.4986  -45.4086 O.2       7 UNK        -0.5000 
     37 CA          1.3404  -17.2021  -45.2171 C.3       7 UNK         0.1400 
     38 CB          2.0945  -16.1879  -46.0852 C.3       7 UNK        -0.1800 
     39 N           0.0008  -16.6996  -44.9203 N.am      7 UNK        -0.5000 
     40 C          -0.8276  -17.2431  -44.0180 C.2       6 UNK         0.5000 
     41 O          -0.5371  -18.2078  -43.3106 O.2       6 UNK        -0.5000 
     42 CA         -2.2315  -16.6216  -43.9176 C.3       6 UNK         0.1400 
     43 CB         -2.2087  -15.3675  -43.0307 C.3       6 UNK        -0.1800 
     44 N          -2.7908  -16.2781  -45.2256 N.am      6 UNK        -0.5000 
     45 C          -3.1153  -17.1724  -46.1700 C.2       5 UNK         0.5000 
     46 O          -2.9636  -18.3872  -46.0486 O.2       5 UNK        -0.5000 
     47 CA         -3.6541  -16.5965  -47.4897 C.3       5 UNK         0.1400 
     48 CB         -5.0917  -16.0827  -47.3115 C.3       5 UNK        -0.1800 
     49 N          -2.8206  -15.5140  -48.0165 N.am      5 UNK        -0.5000 
     50 C          -1.5290  -15.6146  -48.3536 C.2       4 UNK         0.5000 
     51 O          -0.8792  -16.6515  -48.2508 O.2       4 UNK        -0.5000 
     52 CA         -0.8241  -14.3431  -48.8521 C.3       4 UNK         0.1400 
     53 CB         -1.1519  -14.0539  -50.3286 C.3       4 UNK        -0.1800 
     54 N          -1.0378  -13.1715  -47.9962 N.am      4 UNK        -0.5000 
     55 C          -2.1559  -12.4585  -47.7931 C.2       3 UNK         0.5000 
     56 O          -3.2367  -12.7180  -48.3238 O.2       3 UNK        -0.5000 
     57 CA         -2.0752  -11.2799  -46.8005 C.3       3 UNK         0.1400 
     58 CB         -2.8340  -11.6236  -45.5082 C.3       3 UNK        -0.1800 
     59 N          -0.7074  -10.8933  -46.4471 N.am      3 UNK        -0.5000 
     60 C           0.1617  -10.2768  -47.2591 C.2       2 UNK         0.5000 
     61 O          -0.1086   -9.9200  -48.4067 O.2       2 UNK        -0.5000 
     62 CA          1.5840  -10.0364  -46.7111 C.3       2 UNK         0.1400 
     63 CB          1.6921  -10.1435  -45.1729 C.3       2 UNK        -0.1800 
     64 N           2.5747  -10.9111  -47.3467 N.am      2 UNK        -0.5000 
     65 C           2.5714  -12.2540  -47.3967 C.2       1 UNK         0.5000 
     66 O           1.6649  -12.9501  -46.9374 O.2       1 UNK        -0.5000 
     67 C           2.9333  -24.2065  -45.5489 C.2       11 UNK         0.5000 
     68 O           3.6693  -25.0235  -46.1038 O.2       11 UNK        -0.5000 
     69 N           1.6310  -24.4278  -45.3045 N.am      12 UNK        -0.5000 
     70 CA          0.8289  -25.5938  -45.6976 C.3       12 UNK         0.1400 
     71 CB          1.2998  -26.8627  -44.9574 C.3       12 UNK        -0.1800 
     72 C           0.7458  -25.7772  -47.2300 C.2       12 UNK         0.5000 
     73 O           0.6961  -26.9054  -47.7234 O.2       12 UNK        -0.5000 
     74 N           0.7366  -24.6498  -47.9484 N.am      13 UNK        -0.5000 
     75 CA          0.6969  -24.5501  -49.4050 C.3       13 UNK         0.1400 
     76 CB          1.8116  -23.5860  -49.8417 C.3       13 UNK        -0.1800 
     77 C          -0.6719  -24.0619  -49.9186 C.2       13 UNK         0.5000 
     78 O          -0.9167  -24.1368  -51.1227 O.2       13 UNK        -0.5000 
     79 N          -1.5321  -23.5658  -49.0163 N.am      14 UNK        -0.5000 
     80 CA         -2.8854  -23.0866  -49.3048 C.3       14 UNK         0.1400 
     81 CB         -3.4760  -22.4452  -48.0378 C.3       14 UNK        -0.1800 
     82 C          -3.8308  -24.1892  -49.8162 C.2       14 UNK         0.5000 
     83 O          -3.6409  -25.3696  -49.5097 O.2       14 UNK        -0.5000 
     84 N          -4.8652  -23.7588  -50.5442 N.am      15 UNK        -0.5000 
     85 CA         -6.0011  -24.5836  -50.9490 C.3       15 UNK         0.1400 
     86 CB         -6.5013  -24.0968  -52.3220 C.3       15 UNK        -0.1800 
     87 C          -7.1035  -24.5567  -49.8701 C.2       15 UNK         0.5000 
     88 O          -6.9382  -23.9143  -48.8282 O.2       15 UNK        -0.5000 
     89 N          -8.2069  -25.2711  -50.1348 N.am      16 UNK        -0.5000 
     90 CA         -9.3742  -25.4196  -49.2592 C.3       16 UNK         0.1400 
     91 CB        -10.4560  -26.2183  -50.0020 C.3       16 UNK        -0.1800 
     92 C          -9.9463  -24.0784  -48.7582 C.2       16 UNK         0.5000 
     93 O          -9.9948  -23.1100  -49.5194 O.2       16 UNK        -0.5000 
     94 N         -10.3430  -24.0568  -47.4776 N.am      17 UNK        -0.5000 
     95 CA        -10.7917  -22.8856  -46.7111 C.3       17 UNK         0.1400 
     96 CB        -12.1004  -22.3065  -47.2903 C.3       17 UNK        -0.1800 
     97 C          -9.6887  -21.8173  -46.5245 C.2       17 UNK         0.5000 
     98 O         -10.0017  -20.6370  -46.3598 O.2       17 UNK        -0.5000 
     99 N          -8.4201  -22.2598  -46.5432 N.am      18 UNK        -0.5000 
    100 CA        -7.1911  -21.4648  -46.4335 C.3       18 UNK         0.1400 
    101 CB        -7.0647  -20.8348  -45.0300 C.3       18 UNK        -0.1800 
    102 C         -7.0339  -20.4379  -47.5752 C.2       18 UNK         0.5000 
    103 O         -6.5571  -19.3256  -47.3472 O.2       18 UNK        -0.5000 
    104 N         -7.4522  -20.8253  -48.7870 N.am      19 UNK        -0.5000 
    105 CA        -7.3612  -20.0066  -49.9926 C.3       19 UNK         0.1400 
    106 CB        -8.2472  -20.6183  -51.0858 C.3       19 UNK        -0.1800 
    107 C         -5.9043  -19.8596  -50.4668 C.2       19 UNK         0.5000 
    108 O         -5.1515  -20.8391  -50.4548 O.2       19 UNK        -0.5000 
    109 N         -5.5445  -18.6391  -50.8850 N.am      20 UNK        -0.5000 
    110 CA        -4.2035  -18.2182  -51.2947 C.3       20 UNK         0.1400 
    111 CB        -4.1439  -16.6793  -51.2841 C.3       20 UNK        -0.1800 
    112 C         -3.7741  -18.8014  -52.6567 C.2       20 UNK         0.5000 
    113 O         -3.5858  -18.0595  -53.6232 O.2       20 UNK        -0.5000 
    114 N         -3.5936  -20.1266  -52.7016 N.am      21 UNK        -0.5000 
    115 CA        -3.1251  -20.8976  -53.8594 C.3       21 UNK         0.1400 
    116 CB        -3.1317  -22.3873  -53.4937 C.3       21 UNK        -0.1800 
    117 C         -1.7335  -20.4762  -54.3762 C.2       21 UNK         0.5000 
    118 O         -1.4302  -20.6899  -55.5506 O.2       21 UNK        -0.5000 
    119 N         -0.9338  -19.8582  -53.4988 N.am      22 UNK        -0.5000 
    120 CA         0.3366  -19.1943  -53.8201 C.3       22 UNK         0.1400 
    121 C          0.1914  -17.9010  -54.6799 C.2       22 UNK         0.5000 
    122 N         -0.9935  -17.3202  -54.8367 N.am      22 UNK        -0.7600 
    123 O          1.1805  -17.4156  -55.2218 O.2       22 UNK        -0.5000 
    124 C124        1.1562  -18.8949  -52.5399 C.3       23 UNK        -0.0398 
    125 S125        1.5286  -20.3957  -51.5662 S.3       23 UNK        -0.2404 
    126 C126        3.3468  -20.4648  -51.6442 C.3       23 UNK        -0.0205 
    127 H127        7.8473  -11.2953  -47.0287 H         1 UNK         0.0600 
    128 H128        6.8066   -9.9079  -46.6918 H         1 UNK         0.0600 
    129 H129        6.9761  -10.5046  -48.3452 H         1 UNK         0.0600 
    130 H130        5.1987  -11.6686  -49.0107 H         1 UNK         0.3000 
    131 H131        4.0607  -13.7688  -47.4012 H         1 UNK         0.0600 
    132 H132        2.6366  -12.9702  -49.9354 H         1 UNK         0.0800 
    133 H133        4.3025  -13.3930  -50.1431 H         1 UNK         0.0800 
    134 H134        5.1035  -15.7241  -50.5815 H         1 UNK         0.0800 
    135 H135        5.3588  -15.6200  -48.8546 H         1 UNK         0.0800 
    136 H136        3.5814  -17.7423  -51.3818 H         1 UNK         0.1150 
    137 H137        4.6287  -21.4195  -49.4326 H         1 UNK         0.1150 
    138 H138        5.7640  -17.6646  -47.7061 H         1 UNK         0.1150 
    139 H139        6.4177  -21.3033  -47.7184 H         1 UNK         0.0800 
    140 H140        6.9161  -19.7650  -47.0768 H         1 UNK         0.0800 
    141 H141        3.1474  -21.6737  -46.9294 H         1 UNK         0.0800 
    142 H142        4.5860  -22.6626  -47.0221 H         1 UNK         0.0800 
    143 H143        4.4091  -23.0805  -44.5170 H         1 UNK         0.0600 
    144 H144        2.1885  -21.2483  -44.7277 H         1 UNK         0.3000 
    145 H145        0.8889  -21.9241  -41.4671 H         1 UNK         0.0600 
    146 H146        1.1387  -19.4646  -41.3307 H         1 UNK         0.0600 
    147 H147        2.2566  -19.4703  -42.6925 H         1 UNK         0.0600 
    148 H148        2.7091  -20.2382  -41.1756 H         1 UNK         0.0600 
    149 H149        0.0065  -20.1589  -43.5149 H         1 UNK         0.3000 
    150 H150       -2.1529  -22.5040  -45.1939 H         1 UNK         0.0600 
    151 H151       -3.3804  -21.5802  -43.2277 H         1 UNK         0.0600 
    152 H152       -3.7452  -20.6902  -44.6981 H         1 UNK         0.0600 
    153 H153       -2.6505  -20.0018  -43.5018 H         1 UNK         0.0600 
    154 H154       -1.5950  -19.7740  -45.7517 H         1 UNK         0.3000 
    155 H155        1.1621  -20.3565  -47.9936 H         1 UNK         0.0600 
    156 H156       -0.9075  -20.7149  -49.3304 H         1 UNK         0.0600 
    157 H157       -0.3493  -19.0582  -49.4753 H         1 UNK         0.0600 
    158 H158       -1.7272  -19.4310  -48.4432 H         1 UNK         0.0600 
    159 H159       -0.0649  -17.9369  -47.2599 H         1 UNK         0.3000 
    160 H160        1.8819  -17.3053  -44.2743 H         1 UNK         0.0600 
    161 H161        1.5407  -15.9526  -46.9935 H         1 UNK         0.0600 
    162 H162        3.0711  -16.5721  -46.3838 H         1 UNK         0.0600 
    163 H163        2.2620  -15.2562  -45.5453 H         1 UNK         0.0600 
    164 H164       -0.3325  -15.9325  -45.4832 H         1 UNK         0.3000 
    165 H165       -2.8892  -17.3588  -43.4521 H         1 UNK         0.0600 
    166 H166       -3.2117  -14.9630  -42.8934 H         1 UNK         0.0600 
    167 H167       -1.8142  -15.5984  -42.0402 H         1 UNK         0.0600 
    168 H168       -1.5847  -14.5811  -43.4572 H         1 UNK         0.0600 
    169 H169       -2.9402  -15.2993  -45.4175 H         1 UNK         0.3000 
    170 H170       -3.6637  -17.4066  -48.2215 H         1 UNK         0.0600 
    171 H171       -5.7311  -16.8499  -46.8745 H         1 UNK         0.0600 
    172 H172       -5.1318  -15.2127  -46.6550 H         1 UNK         0.0600 
    173 H173       -5.5342  -15.7989  -48.2658 H         1 UNK         0.0600 
    174 H174       -3.2564  -14.6026  -48.1297 H         1 UNK         0.3000 
    175 H175        0.2458  -14.5435  -48.7959 H         1 UNK         0.0600 
    176 H176       -0.6055  -13.1820  -50.6882 H         1 UNK         0.0600 
    177 H177       -0.8685  -14.8978  -50.9588 H         1 UNK         0.0600 
    178 H178       -2.2154  -13.8739  -50.4871 H         1 UNK         0.0600 
    179 H179       -0.2092  -12.8928  -47.4773 H         1 UNK         0.3000 
    180 H180       -2.5640  -10.4242  -47.2707 H         1 UNK         0.0600 
    181 H181       -2.8484  -10.7765  -44.8221 H         1 UNK         0.0600 
    182 H182       -2.3823  -12.4695  -44.9885 H         1 UNK         0.0600 
    183 H183       -3.8721  -11.8844  -45.7193 H         1 UNK         0.0600 
    184 H184       -0.3853  -11.1686  -45.5306 H         1 UNK         0.3000 
    185 H185        1.8472   -9.0143  -46.9872 H         1 UNK         0.0600 
    186 H186        2.6884   -9.8572  -44.8358 H         1 UNK         0.0600 
    187 H187        0.9843   -9.4755  -44.6801 H         1 UNK         0.0600 
    188 H188        1.5056  -11.1555  -44.8118 H         1 UNK         0.0600 
    189 H189        3.3549  -10.4368  -47.7780 H         1 UNK         0.3000 
    190 H190        1.1123  -23.6869  -44.8506 H         1 UNK         0.3000 
    191 H191       -0.1886  -25.3811  -45.3666 H         1 UNK         0.0600 
    192 H192        0.6150  -27.6933  -45.1317 H         1 UNK         0.0600 
    193 H193        1.3400  -26.6974  -43.8807 H         1 UNK         0.0600 
    194 H194        2.2893  -27.1816  -45.2858 H         1 UNK         0.0600 
    195 H195        0.7236  -23.7651  -47.4432 H         1 UNK         0.3000 
    196 H196        0.8876  -25.5248  -49.8584 H         1 UNK         0.0600 
    197 H197        1.8361  -23.4799  -50.9269 H         1 UNK         0.0600 
    198 H198        2.7910  -23.9477  -49.5281 H         1 UNK         0.0600 
    199 H199        1.6714  -22.5919  -49.4152 H         1 UNK         0.0600 
    200 H200       -1.2392  -23.5407  -48.0503 H         1 UNK         0.3000 
    201 H201       -2.8084  -22.3206  -50.0791 H         1 UNK         0.0600 
    202 H202       -3.4366  -23.1241  -47.1858 H         1 UNK         0.0600 
    203 H203       -4.5210  -22.1724  -48.1850 H         1 UNK         0.0600 
    204 H204       -2.9530  -21.5290  -47.7743 H         1 UNK         0.0600 
    205 H205       -4.9950  -22.7549  -50.6330 H         1 UNK         0.3000 
    206 H206       -5.6854  -25.6235  -51.0554 H         1 UNK         0.0600 
    207 H207       -5.7887  -24.3618  -53.1026 H         1 UNK         0.0600 
    208 H208       -7.4520  -24.5504  -52.6028 H         1 UNK         0.0600 
    209 H209       -6.6288  -23.0158  -52.3503 H         1 UNK         0.0600 
    210 H210       -8.2628  -25.7527  -51.0198 H         1 UNK         0.3000 
    211 H211       -9.0492  -26.0018  -48.3947 H         1 UNK         0.0600 
    212 H212      -10.7871  -25.7013  -50.9038 H         1 UNK         0.0600 
    213 H213      -11.3329  -26.3712  -49.3713 H         1 UNK         0.0600 
    214 H214      -10.0918  -27.2037  -50.2933 H         1 UNK         0.0600 
    215 H215      -10.2716  -24.9124  -46.9438 H         1 UNK         0.3000 
    216 H216      -11.0175  -23.2530  -45.7091 H         1 UNK         0.0600 
    217 H217      -12.5236  -21.5549  -46.6230 H         1 UNK         0.0600 
    218 H218      -12.8533  -23.0841  -47.4190 H         1 UNK         0.0600 
    219 H219      -11.9416  -21.8286  -48.2573 H         1 UNK         0.0600 
    220 H220       -8.2740  -23.2412  -46.7353 H         1 UNK         0.3000 
    221 H221       -6.3655  -22.1681  -46.5492 H         1 UNK         0.0600 
    222 H222       -7.8406  -20.0913  -44.8470 H         1 UNK         0.0600 
    223 H223       -6.1037  -20.3342  -44.9106 H         1 UNK         0.0600 
    224 H224       -7.1339  -21.5927  -44.2498 H         1 UNK         0.0600 
    225 H225       -7.7883  -21.7736  -48.8999 H         1 UNK         0.3000 
    226 H226       -7.7519  -19.0140  -49.7582 H         1 UNK         0.0600 
    227 H227       -9.3010  -20.5489  -50.8150 H         1 UNK         0.0600 
    228 H228       -8.1204  -20.1022  -52.0383 H         1 UNK         0.0600 
    229 H229       -8.0220  -21.6716  -51.2425 H         1 UNK         0.0600 
    230 H230       -6.2471  -17.9143  -50.8987 H         1 UNK         0.3000 
    231 H231       -3.4923  -18.5810  -50.5493 H         1 UNK         0.0600 
    232 H232       -3.1380  -16.3256  -51.5142 H         1 UNK         0.0600 
    233 H233       -4.4109  -16.2747  -50.3102 H         1 UNK         0.0600 
    234 H234       -4.8221  -16.2438  -52.0190 H         1 UNK         0.0600 
    235 H235       -3.8586  -20.6528  -51.8753 H         1 UNK         0.3000 
    236 H236       -3.8368  -20.7380  -54.6717 H         1 UNK         0.0600 
    237 H237       -2.4550  -22.5984  -52.6659 H         1 UNK         0.0600 
    238 H238       -4.1286  -22.7125  -53.2036 H         1 UNK         0.0600 
    239 H239       -2.8211  -23.0027  -54.3388 H         1 UNK         0.0600 
    240 H240       -1.2576  -19.7577  -52.5497 H         1 UNK         0.3000 
    241 H241        0.9175  -19.8917  -54.4267 H         1 UNK         0.0600 
    242 H242       -1.0596  -16.4887  -55.4015 H         1 UNK         0.3800 
    243 H243       -1.8335  -17.6945  -54.4062 H         1 UNK         0.3800 
    244 H244        0.6224  -18.1936  -51.8960 H         1 UNK         0.0800 
    245 H245        2.0885  -18.4034  -52.8152 H         1 UNK         0.0800 
    246 H246        3.7002  -20.1073  -52.6122 H         1 UNK         0.0800 
    247 H247        3.6476  -21.5119  -51.5868 H         1 UNK         0.0800 
@<TRIPOS>BOND
     1    1    2 1    
     2    1  127 1    
     3    1  128 1    
     4    1  129 1    
     5    2    3 2    
     6    2    4 am   BACKBONE|DICT|INTERRES
     7    4    5 1    
     8    4  130 1    
     9    5    6 1    
    10    5   65 1    
    11    5  131 1    
    12    6    7 1    
    13    6  132 1    
    14    6  133 1    
    15    7    8 1    
    16    8    9 1    
    17    8  134 1    
    18    8  135 1    
    19    9   10 ar   
    20    9   14 ar   
    21   10   11 ar   
    22   10  136 1    
    23   11   12 ar   
    24   11  126 1    
    25   12   13 ar   
    26   12  137 1    
    27   13   14 ar   
    28   13   15 1    
    29   14  138 1    
    30   15   16 1    
    31   15  139 1    
    32   15  140 1    
    33   16   17 1    
    34   17   18 1    
    35   17  141 1    
    36   17  142 1    
    37   18   19 1    
    38   18   67 1    
    39   18  143 1    
    40   19   20 am   BACKBONE|DICT|INTERRES
    41   19  144 1    
    42   20   21 2    
    43   20   22 1    
    44   22   23 1    
    45   22   24 1    
    46   22  145 1    
    47   23  146 1    
    48   23  147 1    
    49   23  148 1    
    50   24   25 am   BACKBONE|DICT|INTERRES
    51   24  149 1    
    52   25   26 2    
    53   25   27 1    
    54   27   28 1    
    55   27   29 1    
    56   27  150 1    
    57   28  151 1    
    58   28  152 1    
    59   28  153 1    
    60   29   30 am   BACKBONE|DICT|INTERRES
    61   29  154 1    
    62   30   31 2    
    63   30   32 1    
    64   32   33 1    
    65   32   34 1    
    66   32  155 1    
    67   33  156 1    
    68   33  157 1    
    69   33  158 1    
    70   34   35 am   BACKBONE|DICT|INTERRES
    71   34  159 1    
    72   35   36 2    
    73   35   37 1    
    74   37   38 1    
    75   37   39 1    
    76   37  160 1    
    77   38  161 1    
    78   38  162 1    
    79   38  163 1    
    80   39   40 am   BACKBONE|DICT|INTERRES
    81   39  164 1    
    82   40   41 2    
    83   40   42 1    
    84   42   43 1    
    85   42   44 1    
    86   42  165 1    
    87   43  166 1    
    88   43  167 1    
    89   43  168 1    
    90   44   45 am   BACKBONE|DICT|INTERRES
    91   44  169 1    
    92   45   46 2    
    93   45   47 1    
    94   47   48 1    
    95   47   49 1    
    96   47  170 1    
    97   48  171 1    
    98   48  172 1    
    99   48  173 1    
   100   49   50 am   BACKBONE|DICT|INTERRES
   101   49  174 1    
   102   50   51 2    
   103   50   52 1    
   104   52   53 1    
   105   52   54 1    
   106   52  175 1    
   107   53  176 1    
   108   53  177 1    
   109   53  178 1    
   110   54   55 am   BACKBONE|DICT|INTERRES
   111   54  179 1    
   112   55   56 2    
   113   55   57 1    
   114   57   58 1    
   115   57   59 1    
   116   57  180 1    
   117   58  181 1    
   118   58  182 1    
   119   58  183 1    
   120   59   60 am   BACKBONE|DICT|INTERRES
   121   59  184 1    
   122   60   61 2    
   123   60   62 1    
   124   62   63 1    
   125   62   64 1    
   126   62  185 1    
   127   63  186 1    
   128   63  187 1    
   129   63  188 1    
   130   64   65 am   BACKBONE|DICT|INTERRES
   131   64  189 1    
   132   65   66 2    
   133   67   68 2    
   134   67   69 am   BACKBONE|DICT|INTERRES
   135   69   70 1    
   136   69  190 1    
   137   70   71 1    
   138   70   72 1    
   139   70  191 1    
   140   71  192 1    
   141   71  193 1    
   142   71  194 1    
   143   72   73 2    
   144   72   74 am   BACKBONE|DICT|INTERRES
   145   74   75 1    
   146   74  195 1    
   147   75   76 1    
   148   75   77 1    
   149   75  196 1    
   150   76  197 1    
   151   76  198 1    
   152   76  199 1    
   153   77   78 2    
   154   77   79 am   BACKBONE|DICT|INTERRES
   155   79   80 1    
   156   79  200 1    
   157   80   81 1    
   158   80   82 1    
   159   80  201 1    
   160   81  202 1    
   161   81  203 1    
   162   81  204 1    
   163   82   83 2    
   164   82   84 am   BACKBONE|DICT|INTERRES
   165   84   85 1    
   166   84  205 1    
   167   85   86 1    
   168   85   87 1    
   169   85  206 1    
   170   86  207 1    
   171   86  208 1    
   172   86  209 1    
   173   87   88 2    
   174   87   89 am   BACKBONE|DICT|INTERRES
   175   89   90 1    
   176   89  210 1    
   177   90   91 1    
   178   90   92 1    
   179   90  211 1    
   180   91  212 1    
   181   91  213 1    
   182   91  214 1    
   183   92   93 2    
   184   92   94 am   BACKBONE|DICT|INTERRES
   185   94   95 1    
   186   94  215 1    
   187   95   96 1    
   188   95   97 1    
   189   95  216 1    
   190   96  217 1    
   191   96  218 1    
   192   96  219 1    
   193   97   98 2    
   194   97   99 am   BACKBONE|DICT|INTERRES
   195   99  100 1    
   196   99  220 1    
   197  100  101 1    
   198  100  102 1    
   199  100  221 1    
   200  101  222 1    
   201  101  223 1    
   202  101  224 1    
   203  102  103 2    
   204  102  104 am   BACKBONE|DICT|INTERRES
   205  104  105 1    
   206  104  225 1    
   207  105  106 1    
   208  105  107 1    
   209  105  226 1    
   210  106  227 1    
   211  106  228 1    
   212  106  229 1    
   213  107  108 2    
   214  107  109 am   BACKBONE|DICT|INTERRES
   215  109  110 1    
   216  109  230 1    
   217  110  111 1    
   218  110  112 1    
   219  110  231 1    
   220  111  232 1    
   221  111  233 1    
   222  111  234 1    
   223  112  113 2    
   224  112  114 am   BACKBONE|DICT|INTERRES
   225  114  115 1    
   226  114  235 1    
   227  115  116 1    
   228  115  117 1    
   229  115  236 1    
   230  116  237 1    
   231  116  238 1    
   232  116  239 1    
   233  117  118 2    
   234  117  119 am   BACKBONE|DICT|INTERRES
   235  119  120 1    
   236  119  240 1    
   237  120  121 1    
   238  120  124 1    
   239  120  241 1    
   240  121  122 am   BACKBONE|DICT|INTERRES
   241  121  123 2    
   242  122  242 1    
   243  122  243 1    
   244  124  125 1    
   245  124  244 1    
   246  124  245 1    
   247  125  126 1    
   248  126  246 1    
   249  126  247 1    
@<TRIPOS>SUBSTRUCTURE
     1 UNK         1 GROUP             0       ****    0 ROOT    
