@<TRIPOS>MOLECULE
3R540
247   249    1
SMALL
USER_CHARGES


@<TRIPOS>ATOM
      1 CA         -3.7748  -15.7744  -44.6918 C.3       0 UNK        -0.1800 
      2 C          -2.9339  -15.1495  -45.7958 C.2       0 UNK         0.5000 
      3 O          -3.1532  -15.4419  -46.9694 O.2       0 UNK        -0.5000 
      4 N          -1.9733  -14.2972  -45.4245 N.am      1 UNK        -0.5000 
      5 CA         -1.0551  -13.6049  -46.3241 C.3       1 UNK         0.1400 
      6 C6          0.0382  -14.5582  -46.8774 C.3       23 UNK        -0.0398 
      7 S7          1.2098  -13.8223  -48.0747 S.3       23 UNK        -0.2404 
      8 C8          0.1443  -13.2601  -49.4491 C.3       23 UNK        -0.0205 
      9 C9         -0.8383  -14.3133  -49.9465 C.ar      23 UNK        -0.0193 
     10 C10        -2.1709  -13.9627  -50.1868 C.ar      23 UNK        -0.1150 
     11 C11        -3.0911  -14.9199  -50.6231 C.ar      23 UNK        -0.0193 
     12 C12        -2.6691  -16.2376  -50.8084 C.ar      23 UNK        -0.1150 
     13 C13        -1.3366  -16.6001  -50.5910 C.ar      23 UNK        -0.0193 
     14 C14        -0.4240  -15.6294  -50.1751 C.ar      23 UNK        -0.1150 
     15 C15        -0.8725  -18.0328  -50.8120 C.3       23 UNK        -0.0205 
     16 S16        -1.9600  -19.2495  -50.0103 S.3       23 UNK        -0.2404 
     17 C17        -1.6600  -18.8980  -48.2410 C.3       23 UNK        -0.0398 
     18 CA         -2.1590  -20.0782  -47.3701 C.3       11 UNK         0.1400 
     19 N          -1.1702  -20.5531  -46.3964 N.am      11 UNK        -0.5000 
     20 C          -1.1270  -21.8229  -45.9669 C.2       10 UNK         0.5000 
     21 O          -1.9621  -22.6712  -46.2846 O.2       10 UNK        -0.5000 
     22 CA          0.0184  -22.2113  -45.0203 C.3       10 UNK         0.1400 
     23 CB          1.3628  -22.2291  -45.7635 C.3       10 UNK        -0.1800 
     24 N           0.0956  -21.3291  -43.8595 N.am      10 UNK        -0.5000 
     25 C          -0.8461  -21.2544  -42.9082 C.2       9 UNK         0.5000 
     26 O          -1.8520  -21.9642  -42.8829 O.2       9 UNK        -0.5000 
     27 CA         -0.6487  -20.1878  -41.8166 C.3       9 UNK         0.1400 
     28 CB          0.2689  -20.7179  -40.7050 C.3       9 UNK        -0.1800 
     29 N          -0.1184  -18.9253  -42.3356 N.am      9 UNK        -0.5000 
     30 C          -0.7489  -18.1476  -43.2271 C.2       8 UNK         0.5000 
     31 O          -1.8516  -18.4099  -43.7011 O.2       8 UNK        -0.5000 
     32 CA         -0.0056  -16.8951  -43.7179 C.3       8 UNK         0.1400 
     33 CB         -0.0194  -15.7834  -42.6593 C.3       8 UNK        -0.1800 
     34 N           1.3687  -17.1823  -44.1163 N.am      8 UNK        -0.5000 
     35 C           1.7128  -18.0041  -45.1175 C.2       7 UNK         0.5000 
     36 O           0.9046  -18.5726  -45.8534 O.2       7 UNK        -0.5000 
     37 CA          3.2164  -18.2734  -45.2855 C.3       7 UNK         0.1400 
     38 CB          3.8957  -17.1277  -46.0531 C.3       7 UNK        -0.1800 
     39 N           3.8787  -18.4703  -43.9944 N.am      7 UNK        -0.5000 
     40 C           3.6688  -19.5228  -43.1897 C.2       6 UNK         0.5000 
     41 O           2.9168  -20.4567  -43.4665 O.2       6 UNK        -0.5000 
     42 CA          4.3895  -19.5091  -41.8294 C.3       6 UNK         0.1400 
     43 CB          5.8444  -19.9781  -41.9803 C.3       6 UNK        -0.1800 
     44 N           4.3667  -18.1910  -41.1942 N.am      6 UNK        -0.5000 
     45 C           3.2577  -17.5845  -40.7476 C.2       5 UNK         0.5000 
     46 O           2.1374  -18.0888  -40.7922 O.2       5 UNK        -0.5000 
     47 CA          3.4187  -16.1532  -40.2039 C.3       5 UNK         0.1400 
     48 CB          3.7647  -16.1799  -38.7079 C.3       5 UNK        -0.1800 
     49 N           4.4244  -15.3664  -40.9227 N.am      5 UNK        -0.5000 
     50 C           4.3712  -15.0725  -42.2282 C.2       4 UNK         0.5000 
     51 O           3.4843  -15.4737  -42.9867 O.2       4 UNK        -0.5000 
     52 CA          5.5427  -14.2439  -42.7847 C.3       4 UNK         0.1400 
     53 CB          6.6771  -15.1770  -43.2370 C.3       4 UNK        -0.1800 
     54 N           5.1438  -13.4096  -43.9171 N.am      4 UNK        -0.5000 
     55 C           4.2707  -12.3958  -43.8610 C.2       3 UNK         0.5000 
     56 O           3.7518  -11.9996  -42.8141 O.2       3 UNK        -0.5000 
     57 CA          3.9271  -11.6958  -45.1876 C.3       3 UNK         0.1400 
     58 CB          4.2281  -12.5455  -46.4417 C.3       3 UNK        -0.1800 
     59 N           2.5185  -11.3160  -45.1676 N.am      3 UNK        -0.5000 
     60 C           1.9773  -10.2823  -45.8180 C.2       2 UNK         0.5000 
     61 O           2.6238   -9.5099  -46.5287 O.2       2 UNK        -0.5000 
     62 CA          0.4495  -10.1189  -45.6746 C.3       2 UNK         0.1400 
     63 CB         -0.0872   -8.8667  -46.3919 C.3       2 UNK        -0.1800 
     64 N          -0.2392  -11.2951  -46.2070 N.am      2 UNK        -0.5000 
     65 C          -0.4558  -12.4305  -45.5334 C.2       1 UNK         0.5000 
     66 O          -0.1748  -12.5802  -44.3415 O.2       1 UNK        -0.5000 
     67 C          -3.5670  -19.8598  -46.7744 C.2       11 UNK         0.5000 
     68 O          -4.5349  -19.8346  -47.5338 O.2       11 UNK        -0.5000 
     69 N          -3.6974  -19.8272  -45.4396 N.am      12 UNK        -0.5000 
     70 CA         -4.9798  -19.9541  -44.7357 C.3       12 UNK         0.1400 
     71 CB         -4.7839  -19.6748  -43.2382 C.3       12 UNK        -0.1800 
     72 C          -5.6474  -21.3317  -44.9477 C.2       12 UNK         0.5000 
     73 O          -6.8749  -21.4194  -44.9181 O.2       12 UNK        -0.5000 
     74 N          -4.8338  -22.3658  -45.2059 N.am      13 UNK        -0.5000 
     75 CA         -5.2554  -23.7022  -45.6341 C.3       13 UNK         0.1400 
     76 CB         -4.4291  -24.7459  -44.8624 C.3       13 UNK        -0.1800 
     77 C          -5.0992  -23.8819  -47.1610 C.2       13 UNK         0.5000 
     78 O          -5.1032  -25.0155  -47.6475 O.2       13 UNK        -0.5000 
     79 N          -4.9191  -22.7687  -47.8909 N.am      14 UNK        -0.5000 
     80 CA         -4.6868  -22.6667  -49.3345 C.3       14 UNK         0.1400 
     81 CB         -5.9827  -22.9898  -50.1052 C.3       14 UNK        -0.1800 
     82 C          -3.4673  -23.4783  -49.8171 C.2       14 UNK         0.5000 
     83 O          -3.5001  -24.0293  -50.9151 O.2       14 UNK        -0.5000 
     84 N          -2.4277  -23.5715  -48.9723 N.am      15 UNK        -0.5000 
     85 CA         -1.2055  -24.3581  -49.1694 C.3       15 UNK         0.1400 
     86 CB         -0.3418  -23.7493  -50.2929 C.3       15 UNK        -0.1800 
     87 C          -1.5069  -25.8603  -49.3628 C.2       15 UNK         0.5000 
     88 O          -0.9289  -26.5034  -50.2400 O.2       15 UNK        -0.5000 
     89 N          -2.4358  -26.3681  -48.5375 N.am      16 UNK        -0.5000 
     90 CA         -3.0389  -27.7028  -48.5815 C.3       16 UNK         0.1400 
     91 CB         -1.9872  -28.8120  -48.3651 C.3       16 UNK        -0.1800 
     92 C          -3.8967  -27.8964  -49.8487 C.2       16 UNK         0.5000 
     93 O          -3.7391  -28.8888  -50.5624 O.2       16 UNK        -0.5000 
     94 N          -4.7978  -26.9305  -50.0853 N.am      17 UNK        -0.5000 
     95 CA         -5.7656  -26.8687  -51.1875 C.3       17 UNK         0.1400 
     96 CB         -6.8418  -27.9622  -51.0207 C.3       17 UNK        -0.1800 
     97 C          -5.1149  -26.8663  -52.5885 C.2       17 UNK         0.5000 
     98 O          -5.5589  -27.5909  -53.4823 O.2       17 UNK        -0.5000 
     99 N          -4.0744  -26.0432  -52.7598 N.am      18 UNK        -0.5000 
    100 CA        -3.4125  -25.7986  -54.0376 C.3       18 UNK         0.1400 
    101 CB        -2.0126  -25.2227  -53.7735 C.3       18 UNK        -0.1800 
    102 C         -4.2340  -24.8190  -54.8931 C.2       18 UNK         0.5000 
    103 O         -4.8150  -23.8713  -54.3598 O.2       18 UNK        -0.5000 
    104 N         -4.2272  -25.0297  -56.2150 N.am      19 UNK        -0.5000 
    105 CA        -4.9116  -24.1732  -57.1902 C.3       19 UNK         0.1400 
    106 CB        -4.9956  -24.9163  -58.5325 C.3       19 UNK        -0.1800 
    107 C         -4.2394  -22.7972  -57.3778 C.2       19 UNK         0.5000 
    108 O         -4.8971  -21.8546  -57.8190 O.2       19 UNK        -0.5000 
    109 N         -2.9450  -22.7079  -57.0436 N.am      20 UNK        -0.5000 
    110 CA        -2.1244  -21.5007  -57.1522 C.3       20 UNK         0.1400 
    111 CB        -0.6485  -21.9244  -57.2266 C.3       20 UNK        -0.1800 
    112 C         -2.3355  -20.4942  -56.0025 C.2       20 UNK         0.5000 
    113 O         -1.8289  -19.3740  -56.0948 O.2       20 UNK        -0.5000 
    114 N         -3.0441  -20.9004  -54.9374 N.am      21 UNK        -0.5000 
    115 CA        -3.3044  -20.1085  -53.7339 C.3       21 UNK         0.1400 
    116 CB        -4.1264  -20.9477  -52.7454 C.3       21 UNK        -0.1800 
    117 C         -4.0042  -18.7717  -54.0463 C.2       21 UNK         0.5000 
    118 O         -5.1501  -18.7696  -54.5004 O.2       21 UNK        -0.5000 
    119 N         -3.2822  -17.6693  -53.8133 N.am      22 UNK        -0.5000 
    120 CA        -3.6837  -16.2843  -54.1122 C.3       22 UNK         0.1400 
    121 C         -3.6985  -15.9284  -55.6323 C.2       22 UNK         0.5000 
    122 N         -3.1065  -16.7321  -56.5091 N.am      22 UNK        -0.7600 
    123 O         -4.2278  -14.8937  -56.0288 O.2       22 UNK        -0.5000 
    124 C124       -4.9782  -15.8541  -53.3558 C.3       23 UNK        -0.0398 
    125 S125       -4.8635  -14.1782  -52.6341 S.3       23 UNK        -0.2404 
    126 C126       -4.5426  -14.5371  -50.8746 C.3       23 UNK        -0.0205 
    127 H127       -3.3459  -15.5970  -43.7053 H         1 UNK         0.0600 
    128 H128       -3.8439  -16.8520  -44.8402 H         1 UNK         0.0600 
    129 H129       -4.7837  -15.3628  -44.7085 H         1 UNK         0.0600 
    130 H130       -1.8421  -14.0543  -44.4501 H         1 UNK         0.3000 
    131 H131       -1.6403  -13.2017  -47.1528 H         1 UNK         0.0600 
    132 H132        0.6307  -14.9611  -46.0546 H         1 UNK         0.0800 
    133 H133       -0.4253  -15.4247  -47.3498 H         1 UNK         0.0800 
    134 H134       -0.3847  -12.3595  -49.1366 H         1 UNK         0.0800 
    135 H135        0.7824  -12.9622  -50.2818 H         1 UNK         0.0800 
    136 H136       -2.4970  -12.9444  -50.0289 H         1 UNK         0.1150 
    137 H137       -3.3815  -16.9860  -51.1219 H         1 UNK         0.1150 
    138 H138        0.6086  -15.9012  -50.0071 H         1 UNK         0.1150 
    139 H139       -0.8450  -18.2327  -51.8830 H         1 UNK         0.0800 
    140 H140        0.1458  -18.1756  -50.4470 H         1 UNK         0.0800 
    141 H141       -2.1308  -17.9514  -47.9675 H         1 UNK         0.0800 
    142 H142       -0.5878  -18.7477  -48.1096 H         1 UNK         0.0800 
    143 H143       -2.3008  -20.9222  -48.0469 H         1 UNK         0.0600 
    144 H144       -0.4592  -19.8899  -46.0958 H         1 UNK         0.3000 
    145 H145       -0.1789  -23.2236  -44.6613 H         1 UNK         0.0600 
    146 H146        2.1595  -22.6076  -45.1230 H         1 UNK         0.0600 
    147 H147        1.3168  -22.8755  -46.6409 H         1 UNK         0.0600 
    148 H148        1.6531  -21.2344  -46.1024 H         1 UNK         0.0600 
    149 H149        0.9246  -20.7492  -43.7804 H         1 UNK         0.3000 
    150 H150       -1.6274  -19.9799  -41.3793 H         1 UNK         0.0600 
    151 H151       -0.1067  -21.6592  -40.3019 H         1 UNK         0.0600 
    152 H152        0.3315  -20.0123  -39.8765 H         1 UNK         0.0600 
    153 H153        1.2810  -20.8959  -41.0706 H         1 UNK         0.0600 
    154 H154        0.7769  -18.6232  -41.9586 H         1 UNK         0.3000 
    155 H155       -0.5305  -16.5331  -44.6019 H         1 UNK         0.0600 
    156 H156       -1.0408  -15.5023  -42.4013 H         1 UNK         0.0600 
    157 H157        0.4855  -14.8881  -43.0222 H         1 UNK         0.0600 
    158 H158        0.4773  -16.0945  -41.7407 H         1 UNK         0.0600 
    159 H159        2.1061  -16.7240  -43.5883 H         1 UNK         0.3000 
    160 H160        3.3295  -19.1892  -45.8697 H         1 UNK         0.0600 
    161 H161        3.8186  -16.1781  -45.5233 H         1 UNK         0.0600 
    162 H162        3.4353  -16.9904  -47.0326 H         1 UNK         0.0600 
    163 H163        4.9531  -17.3352  -46.2172 H         1 UNK         0.0600 
    164 H164        4.4616  -17.7160  -43.6642 H         1 UNK         0.3000 
    165 H165        3.8716  -20.2108  -41.1719 H         1 UNK         0.0600 
    166 H166        6.3378  -20.0494  -41.0108 H         1 UNK         0.0600 
    167 H167        5.8895  -20.9663  -42.4400 H         1 UNK         0.0600 
    168 H168        6.4262  -19.2986  -42.6043 H         1 UNK         0.0600 
    169 H169        5.2466  -17.7032  -41.1169 H         1 UNK         0.3000 
    170 H170        2.4585  -15.6472  -40.3219 H         1 UNK         0.0600 
    171 H171        3.0194  -16.7439  -38.1452 H         1 UNK         0.0600 
    172 H172        4.7345  -16.6449  -38.5260 H         1 UNK         0.0600 
    173 H173        3.7907  -15.1731  -38.2906 H         1 UNK         0.0600 
    174 H174        5.1930  -15.0119  -40.3718 H         1 UNK         0.3000 
    175 H175        5.9165  -13.5881  -41.9956 H         1 UNK         0.0600 
    176 H176        6.3555  -15.8429  -44.0391 H         1 UNK         0.0600 
    177 H177        7.5350  -14.6089  -43.5972 H         1 UNK         0.0600 
    178 H178        7.0268  -15.8003  -42.4130 H         1 UNK         0.0600 
    179 H179        5.5001  -13.6836  -44.8204 H         1 UNK         0.3000 
    180 H180        4.5370  -10.7911  -45.2256 H         1 UNK         0.0600 
    181 H181        3.8990  -12.0406  -47.3502 H         1 UNK         0.0600 
    182 H182        3.7248  -13.5123  -46.4011 H         1 UNK         0.0600 
    183 H183        5.2973  -12.7273  -46.5536 H         1 UNK         0.0600 
    184 H184        1.9219  -11.8798  -44.5721 H         1 UNK         0.3000 
    185 H185        0.2277  -10.0126  -44.6105 H         1 UNK         0.0600 
    186 H186        0.0965   -8.9055  -47.4664 H         1 UNK         0.0600 
    187 H187       -1.1609   -8.7562  -46.2396 H         1 UNK         0.0600 
    188 H188        0.3882   -7.9630  -46.0085 H         1 UNK         0.0600 
    189 H189       -0.4648  -11.2596  -47.1897 H         1 UNK         0.3000 
    190 H190       -2.8671  -19.7509  -44.8610 H         1 UNK         0.3000 
    191 H191       -5.6582  -19.1969  -45.1342 H         1 UNK         0.0600 
    192 H192       -4.0567  -20.3543  -42.7935 H         1 UNK         0.0600 
    193 H193       -4.4392  -18.6550  -43.0688 H         1 UNK         0.0600 
    194 H194       -5.7204  -19.7919  -42.6916 H         1 UNK         0.0600 
    195 H195       -3.8334  -22.2048  -45.2173 H         1 UNK         0.3000 
    196 H196       -6.3091  -23.8607  -45.3977 H         1 UNK         0.0600 
    197 H197       -4.5374  -24.6142  -43.7857 H         1 UNK         0.0600 
    198 H198       -3.3673  -24.6773  -45.1012 H         1 UNK         0.0600 
    199 H199       -4.7546  -25.7599  -45.0978 H         1 UNK         0.0600 
    200 H200       -4.9399  -21.8795  -47.4069 H         1 UNK         0.3000 
    201 H201       -4.4392  -21.6249  -49.5400 H         1 UNK         0.0600 
    202 H202       -5.8383  -22.9199  -51.1841 H         1 UNK         0.0600 
    203 H203       -6.7744  -22.2886  -49.8420 H         1 UNK         0.0600 
    204 H204       -6.3444  -23.9922  -49.8826 H         1 UNK         0.0600 
    205 H205       -2.5039  -23.1348  -48.0580 H         1 UNK         0.3000 
    206 H206       -0.6367  -24.2805  -48.2418 H         1 UNK         0.0600 
    207 H207       -0.1387  -22.6950  -50.1042 H         1 UNK         0.0600 
    208 H208       -0.8267  -23.8272  -51.2654 H         1 UNK         0.0600 
    209 H209        0.6199  -24.2581  -50.3656 H         1 UNK         0.0600 
    210 H210       -2.8822  -25.7265  -47.8956 H         1 UNK         0.3000 
    211 H211       -3.7311  -27.7474  -47.7392 H         1 UNK         0.0600 
    212 H212       -1.4087  -28.6353  -47.4584 H         1 UNK         0.0600 
    213 H213       -2.4683  -29.7849  -48.2586 H         1 UNK         0.0600 
    214 H214       -1.2899  -28.8864  -49.1997 H         1 UNK         0.0600 
    215 H215       -4.8396  -26.1620  -49.4246 H         1 UNK         0.3000 
    216 H216       -6.2706  -25.9077  -51.0995 H         1 UNK         0.0600 
    217 H217       -7.6330  -27.8488  -51.7627 H         1 UNK         0.0600 
    218 H218       -6.4251  -28.9630  -51.1375 H         1 UNK         0.0600 
    219 H219       -7.3106  -27.9065  -50.0383 H         1 UNK         0.0600 
    220 H220       -3.8181  -25.4108  -52.0023 H         1 UNK         0.3000 
    221 H221       -3.3053  -26.7463  -54.5694 H         1 UNK         0.0600 
    222 H222       -2.0666  -24.2409  -53.3013 H         1 UNK         0.0600 
    223 H223       -1.4329  -25.8755  -53.1202 H         1 UNK         0.0600 
    224 H224       -1.4531  -25.1093  -54.7026 H         1 UNK         0.0600 
    225 H225       -3.7276  -25.8253  -56.5864 H         1 UNK         0.3000 
    226 H226       -5.9291  -23.9945  -56.8357 H         1 UNK         0.0600 
    227 H227       -5.5343  -25.8585  -58.4291 H         1 UNK         0.0600 
    228 H228       -5.5263  -24.3208  -59.2766 H         1 UNK         0.0600 
    229 H229       -4.0056  -25.1364  -58.9338 H         1 UNK         0.0600 
    230 H230       -2.4860  -23.5361  -56.6952 H         1 UNK         0.3000 
    231 H231       -2.3777  -20.9873  -58.0822 H         1 UNK         0.0600 
    232 H232        0.0031  -21.0583  -57.3504 H         1 UNK         0.0600 
    233 H233       -0.4696  -22.5854  -58.0749 H         1 UNK         0.0600 
    234 H234       -0.3334  -22.4452  -56.3213 H         1 UNK         0.0600 
    235 H235       -3.4589  -21.8214  -54.9616 H         1 UNK         0.3000 
    236 H236       -2.3393  -19.9008  -53.2674 H         1 UNK         0.0600 
    237 H237       -4.3233  -20.3924  -51.8278 H         1 UNK         0.0600 
    238 H238       -5.0886  -21.2412  -53.1671 H         1 UNK         0.0600 
    239 H239       -3.5927  -21.8567  -52.4704 H         1 UNK         0.0600 
    240 H240       -2.3329  -17.7764  -53.4889 H         1 UNK         0.3000 
    241 H241       -2.8578  -15.6923  -53.7167 H         1 UNK         0.0600 
    242 H242       -3.1132  -16.4840  -57.4855 H         1 UNK         0.3800 
    243 H243       -2.6562  -17.5942  -56.2167 H         1 UNK         0.3800 
    244 H244       -5.8482  -15.8949  -54.0134 H         1 UNK         0.0800 
    245 H245       -5.2085  -16.5528  -52.5514 H         1 UNK         0.0800 
    246 H246       -4.7959  -13.6521  -50.2890 H         1 UNK         0.0800 
    247 H247       -5.2082  -15.3266  -50.5226 H         1 UNK         0.0800 
@<TRIPOS>BOND
     1    1    2 1    
     2    1  127 1    
     3    1  128 1    
     4    1  129 1    
     5    2    3 2    
     6    2    4 am   BACKBONE|DICT|INTERRES
     7    4    5 1    
     8    4  130 1    
     9    5    6 1    
    10    5   65 1    
    11    5  131 1    
    12    6    7 1    
    13    6  132 1    
    14    6  133 1    
    15    7    8 1    
    16    8    9 1    
    17    8  134 1    
    18    8  135 1    
    19    9   10 ar   
    20    9   14 ar   
    21   10   11 ar   
    22   10  136 1    
    23   11   12 ar   
    24   11  126 1    
    25   12   13 ar   
    26   12  137 1    
    27   13   14 ar   
    28   13   15 1    
    29   14  138 1    
    30   15   16 1    
    31   15  139 1    
    32   15  140 1    
    33   16   17 1    
    34   17   18 1    
    35   17  141 1    
    36   17  142 1    
    37   18   19 1    
    38   18   67 1    
    39   18  143 1    
    40   19   20 am   BACKBONE|DICT|INTERRES
    41   19  144 1    
    42   20   21 2    
    43   20   22 1    
    44   22   23 1    
    45   22   24 1    
    46   22  145 1    
    47   23  146 1    
    48   23  147 1    
    49   23  148 1    
    50   24   25 am   BACKBONE|DICT|INTERRES
    51   24  149 1    
    52   25   26 2    
    53   25   27 1    
    54   27   28 1    
    55   27   29 1    
    56   27  150 1    
    57   28  151 1    
    58   28  152 1    
    59   28  153 1    
    60   29   30 am   BACKBONE|DICT|INTERRES
    61   29  154 1    
    62   30   31 2    
    63   30   32 1    
    64   32   33 1    
    65   32   34 1    
    66   32  155 1    
    67   33  156 1    
    68   33  157 1    
    69   33  158 1    
    70   34   35 am   BACKBONE|DICT|INTERRES
    71   34  159 1    
    72   35   36 2    
    73   35   37 1    
    74   37   38 1    
    75   37   39 1    
    76   37  160 1    
    77   38  161 1    
    78   38  162 1    
    79   38  163 1    
    80   39   40 am   BACKBONE|DICT|INTERRES
    81   39  164 1    
    82   40   41 2    
    83   40   42 1    
    84   42   43 1    
    85   42   44 1    
    86   42  165 1    
    87   43  166 1    
    88   43  167 1    
    89   43  168 1    
    90   44   45 am   BACKBONE|DICT|INTERRES
    91   44  169 1    
    92   45   46 2    
    93   45   47 1    
    94   47   48 1    
    95   47   49 1    
    96   47  170 1    
    97   48  171 1    
    98   48  172 1    
    99   48  173 1    
   100   49   50 am   BACKBONE|DICT|INTERRES
   101   49  174 1    
   102   50   51 2    
   103   50   52 1    
   104   52   53 1    
   105   52   54 1    
   106   52  175 1    
   107   53  176 1    
   108   53  177 1    
   109   53  178 1    
   110   54   55 am   BACKBONE|DICT|INTERRES
   111   54  179 1    
   112   55   56 2    
   113   55   57 1    
   114   57   58 1    
   115   57   59 1    
   116   57  180 1    
   117   58  181 1    
   118   58  182 1    
   119   58  183 1    
   120   59   60 am   BACKBONE|DICT|INTERRES
   121   59  184 1    
   122   60   61 2    
   123   60   62 1    
   124   62   63 1    
   125   62   64 1    
   126   62  185 1    
   127   63  186 1    
   128   63  187 1    
   129   63  188 1    
   130   64   65 am   BACKBONE|DICT|INTERRES
   131   64  189 1    
   132   65   66 2    
   133   67   68 2    
   134   67   69 am   BACKBONE|DICT|INTERRES
   135   69   70 1    
   136   69  190 1    
   137   70   71 1    
   138   70   72 1    
   139   70  191 1    
   140   71  192 1    
   141   71  193 1    
   142   71  194 1    
   143   72   73 2    
   144   72   74 am   BACKBONE|DICT|INTERRES
   145   74   75 1    
   146   74  195 1    
   147   75   76 1    
   148   75   77 1    
   149   75  196 1    
   150   76  197 1    
   151   76  198 1    
   152   76  199 1    
   153   77   78 2    
   154   77   79 am   BACKBONE|DICT|INTERRES
   155   79   80 1    
   156   79  200 1    
   157   80   81 1    
   158   80   82 1    
   159   80  201 1    
   160   81  202 1    
   161   81  203 1    
   162   81  204 1    
   163   82   83 2    
   164   82   84 am   BACKBONE|DICT|INTERRES
   165   84   85 1    
   166   84  205 1    
   167   85   86 1    
   168   85   87 1    
   169   85  206 1    
   170   86  207 1    
   171   86  208 1    
   172   86  209 1    
   173   87   88 2    
   174   87   89 am   BACKBONE|DICT|INTERRES
   175   89   90 1    
   176   89  210 1    
   177   90   91 1    
   178   90   92 1    
   179   90  211 1    
   180   91  212 1    
   181   91  213 1    
   182   91  214 1    
   183   92   93 2    
   184   92   94 am   BACKBONE|DICT|INTERRES
   185   94   95 1    
   186   94  215 1    
   187   95   96 1    
   188   95   97 1    
   189   95  216 1    
   190   96  217 1    
   191   96  218 1    
   192   96  219 1    
   193   97   98 2    
   194   97   99 am   BACKBONE|DICT|INTERRES
   195   99  100 1    
   196   99  220 1    
   197  100  101 1    
   198  100  102 1    
   199  100  221 1    
   200  101  222 1    
   201  101  223 1    
   202  101  224 1    
   203  102  103 2    
   204  102  104 am   BACKBONE|DICT|INTERRES
   205  104  105 1    
   206  104  225 1    
   207  105  106 1    
   208  105  107 1    
   209  105  226 1    
   210  106  227 1    
   211  106  228 1    
   212  106  229 1    
   213  107  108 2    
   214  107  109 am   BACKBONE|DICT|INTERRES
   215  109  110 1    
   216  109  230 1    
   217  110  111 1    
   218  110  112 1    
   219  110  231 1    
   220  111  232 1    
   221  111  233 1    
   222  111  234 1    
   223  112  113 2    
   224  112  114 am   BACKBONE|DICT|INTERRES
   225  114  115 1    
   226  114  235 1    
   227  115  116 1    
   228  115  117 1    
   229  115  236 1    
   230  116  237 1    
   231  116  238 1    
   232  116  239 1    
   233  117  118 2    
   234  117  119 am   BACKBONE|DICT|INTERRES
   235  119  120 1    
   236  119  240 1    
   237  120  121 1    
   238  120  124 1    
   239  120  241 1    
   240  121  122 am   BACKBONE|DICT|INTERRES
   241  121  123 2    
   242  122  242 1    
   243  122  243 1    
   244  124  125 1    
   245  124  244 1    
   246  124  245 1    
   247  125  126 1    
   248  126  246 1    
   249  126  247 1    
@<TRIPOS>SUBSTRUCTURE
     1 UNK         1 GROUP             0       ****    0 ROOT    
