@<TRIPOS>MOLECULE
3R540
247   249    1
SMALL
USER_CHARGES


@<TRIPOS>ATOM
      1 CA         -0.6446  -12.3519  -46.2529 C.3       0 UNK        -0.1800 
      2 C           0.3968  -11.7437  -47.1806 C.2       0 UNK         0.5000 
      3 O           0.3295  -10.5504  -47.4772 O.2       0 UNK        -0.5000 
      4 N           1.3633  -12.5546  -47.6278 N.am      1 UNK        -0.5000 
      5 CA          2.4632  -12.1741  -48.5224 C.3       1 UNK         0.1400 
      6 C6          3.2443  -13.4119  -49.0266 C.3       23 UNK        -0.0398 
      7 S7          2.2245  -14.4658  -50.1082 S.3       23 UNK        -0.2404 
      8 C8          1.7323  -15.7880  -48.9617 C.3       23 UNK        -0.0205 
      9 C9          0.7408  -16.7228  -49.6292 C.ar      23 UNK        -0.0193 
     10 C10        -0.5973  -16.3434  -49.7594 C.ar      23 UNK        -0.1150 
     11 C11        -1.5173  -17.1888  -50.3843 C.ar      23 UNK        -0.0193 
     12 C12        -1.0895  -18.4262  -50.8770 C.ar      23 UNK        -0.1150 
     13 C13         0.2513  -18.8083  -50.7667 C.ar      23 UNK        -0.0193 
     14 C14         1.1597  -17.9557  -50.1333 C.ar      23 UNK        -0.1150 
     15 C15         0.7312  -20.1285  -51.3536 C.3       23 UNK        -0.0205 
     16 S16        -0.0525  -21.5731  -50.5751 S.3       23 UNK        -0.2404 
     17 C17         0.2390  -21.2357  -48.8037 C.3       23 UNK        -0.0398 
     18 CA          0.0965  -22.4821  -47.9006 C.3       11 UNK         0.1400 
     19 N           0.4578  -22.1887  -46.5137 N.am      11 UNK        -0.5000 
     20 C           0.5604  -23.1019  -45.5375 C.2       10 UNK         0.5000 
     21 O           0.4323  -24.3141  -45.7126 O.2       10 UNK        -0.5000 
     22 CA          0.7918  -22.5635  -44.1152 C.3       10 UNK         0.1400 
     23 CB          2.2729  -22.2214  -43.8969 C.3       10 UNK        -0.1800 
     24 N          -0.0384  -21.3943  -43.8174 N.am      10 UNK        -0.5000 
     25 C          -1.3794  -21.4066  -43.7834 C.2       9 UNK         0.5000 
     26 O          -2.0570  -22.4196  -43.9551 O.2       9 UNK        -0.5000 
     27 CA         -2.0866  -20.0572  -43.5638 C.3       9 UNK         0.1400 
     28 CB         -2.0605  -19.6607  -42.0805 C.3       9 UNK        -0.1800 
     29 N          -1.5166  -18.9800  -44.3736 N.am      9 UNK        -0.5000 
     30 C          -1.5228  -18.9479  -45.7140 C.2       8 UNK         0.5000 
     31 O          -2.0433  -19.8135  -46.4160 O.2       8 UNK        -0.5000 
     32 CA         -0.7746  -17.7825  -46.3848 C.3       8 UNK         0.1400 
     33 CB         -1.6249  -16.5032  -46.3925 C.3       8 UNK        -0.1800 
     34 N           0.5150  -17.5163  -45.7484 N.am      8 UNK        -0.5000 
     35 C           1.5444  -18.3755  -45.7477 C.2       7 UNK         0.5000 
     36 O           1.5368  -19.4589  -46.3321 O.2       7 UNK        -0.5000 
     37 CA          2.7644  -17.9787  -44.9015 C.3       7 UNK         0.1400 
     38 CB          3.6813  -17.0193  -45.6765 C.3       7 UNK        -0.1800 
     39 N           2.3641  -17.3745  -43.6291 N.am      7 UNK        -0.5000 
     40 C           1.7991  -18.0592  -42.6223 C.2       6 UNK         0.5000 
     41 O           1.5888  -19.2707  -42.6582 O.2       6 UNK        -0.5000 
     42 CA          1.3565  -17.2587  -41.3827 C.3       6 UNK         0.1400 
     43 CB          2.5181  -17.1231  -40.3873 C.3       6 UNK        -0.1800 
     44 N           0.8455  -15.9285  -41.7110 N.am      6 UNK        -0.5000 
     45 C          -0.2450  -15.6856  -42.4521 C.2       5 UNK         0.5000 
     46 O          -0.9798  -16.5681  -42.8927 O.2       5 UNK        -0.5000 
     47 CA         -0.5263  -14.2134  -42.8100 C.3       5 UNK         0.1400 
     48 CB         -1.4944  -13.5843  -41.7987 C.3       5 UNK        -0.1800 
     49 N           0.6886  -13.3964  -42.8888 N.am      5 UNK        -0.5000 
     50 C           1.6967  -13.6013  -43.7454 C.2       4 UNK         0.5000 
     51 O           1.6790  -14.4776  -44.6129 O.2       4 UNK        -0.5000 
     52 CA          2.9098  -12.6639  -43.6007 C.3       4 UNK         0.1400 
     53 CB          4.1805  -13.2660  -44.2250 C.3       4 UNK        -0.1800 
     54 N           2.6229  -11.3563  -44.1945 N.am      4 UNK        -0.5000 
     55 C           1.8747  -10.4088  -43.6060 C.2       3 UNK         0.5000 
     56 O           1.4239  -10.5333  -42.4654 O.2       3 UNK        -0.5000 
     57 CA          1.5115   -9.1431  -44.4129 C.3       3 UNK         0.1400 
     58 CB          1.6215   -7.8526  -43.5739 C.3       3 UNK        -0.1800 
     59 N           2.2011   -9.0205  -45.7008 N.am      3 UNK        -0.5000 
     60 C           3.4846   -8.7073  -45.9368 C.2       2 UNK         0.5000 
     61 O           4.3000   -8.4205  -45.0594 O.2       2 UNK        -0.5000 
     62 CA          3.9185   -8.7681  -47.4209 C.3       2 UNK         0.1400 
     63 CB          5.4506   -8.7761  -47.6070 C.3       2 UNK        -0.1800 
     64 N           3.2956   -9.8938  -48.1332 N.am      2 UNK        -0.5000 
     65 C           3.3987  -11.1887  -47.7995 C.2       1 UNK         0.5000 
     66 O           4.1311  -11.6054  -46.9039 O.2       1 UNK        -0.5000 
     67 C          -1.3064  -23.1167  -47.9904 C.2       11 UNK         0.5000 
     68 O          -1.4412  -24.1787  -48.5942 O.2       11 UNK        -0.5000 
     69 N          -2.3087  -22.4944  -47.3523 N.am      12 UNK        -0.5000 
     70 CA         -3.6871  -22.9849  -47.3037 C.3       12 UNK         0.1400 
     71 CB         -4.5795  -21.9662  -46.5805 C.3       12 UNK        -0.1800 
     72 C          -3.8116  -24.3760  -46.6581 C.2       12 UNK         0.5000 
     73 O          -4.5527  -25.2119  -47.1734 O.2       12 UNK        -0.5000 
     74 N          -3.0601  -24.6169  -45.5752 N.am      13 UNK        -0.5000 
     75 CA         -2.9663  -25.9151  -44.9085 C.3       13 UNK         0.1400 
     76 CB         -2.1745  -25.7710  -43.6000 C.3       13 UNK        -0.1800 
     77 C          -2.3509  -26.9990  -45.8128 C.2       13 UNK         0.5000 
     78 O          -2.9175  -28.0869  -45.9231 O.2       13 UNK        -0.5000 
     79 N          -1.2300  -26.6729  -46.4727 N.am      14 UNK        -0.5000 
     80 CA         -0.5326  -27.5535  -47.4140 C.3       14 UNK         0.1400 
     81 CB          0.8222  -26.9315  -47.7849 C.3       14 UNK        -0.1800 
     82 C          -1.3551  -27.8609  -48.6805 C.2       14 UNK         0.5000 
     83 O          -1.3380  -28.9953  -49.1592 O.2       14 UNK        -0.5000 
     84 N          -2.0779  -26.8524  -49.1826 N.am      15 UNK        -0.5000 
     85 CA         -2.9532  -26.9305  -50.3526 C.3       15 UNK         0.1400 
     86 CB         -3.1267  -25.5157  -50.9283 C.3       15 UNK        -0.1800 
     87 C          -4.3267  -27.5699  -50.0614 C.2       15 UNK         0.5000 
     88 O          -5.1177  -27.7210  -50.9923 O.2       15 UNK        -0.5000 
     89 N          -4.6006  -27.9144  -48.7938 N.am      16 UNK        -0.5000 
     90 CA         -5.8414  -28.5079  -48.2835 C.3       16 UNK         0.1400 
     91 CB         -6.0331  -29.9368  -48.8336 C.3       16 UNK        -0.1800 
     92 C          -7.0686  -27.5977  -48.5045 C.2       16 UNK         0.5000 
     93 O          -8.1178  -28.0580  -48.9582 O.2       16 UNK        -0.5000 
     94 N          -6.8924  -26.3104  -48.1776 N.am      17 UNK        -0.5000 
     95 CA         -7.8618  -25.2131  -48.2454 C.3       17 UNK         0.1400 
     96 CB         -9.0849  -25.4907  -47.3461 C.3       17 UNK        -0.1800 
     97 C          -8.2552  -24.7876  -49.6759 C.2       17 UNK         0.5000 
     98 O          -9.2490  -24.0769  -49.8400 O.2       17 UNK        -0.5000 
     99 N          -7.4685  -25.1859  -50.6861 N.am      18 UNK        -0.5000 
    100 CA        -7.6052  -24.7094  -52.0632 C.3       18 UNK         0.1400 
    101 CB        -6.8062  -25.6209  -53.0050 C.3       18 UNK        -0.1800 
    102 C         -7.1463  -23.2433  -52.1942 C.2       18 UNK         0.5000 
    103 O         -6.2164  -22.8223  -51.5009 O.2       18 UNK        -0.5000 
    104 N         -7.8165  -22.4977  -53.0780 N.am      19 UNK        -0.5000 
    105 CA        -7.5642  -21.0818  -53.3431 C.3       19 UNK         0.1400 
    106 CB        -8.8696  -20.4587  -53.8695 C.3       19 UNK        -0.1800 
    107 C         -6.4119  -20.8624  -54.3446 C.2       19 UNK         0.5000 
    108 O         -5.9424  -21.8135  -54.9754 O.2       19 UNK        -0.5000 
    109 N         -6.0318  -19.5862  -54.5003 N.am      20 UNK        -0.5000 
    110 CA        -5.0263  -19.0480  -55.4234 C.3       20 UNK         0.1400 
    111 CB        -5.3842  -19.3800  -56.8905 C.3       20 UNK        -0.1800 
    112 C         -3.5747  -19.4203  -55.0493 C.2       20 UNK         0.5000 
    113 O         -3.3200  -19.8901  -53.9388 O.2       20 UNK        -0.5000 
    114 N         -2.6461  -19.1289  -55.9747 N.am      21 UNK        -0.5000 
    115 CA        -1.1823  -19.2363  -55.8611 C.3       21 UNK         0.1400 
    116 CB        -0.7431  -20.6829  -55.5487 C.3       21 UNK        -0.1800 
    117 C         -0.5479  -18.2053  -54.8990 C.2       21 UNK         0.5000 
    118 O          0.6200  -18.3507  -54.5350 O.2       21 UNK        -0.5000 
    119 N         -1.3178  -17.1808  -54.5153 N.am      22 UNK        -0.5000 
    120 CA        -0.9228  -16.1204  -53.5792 C.3       22 UNK         0.1400 
    121 C          0.0458  -15.0876  -54.2152 C.2       22 UNK         0.5000 
    122 N          0.9612  -14.5243  -53.4385 N.am      22 UNK        -0.7600 
    123 O         -0.0508  -14.7590  -55.3959 O.2       22 UNK        -0.5000 
    124 C124       -2.1585  -15.4101  -52.9583 C.3       23 UNK        -0.0398 
    125 S125       -3.4271  -16.5637  -52.3138 S.3       23 UNK        -0.2404 
    126 C126       -2.9614  -16.7431  -50.5599 C.3       23 UNK        -0.0205 
    127 H127       -1.6429  -12.2151  -46.6681 H         1 UNK         0.0600 
    128 H128       -0.6096  -11.8663  -45.2778 H         1 UNK         0.0600 
    129 H129       -0.4811  -13.4195  -46.1088 H         1 UNK         0.0600 
    130 H130        1.3905  -13.5061  -47.2936 H         1 UNK         0.3000 
    131 H131        2.0341  -11.6672  -49.3896 H         1 UNK         0.0600 
    132 H132        4.1135  -13.1006  -49.6088 H         1 UNK         0.0800 
    133 H133        3.6339  -13.9995  -48.1928 H         1 UNK         0.0800 
    134 H134        1.2811  -15.3642  -48.0643 H         1 UNK         0.0800 
    135 H135        2.6175  -16.3361  -48.6356 H         1 UNK         0.0800 
    136 H136       -0.9159  -15.3803  -49.3860 H         1 UNK         0.1150 
    137 H137       -1.7933  -19.0771  -51.3778 H         1 UNK         0.1150 
    138 H138        2.1975  -18.2445  -50.0448 H         1 UNK         0.1150 
    139 H139        0.5120  -20.1427  -52.4218 H         1 UNK         0.0800 
    140 H140        1.8142  -20.2237  -51.2620 H         1 UNK         0.0800 
    141 H141       -0.4441  -20.4479  -48.4838 H         1 UNK         0.0800 
    142 H142        1.2444  -20.8258  -48.6978 H         1 UNK         0.0800 
    143 H143        0.8098  -23.2282  -48.2576 H         1 UNK         0.0600 
    144 H144        0.6227  -21.2121  -46.2891 H         1 UNK         0.3000 
    145 H145        0.5186  -23.3539  -43.4131 H         1 UNK         0.0600 
    146 H146        2.4609  -21.9303  -42.8634 H         1 UNK         0.0600 
    147 H147        2.9089  -23.0806  -44.1133 H         1 UNK         0.0600 
    148 H148        2.5962  -21.4017  -44.5392 H         1 UNK         0.0600 
    149 H149        0.4537  -20.5298  -43.6112 H         1 UNK         0.3000 
    150 H150       -3.1298  -20.1776  -43.8626 H         1 UNK         0.0600 
    151 H151       -2.5161  -20.4349  -41.4618 H         1 UNK         0.0600 
    152 H152       -2.6155  -18.7381  -41.9091 H         1 UNK         0.0600 
    153 H153       -1.0426  -19.5103  -41.7213 H         1 UNK         0.0600 
    154 H154       -1.1190  -18.1927  -43.8684 H         1 UNK         0.3000 
    155 H155       -0.5830  -18.0703  -47.4200 H         1 UNK         0.0600 
    156 H156       -2.5594  -16.6639  -46.9314 H         1 UNK         0.0600 
    157 H157       -1.1021  -15.6853  -46.8868 H         1 UNK         0.0600 
    158 H158       -1.8795  -16.1761  -45.3846 H         1 UNK         0.0600 
    159 H159        0.6050  -16.6550  -45.2273 H         1 UNK         0.3000 
    160 H160        3.3324  -18.8860  -44.6848 H         1 UNK         0.0600 
    161 H161        3.1631  -16.1085  -45.9755 H         1 UNK         0.0600 
    162 H162        4.0547  -17.4923  -46.5855 H         1 UNK         0.0600 
    163 H163        4.5475  -16.7316  -45.0805 H         1 UNK         0.0600 
    164 H164        2.4438  -16.3694  -43.5601 H         1 UNK         0.3000 
    165 H165        0.5531  -17.8153  -40.8965 H         1 UNK         0.0600 
    166 H166        2.1965  -16.6285  -39.4706 H         1 UNK         0.0600 
    167 H167        2.9074  -18.1029  -40.1069 H         1 UNK         0.0600 
    168 H168        3.3450  -16.5491  -40.8075 H         1 UNK         0.0600 
    169 H169        1.3846  -15.1407  -41.3842 H         1 UNK         0.3000 
    170 H170       -1.0028  -14.2027  -43.7919 H         1 UNK         0.0600 
    171 H171       -2.4200  -14.1582  -41.7350 H         1 UNK         0.0600 
    172 H172       -1.0620  -13.5447  -40.7981 H         1 UNK         0.0600 
    173 H173       -1.7622  -12.5683  -42.0896 H         1 UNK         0.0600 
    174 H174        0.7537  -12.6062  -42.2579 H         1 UNK         0.3000 
    175 H175        3.1093  -12.5309  -42.5352 H         1 UNK         0.0600 
    176 H176        4.0337  -13.5465  -45.2679 H         1 UNK         0.0600 
    177 H177        5.0154  -12.5667  -44.1794 H         1 UNK         0.0600 
    178 H178        4.4811  -14.1686  -43.6919 H         1 UNK         0.0600 
    179 H179        2.9812  -11.2027  -45.1295 H         1 UNK         0.3000 
    180 H180        0.4581   -9.2632  -44.6698 H         1 UNK         0.0600 
    181 H181        2.6264   -7.7076  -43.1772 H         1 UNK         0.0600 
    182 H182        0.9412   -7.8828  -42.7220 H         1 UNK         0.0600 
    183 H183        1.3607   -6.9736  -44.1633 H         1 UNK         0.0600 
    184 H184        1.6343   -9.2872  -46.5003 H         1 UNK         0.3000 
    185 H185        3.5358   -7.8584  -47.8859 H         1 UNK         0.0600 
    186 H186        5.8980   -7.8713  -47.1942 H         1 UNK         0.0600 
    187 H187        5.9176   -9.6262  -47.1090 H         1 UNK         0.0600 
    188 H188        5.7190   -8.8169  -48.6626 H         1 UNK         0.0600 
    189 H189        2.6338   -9.6380  -48.8536 H         1 UNK         0.3000 
    190 H190       -2.1286  -21.6037  -46.8939 H         1 UNK         0.3000 
    191 H191       -4.0390  -23.0701  -48.3340 H         1 UNK         0.0600 
    192 H192       -4.2558  -21.8064  -45.5517 H         1 UNK         0.0600 
    193 H193       -5.6158  -22.3050  -46.5516 H         1 UNK         0.0600 
    194 H194       -4.5664  -21.0016  -47.0883 H         1 UNK         0.0600 
    195 H195       -2.5169  -23.8561  -45.1763 H         1 UNK         0.3000 
    196 H196       -3.9803  -26.2316  -44.6551 H         1 UNK         0.0600 
    197 H197       -2.1053  -26.7261  -43.0778 H         1 UNK         0.0600 
    198 H198       -2.6574  -25.0647  -42.9244 H         1 UNK         0.0600 
    199 H199       -1.1584  -25.4189  -43.7783 H         1 UNK         0.0600 
    200 H200       -0.8161  -25.7583  -46.3166 H         1 UNK         0.3000 
    201 H201       -0.3426  -28.5010  -46.9057 H         1 UNK         0.0600 
    202 H202        1.4446  -26.7882  -46.9014 H         1 UNK         0.0600 
    203 H203        0.7006  -25.9612  -48.2676 H         1 UNK         0.0600 
    204 H204        1.3739  -27.5747  -48.4716 H         1 UNK         0.0600 
    205 H205       -1.9737  -25.9285  -48.7663 H         1 UNK         0.3000 
    206 H206       -2.4633  -27.5457  -51.1100 H         1 UNK         0.0600 
    207 H207       -2.1621  -25.0455  -51.1212 H         1 UNK         0.0600 
    208 H208       -3.6616  -25.5401  -51.8764 H         1 UNK         0.0600 
    209 H209       -3.6844  -24.8699  -50.2484 H         1 UNK         0.0600 
    210 H210       -3.8964  -27.7142  -48.0954 H         1 UNK         0.3000 
    211 H211       -5.7148  -28.5884  -47.2028 H         1 UNK         0.0600 
    212 H212       -6.2133  -29.9386  -49.9090 H         1 UNK         0.0600 
    213 H213       -6.8847  -30.4258  -48.3594 H         1 UNK         0.0600 
    214 H214       -5.1558  -30.5538  -48.6395 H         1 UNK         0.0600 
    215 H215       -5.9731  -26.0328  -47.8318 H         1 UNK         0.3000 
    216 H216       -7.3446  -24.3507  -47.8227 H         1 UNK         0.0600 
    217 H217       -9.7127  -24.6038  -47.2538 H         1 UNK         0.0600 
    218 H218       -8.7782  -25.7736  -46.3392 H         1 UNK         0.0600 
    219 H219       -9.7098  -26.2899  -47.7452 H         1 UNK         0.0600 
    220 H220       -6.6697  -25.7694  -50.4818 H         1 UNK         0.3000 
    221 H221       -8.6591  -24.7749  -52.3426 H         1 UNK         0.0600 
    222 H222       -5.7389  -25.5797  -52.7942 H         1 UNK         0.0600 
    223 H223       -7.1255  -26.6596  -52.9160 H         1 UNK         0.0600 
    224 H224       -6.9446  -25.3243  -54.0453 H         1 UNK         0.0600 
    225 H225       -8.5314  -22.9330  -53.6423 H         1 UNK         0.3000 
    226 H226       -7.2977  -20.5873  -52.4064 H         1 UNK         0.0600 
    227 H227       -9.6887  -20.6063  -53.1652 H         1 UNK         0.0600 
    228 H228       -8.7675  -19.3832  -54.0185 H         1 UNK         0.0600 
    229 H229       -9.1664  -20.8945  -54.8244 H         1 UNK         0.0600 
    230 H230       -6.4641  -18.8947  -53.9044 H         1 UNK         0.3000 
    231 H231       -5.0895  -17.9645  -55.3125 H         1 UNK         0.0600 
    232 H232       -6.4367  -19.1812  -57.0934 H         1 UNK         0.0600 
    233 H233       -5.1908  -20.4263  -57.1292 H         1 UNK         0.0600 
    234 H234       -4.8090  -18.7731  -57.5900 H         1 UNK         0.0600 
    235 H235       -2.9710  -18.7427  -56.8503 H         1 UNK         0.3000 
    236 H236       -0.7932  -18.9896  -56.8499 H         1 UNK         0.0600 
    237 H237        0.3365  -20.7945  -55.6550 H         1 UNK         0.0600 
    238 H238       -0.9981  -20.9748  -54.5296 H         1 UNK         0.0600 
    239 H239       -1.2101  -21.3941  -56.2300 H         1 UNK         0.0600 
    240 H240       -2.2591  -17.1279  -54.8708 H         1 UNK         0.3000 
    241 H241       -0.3693  -16.6018  -52.7740 H         1 UNK         0.0600 
    242 H242        1.5856  -13.8415  -53.8385 H         1 UNK         0.3800 
    243 H243        1.0639  -14.7746  -52.4658 H         1 UNK         0.3800 
    244 H244       -1.8483  -14.7379  -52.1565 H         1 UNK         0.0800 
    245 H245       -2.6444  -14.7811  -53.7062 H         1 UNK         0.0800 
    246 H246       -3.6185  -17.4776  -50.0925 H         1 UNK         0.0800 
    247 H247       -3.1430  -15.7975  -50.0468 H         1 UNK         0.0800 
@<TRIPOS>BOND
     1    1    2 1    
     2    1  127 1    
     3    1  128 1    
     4    1  129 1    
     5    2    3 2    
     6    2    4 am   BACKBONE|DICT|INTERRES
     7    4    5 1    
     8    4  130 1    
     9    5    6 1    
    10    5   65 1    
    11    5  131 1    
    12    6    7 1    
    13    6  132 1    
    14    6  133 1    
    15    7    8 1    
    16    8    9 1    
    17    8  134 1    
    18    8  135 1    
    19    9   10 ar   
    20    9   14 ar   
    21   10   11 ar   
    22   10  136 1    
    23   11   12 ar   
    24   11  126 1    
    25   12   13 ar   
    26   12  137 1    
    27   13   14 ar   
    28   13   15 1    
    29   14  138 1    
    30   15   16 1    
    31   15  139 1    
    32   15  140 1    
    33   16   17 1    
    34   17   18 1    
    35   17  141 1    
    36   17  142 1    
    37   18   19 1    
    38   18   67 1    
    39   18  143 1    
    40   19   20 am   BACKBONE|DICT|INTERRES
    41   19  144 1    
    42   20   21 2    
    43   20   22 1    
    44   22   23 1    
    45   22   24 1    
    46   22  145 1    
    47   23  146 1    
    48   23  147 1    
    49   23  148 1    
    50   24   25 am   BACKBONE|DICT|INTERRES
    51   24  149 1    
    52   25   26 2    
    53   25   27 1    
    54   27   28 1    
    55   27   29 1    
    56   27  150 1    
    57   28  151 1    
    58   28  152 1    
    59   28  153 1    
    60   29   30 am   BACKBONE|DICT|INTERRES
    61   29  154 1    
    62   30   31 2    
    63   30   32 1    
    64   32   33 1    
    65   32   34 1    
    66   32  155 1    
    67   33  156 1    
    68   33  157 1    
    69   33  158 1    
    70   34   35 am   BACKBONE|DICT|INTERRES
    71   34  159 1    
    72   35   36 2    
    73   35   37 1    
    74   37   38 1    
    75   37   39 1    
    76   37  160 1    
    77   38  161 1    
    78   38  162 1    
    79   38  163 1    
    80   39   40 am   BACKBONE|DICT|INTERRES
    81   39  164 1    
    82   40   41 2    
    83   40   42 1    
    84   42   43 1    
    85   42   44 1    
    86   42  165 1    
    87   43  166 1    
    88   43  167 1    
    89   43  168 1    
    90   44   45 am   BACKBONE|DICT|INTERRES
    91   44  169 1    
    92   45   46 2    
    93   45   47 1    
    94   47   48 1    
    95   47   49 1    
    96   47  170 1    
    97   48  171 1    
    98   48  172 1    
    99   48  173 1    
   100   49   50 am   BACKBONE|DICT|INTERRES
   101   49  174 1    
   102   50   51 2    
   103   50   52 1    
   104   52   53 1    
   105   52   54 1    
   106   52  175 1    
   107   53  176 1    
   108   53  177 1    
   109   53  178 1    
   110   54   55 am   BACKBONE|DICT|INTERRES
   111   54  179 1    
   112   55   56 2    
   113   55   57 1    
   114   57   58 1    
   115   57   59 1    
   116   57  180 1    
   117   58  181 1    
   118   58  182 1    
   119   58  183 1    
   120   59   60 am   BACKBONE|DICT|INTERRES
   121   59  184 1    
   122   60   61 2    
   123   60   62 1    
   124   62   63 1    
   125   62   64 1    
   126   62  185 1    
   127   63  186 1    
   128   63  187 1    
   129   63  188 1    
   130   64   65 am   BACKBONE|DICT|INTERRES
   131   64  189 1    
   132   65   66 2    
   133   67   68 2    
   134   67   69 am   BACKBONE|DICT|INTERRES
   135   69   70 1    
   136   69  190 1    
   137   70   71 1    
   138   70   72 1    
   139   70  191 1    
   140   71  192 1    
   141   71  193 1    
   142   71  194 1    
   143   72   73 2    
   144   72   74 am   BACKBONE|DICT|INTERRES
   145   74   75 1    
   146   74  195 1    
   147   75   76 1    
   148   75   77 1    
   149   75  196 1    
   150   76  197 1    
   151   76  198 1    
   152   76  199 1    
   153   77   78 2    
   154   77   79 am   BACKBONE|DICT|INTERRES
   155   79   80 1    
   156   79  200 1    
   157   80   81 1    
   158   80   82 1    
   159   80  201 1    
   160   81  202 1    
   161   81  203 1    
   162   81  204 1    
   163   82   83 2    
   164   82   84 am   BACKBONE|DICT|INTERRES
   165   84   85 1    
   166   84  205 1    
   167   85   86 1    
   168   85   87 1    
   169   85  206 1    
   170   86  207 1    
   171   86  208 1    
   172   86  209 1    
   173   87   88 2    
   174   87   89 am   BACKBONE|DICT|INTERRES
   175   89   90 1    
   176   89  210 1    
   177   90   91 1    
   178   90   92 1    
   179   90  211 1    
   180   91  212 1    
   181   91  213 1    
   182   91  214 1    
   183   92   93 2    
   184   92   94 am   BACKBONE|DICT|INTERRES
   185   94   95 1    
   186   94  215 1    
   187   95   96 1    
   188   95   97 1    
   189   95  216 1    
   190   96  217 1    
   191   96  218 1    
   192   96  219 1    
   193   97   98 2    
   194   97   99 am   BACKBONE|DICT|INTERRES
   195   99  100 1    
   196   99  220 1    
   197  100  101 1    
   198  100  102 1    
   199  100  221 1    
   200  101  222 1    
   201  101  223 1    
   202  101  224 1    
   203  102  103 2    
   204  102  104 am   BACKBONE|DICT|INTERRES
   205  104  105 1    
   206  104  225 1    
   207  105  106 1    
   208  105  107 1    
   209  105  226 1    
   210  106  227 1    
   211  106  228 1    
   212  106  229 1    
   213  107  108 2    
   214  107  109 am   BACKBONE|DICT|INTERRES
   215  109  110 1    
   216  109  230 1    
   217  110  111 1    
   218  110  112 1    
   219  110  231 1    
   220  111  232 1    
   221  111  233 1    
   222  111  234 1    
   223  112  113 2    
   224  112  114 am   BACKBONE|DICT|INTERRES
   225  114  115 1    
   226  114  235 1    
   227  115  116 1    
   228  115  117 1    
   229  115  236 1    
   230  116  237 1    
   231  116  238 1    
   232  116  239 1    
   233  117  118 2    
   234  117  119 am   BACKBONE|DICT|INTERRES
   235  119  120 1    
   236  119  240 1    
   237  120  121 1    
   238  120  124 1    
   239  120  241 1    
   240  121  122 am   BACKBONE|DICT|INTERRES
   241  121  123 2    
   242  122  242 1    
   243  122  243 1    
   244  124  125 1    
   245  124  244 1    
   246  124  245 1    
   247  125  126 1    
   248  126  246 1    
   249  126  247 1    
@<TRIPOS>SUBSTRUCTURE
     1 UNK         1 GROUP             0       ****    0 ROOT    
