@<TRIPOS>MOLECULE
3R540
247   249    1
SMALL
USER_CHARGES


@<TRIPOS>ATOM
      1 CA          0.1333  -12.1159  -49.9127 C.3       0 UNK        -0.1800 
      2 C           1.1397  -12.6880  -48.9258 C.2       0 UNK         0.5000 
      3 O           0.7624  -13.0458  -47.8115 O.2       0 UNK        -0.5000 
      4 N           2.4105  -12.7821  -49.3395 N.am      1 UNK        -0.5000 
      5 CA          3.5360  -13.3011  -48.5551 C.3       1 UNK         0.1400 
      6 C6          3.3586  -14.7996  -48.1848 C.3       23 UNK        -0.0398 
      7 S7          4.9344  -15.7131  -48.0935 S.3       23 UNK        -0.2404 
      8 C8          5.1536  -16.2747  -49.8148 C.3       23 UNK        -0.0205 
      9 C9          4.1111  -17.2998  -50.2427 C.ar      23 UNK        -0.0193 
     10 C10         2.9967  -16.9000  -50.9848 C.ar      23 UNK        -0.1150 
     11 C11         2.0286  -17.8269  -51.3800 C.ar      23 UNK        -0.0193 
     12 C12         2.2065  -19.1780  -51.0646 C.ar      23 UNK        -0.1150 
     13 C13         3.3366  -19.5988  -50.3538 C.ar      23 UNK        -0.0193 
     14 C14         4.2752  -18.6519  -49.9303 C.ar      23 UNK        -0.1150 
     15 C15         3.5798  -21.0787  -50.0893 C.3       23 UNK        -0.0205 
     16 S16         2.8719  -21.6311  -48.5077 S.3       23 UNK        -0.2404 
     17 C17         1.1095  -21.7839  -48.9438 C.3       23 UNK        -0.0398 
     18 CA          0.3454  -22.7501  -48.0084 C.3       11 UNK         0.1400 
     19 N           0.2830  -22.2712  -46.6241 N.am      11 UNK        -0.5000 
     20 C          -0.2174  -22.9658  -45.5924 C.2       10 UNK         0.5000 
     21 O          -0.6291  -24.1222  -45.6805 O.2       10 UNK        -0.5000 
     22 CA         -0.3316  -22.2278  -44.2477 C.3       10 UNK         0.1400 
     23 CB          1.0124  -22.2093  -43.5038 C.3       10 UNK        -0.1800 
     24 N          -0.8324  -20.8632  -44.4165 N.am      10 UNK        -0.5000 
     25 C          -2.0917  -20.5631  -44.7660 C.2       9 UNK         0.5000 
     26 O          -2.9696  -21.4072  -44.9414 O.2       9 UNK        -0.5000 
     27 CA         -2.4196  -19.0754  -44.9940 C.3       9 UNK         0.1400 
     28 CB         -2.8131  -18.3984  -43.6731 C.3       9 UNK        -0.1800 
     29 N          -1.3217  -18.3320  -45.6122 N.am      9 UNK        -0.5000 
     30 C          -0.8361  -18.5822  -46.8365 C.2       8 UNK         0.5000 
     31 O          -1.2758  -19.4579  -47.5801 O.2       8 UNK        -0.5000 
     32 CA          0.3786  -17.7491  -47.2786 C.3       8 UNK         0.1400 
     33 CB         -0.0765  -16.3390  -47.6813 C.3       8 UNK        -0.1800 
     34 N           1.4296  -17.6712  -46.2564 N.am      8 UNK        -0.5000 
     35 C           2.0313  -18.7238  -45.6824 C.2       7 UNK         0.5000 
     36 O           1.7575  -19.8888  -45.9604 O.2       7 UNK        -0.5000 
     37 CA          3.0508  -18.4622  -44.5550 C.3       7 UNK         0.1400 
     38 CB          4.4509  -18.1356  -45.1055 C.3       7 UNK        -0.1800 
     39 N           2.5907  -17.4822  -43.5634 N.am      7 UNK        -0.5000 
     40 C           2.4095  -16.1664  -43.7248 C.2       6 UNK         0.5000 
     41 O           2.7396  -15.5410  -44.7353 O.2       6 UNK        -0.5000 
     42 CA          1.6692  -15.4463  -42.5830 C.3       6 UNK         0.1400 
     43 CB          2.6459  -14.7728  -41.6094 C.3       6 UNK        -0.1800 
     44 N           0.7346  -14.4543  -43.1092 N.am      6 UNK        -0.5000 
     45 C          -0.3163  -14.7468  -43.8897 C.2       5 UNK         0.5000 
     46 O          -0.6641  -15.9021  -44.1478 O.2       5 UNK        -0.5000 
     47 CA         -1.0889  -13.5559  -44.4944 C.3       5 UNK         0.1400 
     48 CB         -2.5334  -13.9201  -44.8975 C.3       5 UNK        -0.1800 
     49 N          -1.0561  -12.3542  -43.6531 N.am      5 UNK        -0.5000 
     50 C          -1.5499  -12.2073  -42.4133 C.2       4 UNK         0.5000 
     51 O          -2.1857  -13.0799  -41.8198 O.2       4 UNK        -0.5000 
     52 CA         -1.2795  -10.8481  -41.7260 C.3       4 UNK         0.1400 
     53 CB         -1.3009  -10.9411  -40.1853 C.3       4 UNK        -0.1800 
     54 N          -0.0505  -10.1892  -42.1933 N.am      4 UNK        -0.5000 
     55 C           1.2025  -10.6565  -42.0915 C.2       3 UNK         0.5000 
     56 O           1.5065  -11.7081  -41.5259 O.2       3 UNK        -0.5000 
     57 CA          2.2982   -9.7968  -42.7515 C.3       3 UNK         0.1400 
     58 CB          2.9561   -8.8795  -41.7095 C.3       3 UNK        -0.1800 
     59 N           3.3420  -10.5798  -43.4214 N.am      3 UNK        -0.5000 
     60 C           3.1459  -11.5189  -44.3581 C.2       2 UNK         0.5000 
     61 O           2.0303  -11.8805  -44.7418 O.2       2 UNK        -0.5000 
     62 CA          4.4239  -12.1318  -44.9698 C.3       2 UNK         0.1400 
     63 CB          5.1686  -13.0380  -43.9758 C.3       2 UNK        -0.1800 
     64 N           4.1439  -12.8984  -46.1830 N.am      2 UNK        -0.5000 
     65 C           3.8799  -12.3553  -47.3785 C.2       1 UNK         0.5000 
     66 O           3.9337  -11.1404  -47.5912 O.2       1 UNK        -0.5000 
     67 C          -1.0608  -23.0438  -48.5672 C.2       11 UNK         0.5000 
     68 O          -1.2704  -24.1111  -49.1437 O.2       11 UNK        -0.5000 
     69 N          -2.0051  -22.1180  -48.3466 N.am      12 UNK        -0.5000 
     70 CA         -3.4109  -22.2587  -48.7225 C.3       12 UNK         0.1400 
     71 CB         -4.1555  -20.9491  -48.4304 C.3       12 UNK        -0.1800 
     72 C          -4.0948  -23.4419  -48.0167 C.2       12 UNK         0.5000 
     73 O          -4.8057  -24.2013  -48.6725 O.2       12 UNK        -0.5000 
     74 N          -3.8435  -23.6025  -46.7088 N.am      13 UNK        -0.5000 
     75 CA         -4.3430  -24.7158  -45.9003 C.3       13 UNK         0.1400 
     76 CB         -4.0373  -24.4658  -44.4163 C.3       13 UNK        -0.1800 
     77 C          -3.7872  -26.0776  -46.3523 C.2       13 UNK         0.5000 
     78 O          -4.5564  -27.0314  -46.4712 O.2       13 UNK        -0.5000 
     79 N          -2.4796  -26.1380  -46.6443 N.am      14 UNK        -0.5000 
     80 CA         -1.7985  -27.3216  -47.1787 C.3       14 UNK         0.1400 
     81 CB         -0.2838  -27.0688  -47.2144 C.3       14 UNK        -0.1800 
     82 C          -2.3156  -27.7355  -48.5705 C.2       14 UNK         0.5000 
     83 O          -2.4232  -28.9291  -48.8528 O.2       14 UNK        -0.5000 
     84 N          -2.6674  -26.7405  -49.3935 N.am      15 UNK        -0.5000 
     85 CA         -3.2991  -26.9016  -50.7029 C.3       15 UNK         0.1400 
     86 CB         -2.9605  -25.6678  -51.5517 C.3       15 UNK        -0.1800 
     87 C          -4.8276  -27.1155  -50.6308 C.2       15 UNK         0.5000 
     88 O          -5.4654  -27.2083  -51.6804 O.2       15 UNK        -0.5000 
     89 N          -5.4014  -27.1592  -49.4171 N.am      16 UNK        -0.5000 
     90 CA         -6.8269  -27.3314  -49.1059 C.3       16 UNK         0.1400 
     91 CB         -7.2799  -28.7643  -49.4538 C.3       16 UNK        -0.1800 
     92 C          -7.7328  -26.2491  -49.7356 C.2       16 UNK         0.5000 
     93 O          -8.8798  -26.5303  -50.0865 O.2       16 UNK        -0.5000 
     94 N          -7.1812  -25.0367  -49.8917 N.am      17 UNK        -0.5000 
     95 CA         -7.7493  -23.8495  -50.5378 C.3       17 UNK         0.1400 
     96 CB         -8.9759  -23.3350  -49.7576 C.3       17 UNK        -0.1800 
     97 C          -8.0366  -24.0087  -52.0485 C.2       17 UNK         0.5000 
     98 O          -8.6692  -23.1282  -52.6339 O.2       17 UNK        -0.5000 
     99 N          -7.5550  -25.0949  -52.6720 N.am      18 UNK        -0.5000 
    100 CA        -7.6837  -25.3489  -54.1101 C.3       18 UNK         0.1400 
    101 CB        -7.5645  -26.8593  -54.3651 C.3       18 UNK        -0.1800 
    102 C         -6.6393  -24.5757  -54.9387 C.2       18 UNK         0.5000 
    103 O         -6.8194  -24.4096  -56.1458 O.2       18 UNK        -0.5000 
    104 N         -5.5745  -24.1158  -54.2762 N.am      19 UNK        -0.5000 
    105 CA        -4.4840  -23.3141  -54.8099 C.3       19 UNK         0.1400 
    106 CB        -3.4743  -24.2247  -55.5350 C.3       19 UNK        -0.1800 
    107 C         -3.8337  -22.5626  -53.6374 C.2       19 UNK         0.5000 
    108 O         -4.2221  -22.7719  -52.4851 O.2       19 UNK        -0.5000 
    109 N         -2.8579  -21.7004  -53.9546 N.am      20 UNK        -0.5000 
    110 CA        -1.9778  -20.9705  -53.0284 C.3       20 UNK         0.1400 
    111 CB        -1.0930  -21.9556  -52.2392 C.3       20 UNK        -0.1800 
    112 C         -2.6780  -19.9562  -52.0969 C.2       20 UNK         0.5000 
    113 O         -2.0345  -19.4182  -51.1958 O.2       20 UNK        -0.5000 
    114 N         -3.9612  -19.6676  -52.3452 N.am      21 UNK        -0.5000 
    115 CA        -4.7905  -18.7234  -51.5969 C.3       21 UNK         0.1400 
    116 CB        -6.2653  -19.1354  -51.7553 C.3       21 UNK        -0.1800 
    117 C         -4.5178  -17.2654  -52.0211 C.2       21 UNK         0.5000 
    118 O         -5.4304  -16.5631  -52.4601 O.2       21 UNK        -0.5000 
    119 N         -3.2527  -16.8464  -51.9062 N.am      22 UNK        -0.5000 
    120 CA        -2.7712  -15.4992  -52.2462 C.3       22 UNK         0.1400 
    121 C         -3.1274  -14.3898  -51.2124 C.2       22 UNK         0.5000 
    122 N         -3.5938  -14.7193  -50.0137 N.am      22 UNK        -0.7600 
    123 O         -2.9997  -13.2067  -51.5150 O.2       22 UNK        -0.5000 
    124 C124       -1.2632  -15.5023  -52.6082 C.3       23 UNK        -0.0398 
    125 S125       -0.1698  -16.1294  -51.2835 S.3       23 UNK        -0.2404 
    126 C126        0.8219  -17.3638  -52.1861 C.3       23 UNK        -0.0205 
    127 H127       -0.3537  -11.2378  -49.4888 H         1 UNK         0.0600 
    128 H128        0.6025  -11.8267  -50.8532 H         1 UNK         0.0600 
    129 H129       -0.6320  -12.8602  -50.1303 H         1 UNK         0.0600 
    130 H130        2.6531  -12.4303  -50.2547 H         1 UNK         0.3000 
    131 H131        4.3874  -13.2293  -49.2334 H         1 UNK         0.0600 
    132 H132        2.8034  -14.9237  -47.2553 H         1 UNK         0.0800 
    133 H133        2.7402  -15.2858  -48.9334 H         1 UNK         0.0800 
    134 H134        5.1356  -15.4114  -50.4817 H         1 UNK         0.0800 
    135 H135        6.1488  -16.7101  -49.9147 H         1 UNK         0.0800 
    136 H136        2.8715  -15.8587  -51.2470 H         1 UNK         0.1150 
    137 H137        1.4776  -19.9051  -51.3914 H         1 UNK         0.1150 
    138 H138        5.1458  -18.9698  -49.3738 H         1 UNK         0.1150 
    139 H139        3.1855  -21.6818  -50.9084 H         1 UNK         0.0800 
    140 H140        4.6534  -21.2722  -50.0705 H         1 UNK         0.0800 
    141 H141        1.0549  -22.1473  -49.9704 H         1 UNK         0.0800 
    142 H142        0.6575  -20.7907  -48.9384 H         1 UNK         0.0800 
    143 H143        0.8845  -23.6999  -47.9945 H         1 UNK         0.0600 
    144 H144        0.6580  -21.3410  -46.4529 H         1 UNK         0.3000 
    145 H145       -1.0461  -22.7745  -43.6286 H         1 UNK         0.0600 
    146 H146        0.9233  -21.7092  -42.5395 H         1 UNK         0.0600 
    147 H147        1.3606  -23.2249  -43.3119 H         1 UNK         0.0600 
    148 H148        1.7902  -21.7032  -44.0748 H         1 UNK         0.0600 
    149 H149       -0.1561  -20.1167  -44.3606 H         1 UNK         0.3000 
    150 H150       -3.2758  -19.0266  -45.6697 H         1 UNK         0.0600 
    151 H151       -3.6381  -18.9259  -43.1926 H         1 UNK         0.0600 
    152 H152       -3.1369  -17.3706  -43.8394 H         1 UNK         0.0600 
    153 H153       -1.9802  -18.3755  -42.9693 H         1 UNK         0.0600 
    154 H154       -0.9346  -17.5584  -45.0766 H         1 UNK         0.3000 
    155 H155        0.8072  -18.2339  -48.1587 H         1 UNK         0.0600 
    156 H156        0.6977  -15.8197  -48.2383 H         1 UNK         0.0600 
    157 H157       -0.3346  -15.7276  -46.8177 H         1 UNK         0.0600 
    158 H158       -0.9544  -16.3771  -48.3276 H         1 UNK         0.0600 
    159 H159        1.7054  -16.7474  -45.9410 H         1 UNK         0.3000 
    160 H160        3.1424  -19.4007  -44.0060 H         1 UNK         0.0600 
    161 H161        4.4638  -17.2035  -45.6664 H         1 UNK         0.0600 
    162 H162        4.7951  -18.9214  -45.7790 H         1 UNK         0.0600 
    163 H163        5.1807  -18.0513  -44.3006 H         1 UNK         0.0600 
    164 H164        2.2724  -17.8896  -42.6952 H         1 UNK         0.3000 
    165 H165        1.0884  -16.1844  -42.0261 H         1 UNK         0.0600 
    166 H166        3.1418  -13.9156  -42.0624 H         1 UNK         0.0600 
    167 H167        2.1241  -14.4151  -40.7216 H         1 UNK         0.0600 
    168 H168        3.4176  -15.4676  -41.2761 H         1 UNK         0.0600 
    169 H169        0.9759  -13.4821  -42.9642 H         1 UNK         0.3000 
    170 H170       -0.5527  -13.2936  -45.4073 H         1 UNK         0.0600 
    171 H171       -3.1161  -14.2718  -44.0458 H         1 UNK         0.0600 
    172 H172       -2.5407  -14.7134  -45.6459 H         1 UNK         0.0600 
    173 H173       -3.0503  -13.0637  -45.3300 H         1 UNK         0.0600 
    174 H174       -0.5128  -11.5898  -44.0306 H         1 UNK         0.3000 
    175 H175       -2.1027  -10.1972  -42.0235 H         1 UNK         0.0600 
    176 H176       -1.1082   -9.9703  -39.7287 H         1 UNK         0.0600 
    177 H177       -2.2740  -11.2786  -39.8270 H         1 UNK         0.0600 
    178 H178       -0.5552  -11.6426  -39.8104 H         1 UNK         0.0600 
    179 H179       -0.1937   -9.3119  -42.6748 H         1 UNK         0.3000 
    180 H180        1.8320   -9.1712  -43.5152 H         1 UNK         0.0600 
    181 H181        3.4766   -9.4540  -40.9421 H         1 UNK         0.0600 
    182 H182        2.2119   -8.2602  -41.2067 H         1 UNK         0.0600 
    183 H183        3.6770   -8.2057  -42.1729 H         1 UNK         0.0600 
    184 H184        4.2900  -10.3654  -43.1496 H         1 UNK         0.3000 
    185 H185        5.0881  -11.3043  -45.2282 H         1 UNK         0.0600 
    186 H186        6.1515  -13.3094  -44.3613 H         1 UNK         0.0600 
    187 H187        5.3244  -12.5438  -43.0163 H         1 UNK         0.0600 
    188 H188        4.6275  -13.9632  -43.7879 H         1 UNK         0.0600 
    189 H189        4.0189  -13.8942  -46.0558 H         1 UNK         0.3000 
    190 H190       -1.7385  -21.2367  -47.9124 H         1 UNK         0.3000 
    191 H191       -3.4489  -22.4394  -49.7985 H         1 UNK         0.0600 
    192 H192       -3.6503  -20.1032  -48.8943 H         1 UNK         0.0600 
    193 H193       -5.1728  -20.9830  -48.8223 H         1 UNK         0.0600 
    194 H194       -4.2179  -20.7484  -47.3607 H         1 UNK         0.0600 
    195 H195       -3.2881  -22.9043  -46.2243 H         1 UNK         0.3000 
    196 H196       -5.4281  -24.7480  -46.0187 H         1 UNK         0.0600 
    197 H197       -4.4079  -25.2837  -43.7973 H         1 UNK         0.0600 
    198 H198       -4.5152  -23.5512  -44.0650 H         1 UNK         0.0600 
    199 H199       -2.9664  -24.3747  -44.2342 H         1 UNK         0.0600 
    200 H200       -1.9014  -25.3180  -46.4785 H         1 UNK         0.3000 
    201 H201       -1.9889  -28.1516  -46.4954 H         1 UNK         0.0600 
    202 H202        0.1032  -26.8547  -46.2180 H         1 UNK         0.0600 
    203 H203       -0.0316  -26.2258  -47.8584 H         1 UNK         0.0600 
    204 H204        0.2502  -27.9422  -47.5906 H         1 UNK         0.0600 
    205 H205       -2.4871  -25.7855  -49.1001 H         1 UNK         0.3000 
    206 H206       -2.8762  -27.7785  -51.1968 H         1 UNK         0.0600 
    207 H207       -1.8839  -25.5606  -51.6838 H         1 UNK         0.0600 
    208 H208       -3.4057  -25.7307  -52.5449 H         1 UNK         0.0600 
    209 H209       -3.3281  -24.7568  -51.0797 H         1 UNK         0.0600 
    210 H210       -4.8029  -27.0373  -48.6093 H         1 UNK         0.3000 
    211 H211       -6.9188  -27.2084  -48.0261 H         1 UNK         0.0600 
    212 H212       -7.2699  -28.9412  -50.5298 H         1 UNK         0.0600 
    213 H213       -8.2943  -28.9524  -49.1003 H         1 UNK         0.0600 
    214 H214       -6.6326  -29.5059  -48.9857 H         1 UNK         0.0600 
    215 H215       -6.2358  -24.9045  -49.5325 H         1 UNK         0.3000 
    216 H216       -6.9746  -23.0843  -50.4679 H         1 UNK         0.0600 
    217 H217       -8.7437  -23.2050  -48.7005 H         1 UNK         0.0600 
    218 H218       -9.8217  -24.0185  -49.8350 H         1 UNK         0.0600 
    219 H219       -9.3041  -22.3666  -50.1366 H         1 UNK         0.0600 
    220 H220       -7.0285  -25.7778  -52.1386 H         1 UNK         0.3000 
    221 H221       -8.6741  -25.0280  -54.4397 H         1 UNK         0.0600 
    222 H222       -6.5718  -27.2336  -54.1135 H         1 UNK         0.0600 
    223 H223       -8.2933  -27.4186  -53.7782 H         1 UNK         0.0600 
    224 H224       -7.7440  -27.0919  -55.4154 H         1 UNK         0.0600 
    225 H225       -5.5313  -24.2395  -53.2720 H         1 UNK         0.3000 
    226 H226       -4.8865  -22.5763  -55.5068 H         1 UNK         0.0600 
    227 H227       -3.9486  -24.7737  -56.3485 H         1 UNK         0.0600 
    228 H228       -2.6600  -23.6467  -55.9727 H         1 UNK         0.0600 
    229 H229       -3.0314  -24.9537  -54.8557 H         1 UNK         0.0600 
    230 H230       -2.6407  -21.5735  -54.9335 H         1 UNK         0.3000 
    231 H231       -1.3152  -20.3739  -53.6569 H         1 UNK         0.0600 
    232 H232       -0.3590  -21.4206  -51.6390 H         1 UNK         0.0600 
    233 H233       -0.5436  -22.6180  -52.9079 H         1 UNK         0.0600 
    234 H234       -1.6800  -22.5758  -51.5620 H         1 UNK         0.0600 
    235 H235       -4.4060  -20.1388  -53.1181 H         1 UNK         0.3000 
    236 H236       -4.5432  -18.7926  -50.5372 H         1 UNK         0.0600 
    237 H237       -6.9192  -18.4817  -51.1767 H         1 UNK         0.0600 
    238 H238       -6.5880  -19.0883  -52.7960 H         1 UNK         0.0600 
    239 H239       -6.4291  -20.1533  -51.3998 H         1 UNK         0.0600 
    240 H240       -2.5630  -17.4941  -51.5375 H         1 UNK         0.3000 
    241 H241       -3.2959  -15.2026  -53.1566 H         1 UNK         0.0600 
    242 H242       -3.7026  -15.6859  -49.7559 H         1 UNK         0.3800 
    243 H243       -3.8317  -13.9924  -49.3582 H         1 UNK         0.3800 
    244 H244       -1.1197  -16.1068  -53.5045 H         1 UNK         0.0800 
    245 H245       -0.9312  -14.4990  -52.8807 H         1 UNK         0.0800 
    246 H246        1.1770  -16.9314  -53.1225 H         1 UNK         0.0800 
    247 H247        0.1833  -18.2076  -52.4508 H         1 UNK         0.0800 
@<TRIPOS>BOND
     1    1    2 1    
     2    1  127 1    
     3    1  128 1    
     4    1  129 1    
     5    2    3 2    
     6    2    4 am   BACKBONE|DICT|INTERRES
     7    4    5 1    
     8    4  130 1    
     9    5    6 1    
    10    5   65 1    
    11    5  131 1    
    12    6    7 1    
    13    6  132 1    
    14    6  133 1    
    15    7    8 1    
    16    8    9 1    
    17    8  134 1    
    18    8  135 1    
    19    9   10 ar   
    20    9   14 ar   
    21   10   11 ar   
    22   10  136 1    
    23   11   12 ar   
    24   11  126 1    
    25   12   13 ar   
    26   12  137 1    
    27   13   14 ar   
    28   13   15 1    
    29   14  138 1    
    30   15   16 1    
    31   15  139 1    
    32   15  140 1    
    33   16   17 1    
    34   17   18 1    
    35   17  141 1    
    36   17  142 1    
    37   18   19 1    
    38   18   67 1    
    39   18  143 1    
    40   19   20 am   BACKBONE|DICT|INTERRES
    41   19  144 1    
    42   20   21 2    
    43   20   22 1    
    44   22   23 1    
    45   22   24 1    
    46   22  145 1    
    47   23  146 1    
    48   23  147 1    
    49   23  148 1    
    50   24   25 am   BACKBONE|DICT|INTERRES
    51   24  149 1    
    52   25   26 2    
    53   25   27 1    
    54   27   28 1    
    55   27   29 1    
    56   27  150 1    
    57   28  151 1    
    58   28  152 1    
    59   28  153 1    
    60   29   30 am   BACKBONE|DICT|INTERRES
    61   29  154 1    
    62   30   31 2    
    63   30   32 1    
    64   32   33 1    
    65   32   34 1    
    66   32  155 1    
    67   33  156 1    
    68   33  157 1    
    69   33  158 1    
    70   34   35 am   BACKBONE|DICT|INTERRES
    71   34  159 1    
    72   35   36 2    
    73   35   37 1    
    74   37   38 1    
    75   37   39 1    
    76   37  160 1    
    77   38  161 1    
    78   38  162 1    
    79   38  163 1    
    80   39   40 am   BACKBONE|DICT|INTERRES
    81   39  164 1    
    82   40   41 2    
    83   40   42 1    
    84   42   43 1    
    85   42   44 1    
    86   42  165 1    
    87   43  166 1    
    88   43  167 1    
    89   43  168 1    
    90   44   45 am   BACKBONE|DICT|INTERRES
    91   44  169 1    
    92   45   46 2    
    93   45   47 1    
    94   47   48 1    
    95   47   49 1    
    96   47  170 1    
    97   48  171 1    
    98   48  172 1    
    99   48  173 1    
   100   49   50 am   BACKBONE|DICT|INTERRES
   101   49  174 1    
   102   50   51 2    
   103   50   52 1    
   104   52   53 1    
   105   52   54 1    
   106   52  175 1    
   107   53  176 1    
   108   53  177 1    
   109   53  178 1    
   110   54   55 am   BACKBONE|DICT|INTERRES
   111   54  179 1    
   112   55   56 2    
   113   55   57 1    
   114   57   58 1    
   115   57   59 1    
   116   57  180 1    
   117   58  181 1    
   118   58  182 1    
   119   58  183 1    
   120   59   60 am   BACKBONE|DICT|INTERRES
   121   59  184 1    
   122   60   61 2    
   123   60   62 1    
   124   62   63 1    
   125   62   64 1    
   126   62  185 1    
   127   63  186 1    
   128   63  187 1    
   129   63  188 1    
   130   64   65 am   BACKBONE|DICT|INTERRES
   131   64  189 1    
   132   65   66 2    
   133   67   68 2    
   134   67   69 am   BACKBONE|DICT|INTERRES
   135   69   70 1    
   136   69  190 1    
   137   70   71 1    
   138   70   72 1    
   139   70  191 1    
   140   71  192 1    
   141   71  193 1    
   142   71  194 1    
   143   72   73 2    
   144   72   74 am   BACKBONE|DICT|INTERRES
   145   74   75 1    
   146   74  195 1    
   147   75   76 1    
   148   75   77 1    
   149   75  196 1    
   150   76  197 1    
   151   76  198 1    
   152   76  199 1    
   153   77   78 2    
   154   77   79 am   BACKBONE|DICT|INTERRES
   155   79   80 1    
   156   79  200 1    
   157   80   81 1    
   158   80   82 1    
   159   80  201 1    
   160   81  202 1    
   161   81  203 1    
   162   81  204 1    
   163   82   83 2    
   164   82   84 am   BACKBONE|DICT|INTERRES
   165   84   85 1    
   166   84  205 1    
   167   85   86 1    
   168   85   87 1    
   169   85  206 1    
   170   86  207 1    
   171   86  208 1    
   172   86  209 1    
   173   87   88 2    
   174   87   89 am   BACKBONE|DICT|INTERRES
   175   89   90 1    
   176   89  210 1    
   177   90   91 1    
   178   90   92 1    
   179   90  211 1    
   180   91  212 1    
   181   91  213 1    
   182   91  214 1    
   183   92   93 2    
   184   92   94 am   BACKBONE|DICT|INTERRES
   185   94   95 1    
   186   94  215 1    
   187   95   96 1    
   188   95   97 1    
   189   95  216 1    
   190   96  217 1    
   191   96  218 1    
   192   96  219 1    
   193   97   98 2    
   194   97   99 am   BACKBONE|DICT|INTERRES
   195   99  100 1    
   196   99  220 1    
   197  100  101 1    
   198  100  102 1    
   199  100  221 1    
   200  101  222 1    
   201  101  223 1    
   202  101  224 1    
   203  102  103 2    
   204  102  104 am   BACKBONE|DICT|INTERRES
   205  104  105 1    
   206  104  225 1    
   207  105  106 1    
   208  105  107 1    
   209  105  226 1    
   210  106  227 1    
   211  106  228 1    
   212  106  229 1    
   213  107  108 2    
   214  107  109 am   BACKBONE|DICT|INTERRES
   215  109  110 1    
   216  109  230 1    
   217  110  111 1    
   218  110  112 1    
   219  110  231 1    
   220  111  232 1    
   221  111  233 1    
   222  111  234 1    
   223  112  113 2    
   224  112  114 am   BACKBONE|DICT|INTERRES
   225  114  115 1    
   226  114  235 1    
   227  115  116 1    
   228  115  117 1    
   229  115  236 1    
   230  116  237 1    
   231  116  238 1    
   232  116  239 1    
   233  117  118 2    
   234  117  119 am   BACKBONE|DICT|INTERRES
   235  119  120 1    
   236  119  240 1    
   237  120  121 1    
   238  120  124 1    
   239  120  241 1    
   240  121  122 am   BACKBONE|DICT|INTERRES
   241  121  123 2    
   242  122  242 1    
   243  122  243 1    
   244  124  125 1    
   245  124  244 1    
   246  124  245 1    
   247  125  126 1    
   248  126  246 1    
   249  126  247 1    
@<TRIPOS>SUBSTRUCTURE
     1 UNK         1 GROUP             0       ****    0 ROOT    
