@<TRIPOS>MOLECULE
3R540
247   249    1
SMALL
USER_CHARGES


@<TRIPOS>ATOM
      1 CA          4.9093  -13.8440  -44.9123 C.3       0 UNK        -0.1800 
      2 C           3.6134  -13.8501  -45.7091 C.2       0 UNK         0.5000 
      3 O           2.6691  -14.5481  -45.3339 O.2       0 UNK        -0.5000 
      4 N           3.5723  -13.0794  -46.8015 N.am      1 UNK        -0.5000 
      5 CA          2.3865  -12.8831  -47.6488 C.3       1 UNK         0.1400 
      6 C6          2.7284  -12.8993  -49.1592 C.3       23 UNK        -0.0398 
      7 S7          3.5969  -14.4216  -49.6663 S.3       23 UNK        -0.2404 
      8 C8          2.2115  -15.4887  -50.1673 C.3       23 UNK        -0.0205 
      9 C9          2.7337  -16.8313  -50.6495 C.ar      23 UNK        -0.0193 
     10 C10         3.0530  -17.0183  -51.9978 C.ar      23 UNK        -0.1150 
     11 C11         3.6023  -18.2272  -52.4339 C.ar      23 UNK        -0.0193 
     12 C12         3.8211  -19.2539  -51.5124 C.ar      23 UNK        -0.1150 
     13 C13         3.4835  -19.0884  -50.1668 C.ar      23 UNK        -0.0193 
     14 C14         2.9386  -17.8739  -49.7409 C.ar      23 UNK        -0.1150 
     15 C15         3.7502  -20.2080  -49.1717 C.3       23 UNK        -0.0205 
     16 S16         2.8285  -21.7252  -49.5667 S.3       23 UNK        -0.2404 
     17 C17         1.0940  -21.2253  -49.3019 C.3       23 UNK        -0.0398 
     18 CA          0.3807  -22.2163  -48.3530 C.3       11 UNK         0.1400 
     19 N           0.6416  -21.9391  -46.9389 N.am      11 UNK        -0.5000 
     20 C           0.4362  -22.8335  -45.9628 C.2       10 UNK         0.5000 
     21 O           0.0360  -23.9808  -46.1630 O.2       10 UNK        -0.5000 
     22 CA          0.6639  -22.3484  -44.5222 C.3       10 UNK         0.1400 
     23 CB          2.1617  -22.2894  -44.1846 C.3       10 UNK        -0.1800 
     24 N           0.0496  -21.0423  -44.2873 N.am      10 UNK        -0.5000 
     25 C          -1.2727  -20.8288  -44.2388 C.2       9 UNK         0.5000 
     26 O          -2.1134  -21.7179  -44.3715 O.2       9 UNK        -0.5000 
     27 CA         -1.7346  -19.3731  -44.0455 C.3       9 UNK         0.1400 
     28 CB         -1.7836  -19.0162  -42.5529 C.3       9 UNK        -0.1800 
     29 N          -0.8911  -18.4110  -44.7581 N.am      9 UNK        -0.5000 
     30 C          -0.8209  -18.3360  -46.0948 C.2       8 UNK         0.5000 
     31 O          -1.4575  -19.0656  -46.8495 O.2       8 UNK        -0.5000 
     32 CA          0.1540  -17.3186  -46.7072 C.3       8 UNK         0.1400 
     33 CB         -0.5018  -15.9350  -46.7917 C.3       8 UNK        -0.1800 
     34 N           1.4429  -17.2343  -46.0170 N.am      8 UNK        -0.5000 
     35 C           2.2738  -18.2746  -45.8411 C.2       7 UNK         0.5000 
     36 O           2.0066  -19.4254  -46.1885 O.2       7 UNK        -0.5000 
     37 CA          3.6210  -17.9898  -45.1642 C.3       7 UNK         0.1400 
     38 CB          4.6288  -17.4434  -46.1883 C.3       7 UNK        -0.1800 
     39 N           3.4496  -17.0326  -44.0728 N.am      7 UNK        -0.5000 
     40 C           3.4292  -17.3610  -42.7752 C.2       6 UNK         0.5000 
     41 O           3.6745  -18.4898  -42.3479 O.2       6 UNK        -0.5000 
     42 CA          3.0457  -16.2487  -41.7786 C.3       6 UNK         0.1400 
     43 CB          4.2972  -15.5073  -41.2850 C.3       6 UNK        -0.1800 
     44 N           2.0795  -15.2723  -42.2906 N.am      6 UNK        -0.5000 
     45 C           0.8435  -15.5577  -42.7248 C.2       5 UNK         0.5000 
     46 O           0.4180  -16.7063  -42.8500 O.2       5 UNK        -0.5000 
     47 CA         -0.0638  -14.3668  -43.0986 C.3       5 UNK         0.1400 
     48 CB         -1.5638  -14.7093  -42.9846 C.3       5 UNK        -0.1800 
     49 N           0.2263  -13.1207  -42.3825 N.am      5 UNK        -0.5000 
     50 C           0.2146  -12.9004  -41.0579 C.2       4 UNK         0.5000 
     51 O           0.0200  -13.7752  -40.2137 O.2       4 UNK        -0.5000 
     52 CA          0.4620  -11.4484  -40.5946 C.3       4 UNK         0.1400 
     53 CB          1.9483  -11.2435  -40.2621 C.3       4 UNK        -0.1800 
     54 N           0.0555  -10.4467  -41.5842 N.am      4 UNK        -0.5000 
     55 C          -1.2096  -10.2070  -41.9596 C.2       3 UNK         0.5000 
     56 O          -2.1884  -10.7186  -41.4146 O.2       3 UNK        -0.5000 
     57 CA         -1.4259   -9.2582  -43.1601 C.3       3 UNK         0.1400 
     58 CB         -1.8513   -7.8655  -42.6695 C.3       3 UNK        -0.1800 
     59 N          -0.2769   -9.1098  -44.0652 N.am      3 UNK        -0.5000 
     60 C           0.3436  -10.1018  -44.7194 C.2       2 UNK         0.5000 
     61 O           0.0481  -11.2904  -44.5792 O.2       2 UNK        -0.5000 
     62 CA          1.5128   -9.6937  -45.6412 C.3       2 UNK         0.1400 
     63 CB          2.5994   -8.9340  -44.8586 C.3       2 UNK        -0.1800 
     64 N           2.1405  -10.8552  -46.2706 N.am      2 UNK        -0.5000 
     65 C           1.6219  -11.5960  -47.2609 C.2       1 UNK         0.5000 
     66 O           0.5859  -11.3004  -47.8586 O.2       1 UNK        -0.5000 
     67 C          -1.1270  -22.3475  -48.6539 C.2       11 UNK         0.5000 
     68 O          -1.4885  -23.1728  -49.4899 O.2       11 UNK        -0.5000 
     69 N          -1.9920  -21.6052  -47.9469 N.am      12 UNK        -0.5000 
     70 CA         -3.4460  -21.7614  -48.0275 C.3       12 UNK         0.1400 
     71 CB         -4.1549  -20.5954  -47.3255 C.3       12 UNK        -0.1800 
     72 C          -3.9328  -23.1115  -47.4728 C.2       12 UNK         0.5000 
     73 O          -4.8118  -23.7279  -48.0752 O.2       12 UNK        -0.5000 
     74 N          -3.3287  -23.5727  -46.3685 N.am      13 UNK        -0.5000 
     75 CA         -3.5770  -24.8952  -45.7909 C.3       13 UNK         0.1400 
     76 CB         -2.9040  -24.9978  -44.4140 C.3       13 UNK        -0.1800 
     77 C          -3.1226  -26.0408  -46.7157 C.2       13 UNK         0.5000 
     78 O          -3.8035  -27.0639  -46.7860 O.2       13 UNK        -0.5000 
     79 N          -2.0053  -25.8380  -47.4291 N.am      14 UNK        -0.5000 
     80 CA         -1.5057  -26.7506  -48.4587 C.3       14 UNK         0.1400 
     81 CB         -0.0561  -26.3852  -48.8128 C.3       14 UNK        -0.1800 
     82 C          -2.3951  -26.7644  -49.7182 C.2       14 UNK         0.5000 
     83 O          -2.6334  -27.8364  -50.2757 O.2       14 UNK        -0.5000 
     84 N          -2.8763  -25.5830  -50.1341 N.am      15 UNK        -0.5000 
     85 CA         -3.8017  -25.3889  -51.2533 C.3       15 UNK         0.1400 
     86 CB         -3.9600  -23.8855  -51.5307 C.3       15 UNK        -0.1800 
     87 C          -5.1711  -26.0497  -51.0120 C.2       15 UNK         0.5000 
     88 O          -5.6979  -26.6930  -51.9211 O.2       15 UNK        -0.5000 
     89 N          -5.6904  -25.9084  -49.7832 N.am      16 UNK        -0.5000 
     90 CA         -6.8970  -26.5326  -49.2362 C.3       16 UNK         0.1400 
     91 CB         -6.6720  -28.0467  -49.0324 C.3       16 UNK        -0.1800 
     92 C          -8.1641  -26.2117  -50.0543 C.2       16 UNK         0.5000 
     93 O          -8.8185  -25.2037  -49.7863 O.2       16 UNK        -0.5000 
     94 N          -8.4908  -27.0764  -51.0240 N.am      17 UNK        -0.5000 
     95 CA         -9.6099  -26.9183  -51.9519 C.3       17 UNK         0.1400 
     96 CB         -9.9077  -28.2756  -52.6075 C.3       17 UNK        -0.1800 
     97 C          -9.3582  -25.8430  -53.0271 C.2       17 UNK         0.5000 
     98 O         -10.3228  -25.2718  -53.5389 O.2       17 UNK        -0.5000 
     99 N          -8.0841  -25.5829  -53.3555 N.am      18 UNK        -0.5000 
    100 CA        -7.6724  -24.4981  -54.2474 C.3       18 UNK         0.1400 
    101 CB        -6.2629  -24.7888  -54.7858 C.3       18 UNK        -0.1800 
    102 C         -7.7467  -23.1308  -53.5386 C.2       18 UNK         0.5000 
    103 O         -7.7472  -23.0691  -52.3063 O.2       18 UNK        -0.5000 
    104 N         -7.8224  -22.0572  -54.3352 N.am      19 UNK        -0.5000 
    105 CA        -8.0722  -20.6746  -53.9131 C.3       19 UNK         0.1400 
    106 CB        -8.5391  -19.8713  -55.1415 C.3       19 UNK        -0.1800 
    107 C         -6.8877  -20.0024  -53.1797 C.2       19 UNK         0.5000 
    108 O         -6.3839  -18.9730  -53.6337 O.2       19 UNK        -0.5000 
    109 N         -6.4939  -20.5882  -52.0421 N.am      20 UNK        -0.5000 
    110 CA        -5.4526  -20.1490  -51.1087 C.3       20 UNK         0.1400 
    111 CB        -5.8556  -18.8138  -50.4432 C.3       20 UNK        -0.1800 
    112 C         -4.0387  -20.1168  -51.7337 C.2       20 UNK         0.5000 
    113 O         -3.7981  -20.7686  -52.7514 O.2       20 UNK        -0.5000 
    114 N         -3.1146  -19.3912  -51.0891 N.am      21 UNK        -0.5000 
    115 CA        -1.7513  -19.1587  -51.5675 C.3       21 UNK         0.1400 
    116 CB        -0.9374  -18.5383  -50.4207 C.3       21 UNK        -0.1800 
    117 C         -1.7451  -18.2159  -52.7946 C.2       21 UNK         0.5000 
    118 O         -2.5988  -17.3307  -52.8642 O.2       21 UNK        -0.5000 
    119 N         -0.7981  -18.3228  -53.7371 N.am      22 UNK        -0.5000 
    120 CA         0.2729  -19.3282  -53.8628 C.3       22 UNK         0.1400 
    121 C         -0.2278  -20.7470  -54.2755 C.2       22 UNK         0.5000 
    122 N         -1.4051  -20.8812  -54.8712 N.am      22 UNK        -0.7600 
    123 O          0.4420  -21.7420  -54.0192 O.2       22 UNK        -0.5000 
    124 C124        1.3576  -18.8046  -54.8430 C.3       23 UNK        -0.0398 
    125 S125        2.9651  -19.6622  -54.7243 S.3       23 UNK        -0.2404 
    126 C126        3.9986  -18.4180  -53.8898 C.3       23 UNK        -0.0205 
    127 H127        5.2617  -14.8614  -44.7474 H         1 UNK         0.0600 
    128 H128        4.7458  -13.3755  -43.9423 H         1 UNK         0.0600 
    129 H129        5.6977  -13.2942  -45.4266 H         1 UNK         0.0600 
    130 H130        4.3971  -12.5668  -47.0810 H         1 UNK         0.3000 
    131 H131        1.6892  -13.7009  -47.4751 H         1 UNK         0.0600 
    132 H132        3.3658  -12.0506  -49.4128 H         1 UNK         0.0800 
    133 H133        1.8261  -12.7911  -49.7638 H         1 UNK         0.0800 
    134 H134        1.6360  -15.0026  -50.9566 H         1 UNK         0.0800 
    135 H135        1.5333  -15.6303  -49.3251 H         1 UNK         0.0800 
    136 H136        2.9010  -16.2109  -52.7004 H         1 UNK         0.1150 
    137 H137        4.2546  -20.1870  -51.8446 H         1 UNK         0.1150 
    138 H138        2.6995  -17.7265  -48.6984 H         1 UNK         0.1150 
    139 H139        4.8168  -20.4356  -49.1797 H         1 UNK         0.0800 
    140 H140        3.5152  -19.9002  -48.1553 H         1 UNK         0.0800 
    141 H141        0.6224  -21.2023  -50.2862 H         1 UNK         0.0800 
    142 H142        1.0453  -20.2089  -48.9093 H         1 UNK         0.0800 
    143 H143        0.7874  -23.2092  -48.5582 H         1 UNK         0.0600 
    144 H144        1.0007  -21.0189  -46.6996 H         1 UNK         0.3000 
    145 H145        0.1951  -23.0699  -43.8494 H         1 UNK         0.0600 
    146 H146        2.3209  -21.9848  -43.1501 H         1 UNK         0.0600 
    147 H147        2.6260  -23.2682  -44.3106 H         1 UNK         0.0600 
    148 H148        2.6983  -21.5895  -44.8251 H         1 UNK         0.0600 
    149 H149        0.6704  -20.2475  -44.2358 H         1 UNK         0.3000 
    150 H150       -2.7478  -19.2906  -44.4438 H         1 UNK         0.0600 
    151 H151       -2.4418  -19.6958  -42.0101 H         1 UNK         0.0600 
    152 H152       -2.1624  -18.0053  -42.4014 H         1 UNK         0.0600 
    153 H153       -0.7967  -19.0761  -42.0922 H         1 UNK         0.0600 
    154 H154       -0.3278  -17.7868  -44.1846 H         1 UNK         0.3000 
    155 H155        0.3599  -17.6498  -47.7270 H         1 UNK         0.0600 
    156 H156       -0.6800  -15.5125  -45.8051 H         1 UNK         0.0600 
    157 H157       -1.4646  -15.9907  -47.3015 H         1 UNK         0.0600 
    158 H158        0.1148  -15.2389  -47.3542 H         1 UNK         0.0600 
    159 H159        1.7412  -16.3127  -45.7183 H         1 UNK         0.3000 
    160 H160        4.0108  -18.9373  -44.7863 H         1 UNK         0.0600 
    161 H161        4.2621  -16.5466  -46.6880 H         1 UNK         0.0600 
    162 H162        4.8346  -18.1826  -46.9628 H         1 UNK         0.0600 
    163 H163        5.5799  -17.2007  -45.7145 H         1 UNK         0.0600 
    164 H164        3.1961  -16.0847  -44.3341 H         1 UNK         0.3000 
    165 H165        2.5812  -16.7354  -40.9186 H         1 UNK         0.0600 
    166 H166        4.0469  -14.7788  -40.5135 H         1 UNK         0.0600 
    167 H167        5.0170  -16.2031  -40.8518 H         1 UNK         0.0600 
    168 H168        4.7998  -14.9803  -42.0958 H         1 UNK         0.0600 
    169 H169        2.3480  -14.3012  -42.2449 H         1 UNK         0.3000 
    170 H170        0.1487  -14.1510  -44.1457 H         1 UNK         0.0600 
    171 H171       -1.8292  -15.5551  -43.6198 H         1 UNK         0.0600 
    172 H172       -1.8394  -14.9702  -41.9624 H         1 UNK         0.0600 
    173 H173       -2.1827  -13.8671  -43.2944 H         1 UNK         0.0600 
    174 H174        0.3519  -12.3196  -42.9953 H         1 UNK         0.3000 
    175 H175       -0.1206  -11.2863  -39.6854 H         1 UNK         0.0600 
    176 H176        2.1290  -10.2461  -39.8609 H         1 UNK         0.0600 
    177 H177        2.2830  -11.9599  -39.5106 H         1 UNK         0.0600 
    178 H178        2.5800  -11.3718  -41.1420 H         1 UNK         0.0600 
    179 H179        0.7947   -9.9674  -42.0758 H         1 UNK         0.3000 
    180 H180       -2.2456   -9.6762  -43.7479 H         1 UNK         0.0600 
    181 H181       -1.0552   -7.3788  -42.1046 H         1 UNK         0.0600 
    182 H182       -2.7244   -7.9284  -42.0184 H         1 UNK         0.0600 
    183 H183       -2.1181   -7.2164  -43.5037 H         1 UNK         0.0600 
    184 H184        0.0356   -8.1624  -44.2221 H         1 UNK         0.3000 
    185 H185        1.1165   -9.0423  -46.4226 H         1 UNK         0.0600 
    186 H186        2.2177   -8.0008  -44.4434 H         1 UNK         0.0600 
    187 H187        2.9893   -9.5278  -44.0307 H         1 UNK         0.0600 
    188 H188        3.4379   -8.6722  -45.5045 H         1 UNK         0.0600 
    189 H189        2.9759  -11.2021  -45.8251 H         1 UNK         0.3000 
    190 H190       -1.6473  -20.8767  -47.3273 H         1 UNK         0.3000 
    191 H191       -3.7135  -21.7284  -49.0828 H         1 UNK         0.0600 
    192 H192       -3.8997  -20.5494  -46.2668 H         1 UNK         0.0600 
    193 H193       -5.2386  -20.6951  -47.3990 H         1 UNK         0.0600 
    194 H194       -3.8867  -19.6409  -47.7772 H         1 UNK         0.0600 
    195 H195       -2.6565  -22.9838  -45.8881 H         1 UNK         0.3000 
    196 H196       -4.6545  -24.9979  -45.6461 H         1 UNK         0.0600 
    197 H197       -3.0987  -25.9683  -43.9561 H         1 UNK         0.0600 
    198 H198       -3.2828  -24.2353  -43.7333 H         1 UNK         0.0600 
    199 H199       -1.8229  -24.8778  -44.4810 H         1 UNK         0.0600 
    200 H200       -1.4653  -24.9980  -47.2555 H         1 UNK         0.3000 
    201 H201       -1.5040  -27.7596  -48.0408 H         1 UNK         0.0600 
    202 H202        0.5800  -26.3873  -47.9274 H         1 UNK         0.0600 
    203 H203        0.0126  -25.3998  -49.2724 H         1 UNK         0.0600 
    204 H204        0.3635  -27.1035  -49.5181 H         1 UNK         0.0600 
    205 H205       -2.5515  -24.7391  -49.6708 H         1 UNK         0.3000 
    206 H206       -3.3589  -25.8532  -52.1366 H         1 UNK         0.0600 
    207 H207       -3.0030  -23.4262  -51.7790 H         1 UNK         0.0600 
    208 H208       -4.6316  -23.6967  -52.3664 H         1 UNK         0.0600 
    209 H209       -4.3707  -23.3585  -50.6715 H         1 UNK         0.0600 
    210 H210       -5.2122  -25.2773  -49.1453 H         1 UNK         0.3000 
    211 H211       -7.0456  -26.0906  -48.2498 H         1 UNK         0.0600 
    212 H212       -6.4087  -28.5582  -49.9585 H         1 UNK         0.0600 
    213 H213       -7.5657  -28.5256  -48.6305 H         1 UNK         0.0600 
    214 H214       -5.8645  -28.2246  -48.3221 H         1 UNK         0.0600 
    215 H215       -7.8644  -27.8494  -51.1983 H         1 UNK         0.3000 
    216 H216      -10.4901  -26.6149  -51.3813 H         1 UNK         0.0600 
    217 H217      -10.7571  -28.2027  -53.2881 H         1 UNK         0.0600 
    218 H218      -10.1555  -29.0292  -51.8598 H         1 UNK         0.0600 
    219 H219       -9.0558  -28.6397  -53.1833 H         1 UNK         0.0600 
    220 H220       -7.3435  -26.0609  -52.8517 H         1 UNK         0.3000 
    221 H221       -8.3565  -24.4698  -55.0984 H         1 UNK         0.0600 
    222 H222       -5.5415  -24.9340  -53.9849 H         1 UNK         0.0600 
    223 H223       -6.2593  -25.6920  -55.3960 H         1 UNK         0.0600 
    224 H224       -5.9000  -23.9737  -55.4130 H         1 UNK         0.0600 
    225 H225       -7.7694  -22.2002  -55.3333 H         1 UNK         0.3000 
    226 H226       -8.9033  -20.6900  -53.2048 H         1 UNK         0.0600 
    227 H227       -9.4312  -20.3124  -55.5865 H         1 UNK         0.0600 
    228 H228       -8.7911  -18.8459  -54.8677 H         1 UNK         0.0600 
    229 H229       -7.7667  -19.8267  -55.9103 H         1 UNK         0.0600 
    230 H230       -6.9338  -21.4803  -51.8260 H         1 UNK         0.3000 
    231 H231       -5.4306  -20.9114  -50.3310 H         1 UNK         0.0600 
    232 H232       -5.2213  -18.5820  -49.5878 H         1 UNK         0.0600 
    233 H233       -6.8801  -18.8538  -50.0727 H         1 UNK         0.0600 
    234 H234       -5.7869  -17.9782  -51.1409 H         1 UNK         0.0600 
    235 H235       -3.3976  -18.8534  -50.2843 H         1 UNK         0.3000 
    236 H236       -1.3237  -20.1293  -51.8169 H         1 UNK         0.0600 
    237 H237       -1.2958  -17.5406  -50.1636 H         1 UNK         0.0600 
    238 H238       -0.9966  -19.1500  -49.5217 H         1 UNK         0.0600 
    239 H239        0.1152  -18.4483  -50.6900 H         1 UNK         0.0600 
    240 H240       -0.8412  -17.6654  -54.5010 H         1 UNK         0.3000 
    241 H241        0.7399  -19.4289  -52.8815 H         1 UNK         0.0600 
    242 H242       -1.7364  -21.8032  -55.1059 H         1 UNK         0.3800 
    243 H243       -1.9963  -20.0836  -55.0428 H         1 UNK         0.3800 
    244 H244        1.5317  -17.7419  -54.6680 H         1 UNK         0.0800 
    245 H245        1.0067  -18.8738  -55.8742 H         1 UNK         0.0800 
    246 H246        5.0391  -18.7428  -53.9317 H         1 UNK         0.0800 
    247 H247        3.9530  -17.4758  -54.4382 H         1 UNK         0.0800 
@<TRIPOS>BOND
     1    1    2 1    
     2    1  127 1    
     3    1  128 1    
     4    1  129 1    
     5    2    3 2    
     6    2    4 am   BACKBONE|DICT|INTERRES
     7    4    5 1    
     8    4  130 1    
     9    5    6 1    
    10    5   65 1    
    11    5  131 1    
    12    6    7 1    
    13    6  132 1    
    14    6  133 1    
    15    7    8 1    
    16    8    9 1    
    17    8  134 1    
    18    8  135 1    
    19    9   10 ar   
    20    9   14 ar   
    21   10   11 ar   
    22   10  136 1    
    23   11   12 ar   
    24   11  126 1    
    25   12   13 ar   
    26   12  137 1    
    27   13   14 ar   
    28   13   15 1    
    29   14  138 1    
    30   15   16 1    
    31   15  139 1    
    32   15  140 1    
    33   16   17 1    
    34   17   18 1    
    35   17  141 1    
    36   17  142 1    
    37   18   19 1    
    38   18   67 1    
    39   18  143 1    
    40   19   20 am   BACKBONE|DICT|INTERRES
    41   19  144 1    
    42   20   21 2    
    43   20   22 1    
    44   22   23 1    
    45   22   24 1    
    46   22  145 1    
    47   23  146 1    
    48   23  147 1    
    49   23  148 1    
    50   24   25 am   BACKBONE|DICT|INTERRES
    51   24  149 1    
    52   25   26 2    
    53   25   27 1    
    54   27   28 1    
    55   27   29 1    
    56   27  150 1    
    57   28  151 1    
    58   28  152 1    
    59   28  153 1    
    60   29   30 am   BACKBONE|DICT|INTERRES
    61   29  154 1    
    62   30   31 2    
    63   30   32 1    
    64   32   33 1    
    65   32   34 1    
    66   32  155 1    
    67   33  156 1    
    68   33  157 1    
    69   33  158 1    
    70   34   35 am   BACKBONE|DICT|INTERRES
    71   34  159 1    
    72   35   36 2    
    73   35   37 1    
    74   37   38 1    
    75   37   39 1    
    76   37  160 1    
    77   38  161 1    
    78   38  162 1    
    79   38  163 1    
    80   39   40 am   BACKBONE|DICT|INTERRES
    81   39  164 1    
    82   40   41 2    
    83   40   42 1    
    84   42   43 1    
    85   42   44 1    
    86   42  165 1    
    87   43  166 1    
    88   43  167 1    
    89   43  168 1    
    90   44   45 am   BACKBONE|DICT|INTERRES
    91   44  169 1    
    92   45   46 2    
    93   45   47 1    
    94   47   48 1    
    95   47   49 1    
    96   47  170 1    
    97   48  171 1    
    98   48  172 1    
    99   48  173 1    
   100   49   50 am   BACKBONE|DICT|INTERRES
   101   49  174 1    
   102   50   51 2    
   103   50   52 1    
   104   52   53 1    
   105   52   54 1    
   106   52  175 1    
   107   53  176 1    
   108   53  177 1    
   109   53  178 1    
   110   54   55 am   BACKBONE|DICT|INTERRES
   111   54  179 1    
   112   55   56 2    
   113   55   57 1    
   114   57   58 1    
   115   57   59 1    
   116   57  180 1    
   117   58  181 1    
   118   58  182 1    
   119   58  183 1    
   120   59   60 am   BACKBONE|DICT|INTERRES
   121   59  184 1    
   122   60   61 2    
   123   60   62 1    
   124   62   63 1    
   125   62   64 1    
   126   62  185 1    
   127   63  186 1    
   128   63  187 1    
   129   63  188 1    
   130   64   65 am   BACKBONE|DICT|INTERRES
   131   64  189 1    
   132   65   66 2    
   133   67   68 2    
   134   67   69 am   BACKBONE|DICT|INTERRES
   135   69   70 1    
   136   69  190 1    
   137   70   71 1    
   138   70   72 1    
   139   70  191 1    
   140   71  192 1    
   141   71  193 1    
   142   71  194 1    
   143   72   73 2    
   144   72   74 am   BACKBONE|DICT|INTERRES
   145   74   75 1    
   146   74  195 1    
   147   75   76 1    
   148   75   77 1    
   149   75  196 1    
   150   76  197 1    
   151   76  198 1    
   152   76  199 1    
   153   77   78 2    
   154   77   79 am   BACKBONE|DICT|INTERRES
   155   79   80 1    
   156   79  200 1    
   157   80   81 1    
   158   80   82 1    
   159   80  201 1    
   160   81  202 1    
   161   81  203 1    
   162   81  204 1    
   163   82   83 2    
   164   82   84 am   BACKBONE|DICT|INTERRES
   165   84   85 1    
   166   84  205 1    
   167   85   86 1    
   168   85   87 1    
   169   85  206 1    
   170   86  207 1    
   171   86  208 1    
   172   86  209 1    
   173   87   88 2    
   174   87   89 am   BACKBONE|DICT|INTERRES
   175   89   90 1    
   176   89  210 1    
   177   90   91 1    
   178   90   92 1    
   179   90  211 1    
   180   91  212 1    
   181   91  213 1    
   182   91  214 1    
   183   92   93 2    
   184   92   94 am   BACKBONE|DICT|INTERRES
   185   94   95 1    
   186   94  215 1    
   187   95   96 1    
   188   95   97 1    
   189   95  216 1    
   190   96  217 1    
   191   96  218 1    
   192   96  219 1    
   193   97   98 2    
   194   97   99 am   BACKBONE|DICT|INTERRES
   195   99  100 1    
   196   99  220 1    
   197  100  101 1    
   198  100  102 1    
   199  100  221 1    
   200  101  222 1    
   201  101  223 1    
   202  101  224 1    
   203  102  103 2    
   204  102  104 am   BACKBONE|DICT|INTERRES
   205  104  105 1    
   206  104  225 1    
   207  105  106 1    
   208  105  107 1    
   209  105  226 1    
   210  106  227 1    
   211  106  228 1    
   212  106  229 1    
   213  107  108 2    
   214  107  109 am   BACKBONE|DICT|INTERRES
   215  109  110 1    
   216  109  230 1    
   217  110  111 1    
   218  110  112 1    
   219  110  231 1    
   220  111  232 1    
   221  111  233 1    
   222  111  234 1    
   223  112  113 2    
   224  112  114 am   BACKBONE|DICT|INTERRES
   225  114  115 1    
   226  114  235 1    
   227  115  116 1    
   228  115  117 1    
   229  115  236 1    
   230  116  237 1    
   231  116  238 1    
   232  116  239 1    
   233  117  118 2    
   234  117  119 am   BACKBONE|DICT|INTERRES
   235  119  120 1    
   236  119  240 1    
   237  120  121 1    
   238  120  124 1    
   239  120  241 1    
   240  121  122 am   BACKBONE|DICT|INTERRES
   241  121  123 2    
   242  122  242 1    
   243  122  243 1    
   244  124  125 1    
   245  124  244 1    
   246  124  245 1    
   247  125  126 1    
   248  126  246 1    
   249  126  247 1    
@<TRIPOS>SUBSTRUCTURE
     1 UNK         1 GROUP             0       ****    0 ROOT    
