@<TRIPOS>MOLECULE
3R540
247   249    1
SMALL
USER_CHARGES


@<TRIPOS>ATOM
      1 CA         -1.4593  -11.3107  -50.5388 C.3       0 UNK        -0.1800 
      2 C          -0.8813  -12.1099  -49.3806 C.2       0 UNK         0.5000 
      3 O           0.2864  -11.9309  -49.0361 O.2       0 UNK        -0.5000 
      4 N          -1.6952  -12.9853  -48.7746 N.am      1 UNK        -0.5000 
      5 CA         -1.3096  -13.8967  -47.6869 C.3       1 UNK         0.1400 
      6 C6         -2.4366  -14.9031  -47.3311 C.3       23 UNK        -0.0398 
      7 S7         -3.1471  -15.7840  -48.7696 S.3       23 UNK        -0.2404 
      8 C8         -2.2145  -17.3583  -48.8005 C.3       23 UNK        -0.0205 
      9 C9         -0.8449  -17.3259  -49.4853 C.ar      23 UNK        -0.0193 
     10 C10        -0.3728  -16.2092  -50.1859 C.ar      23 UNK        -0.1150 
     11 C11         0.8808  -16.2242  -50.7963 C.ar      23 UNK        -0.0193 
     12 C12         1.6695  -17.3728  -50.7161 C.ar      23 UNK        -0.1150 
     13 C13         1.2075  -18.5175  -50.0610 C.ar      23 UNK        -0.0193 
     14 C14        -0.0499  -18.4777  -49.4394 C.ar      23 UNK        -0.1150 
     15 C15         2.1141  -19.7522  -50.0594 C.3       23 UNK        -0.0205 
     16 S16         1.2888  -21.3611  -49.8016 S.3       23 UNK        -0.2404 
     17 C17         1.3221  -21.4549  -47.9800 C.3       23 UNK        -0.0398 
     18 CA          0.5316  -22.6224  -47.3438 C.3       11 UNK         0.1400 
     19 N           0.5998  -22.5456  -45.8831 N.am      11 UNK        -0.5000 
     20 C           0.1287  -23.4630  -45.0283 C.2       10 UNK         0.5000 
     21 O          -0.3561  -24.5402  -45.3728 O.2       10 UNK        -0.5000 
     22 CA          0.1505  -23.0779  -43.5389 C.3       10 UNK         0.1400 
     23 CB          1.5324  -23.3348  -42.9196 C.3       10 UNK        -0.1800 
     24 N          -0.2316  -21.6789  -43.3353 N.am      10 UNK        -0.5000 
     25 C          -1.4693  -21.2025  -43.5339 C.2       9 UNK         0.5000 
     26 O          -2.4246  -21.9044  -43.8657 O.2       9 UNK        -0.5000 
     27 CA         -1.6620  -19.6825  -43.3775 C.3       9 UNK         0.1400 
     28 CB         -1.8330  -19.3103  -41.8976 C.3       9 UNK        -0.1800 
     29 N          -0.5627  -18.9082  -43.9590 N.am      9 UNK        -0.5000 
     30 C          -0.2689  -18.8904  -45.2673 C.2       8 UNK         0.5000 
     31 O          -0.9326  -19.4781  -46.1172 O.2       8 UNK        -0.5000 
     32 CA          0.9984  -18.1400  -45.7091 C.3       8 UNK         0.1400 
     33 CB          0.6832  -16.6799  -46.0277 C.3       8 UNK        -0.1800 
     34 N           2.0793  -18.2046  -44.7332 N.am      8 UNK        -0.5000 
     35 C           2.7113  -19.3245  -44.3609 C.2       7 UNK         0.5000 
     36 O           2.4084  -20.4470  -44.7688 O.2       7 UNK        -0.5000 
     37 CA          3.8594  -19.1548  -43.3549 C.3       7 UNK         0.1400 
     38 CB          5.1498  -18.7421  -44.0793 C.3       7 UNK        -0.1800 
     39 N           3.5284  -18.1447  -42.3500 N.am      7 UNK        -0.5000 
     40 C           2.9319  -18.4091  -41.1810 C.2       6 UNK         0.5000 
     41 O           2.6497  -19.5450  -40.7980 O.2       6 UNK        -0.5000 
     42 CA          2.5765  -17.2008  -40.2911 C.3       6 UNK         0.1400 
     43 CB          3.7569  -16.8407  -39.3763 C.3       6 UNK        -0.1800 
     44 N           2.1696  -16.0093  -41.0410 N.am      6 UNK        -0.5000 
     45 C           1.0755  -15.9339  -41.8108 C.2       5 UNK         0.5000 
     46 O           0.3056  -16.8754  -41.9982 O.2       5 UNK        -0.5000 
     47 CA          0.8093  -14.5928  -42.5204 C.3       5 UNK         0.1400 
     48 CB          0.1123  -13.6114  -41.5663 C.3       5 UNK        -0.1800 
     49 N           1.9735  -13.9289  -43.1212 N.am      5 UNK        -0.5000 
     50 C           2.9363  -14.4906  -43.8680 C.2       4 UNK         0.5000 
     51 O           3.0978  -15.7054  -43.9893 O.2       4 UNK        -0.5000 
     52 CA          3.8506  -13.5199  -44.6306 C.3       4 UNK         0.1400 
     53 CB          4.7137  -14.2209  -45.6987 C.3       4 UNK        -0.1800 
     54 N           3.0461  -12.4697  -45.2548 N.am      4 UNK        -0.5000 
     55 C           3.4657  -11.2177  -45.4797 C.2       3 UNK         0.5000 
     56 O           4.5846  -10.8102  -45.1640 O.2       3 UNK        -0.5000 
     57 CA          2.4881  -10.2480  -46.1759 C.3       3 UNK         0.1400 
     58 CB          2.8529  -10.0981  -47.6607 C.3       3 UNK        -0.1800 
     59 N           1.0818  -10.6414  -46.0717 N.am      3 UNK        -0.5000 
     60 C           0.3627  -10.6205  -44.9399 C.2       2 UNK         0.5000 
     61 O           0.8147  -10.2505  -43.8559 O.2       2 UNK        -0.5000 
     62 CA         -1.1004  -11.1064  -45.0155 C.3       2 UNK         0.1400 
     63 CB         -2.0619   -9.9083  -45.0269 C.3       2 UNK        -0.1800 
     64 N          -1.4051  -11.9650  -46.1637 N.am      2 UNK        -0.5000 
     65 C          -0.8359  -13.1516  -46.4197 C.2       1 UNK         0.5000 
     66 O           0.0548  -13.6350  -45.7236 O.2       1 UNK        -0.5000 
     67 C          -0.9315  -22.7107  -47.8338 C.2       11 UNK         0.5000 
     68 O          -1.2536  -23.6089  -48.6102 O.2       11 UNK        -0.5000 
     69 N          -1.8015  -21.8220  -47.3315 N.am      12 UNK        -0.5000 
     70 CA         -3.2342  -21.8026  -47.6240 C.3       12 UNK         0.1400 
     71 CB         -3.8879  -20.5701  -46.9843 C.3       12 UNK        -0.1800 
     72 C          -3.9594  -23.0839  -47.1830 C.2       12 UNK         0.5000 
     73 O          -4.8091  -23.5742  -47.9269 O.2       12 UNK        -0.5000 
     74 N          -3.5983  -23.6164  -46.0075 N.am      13 UNK        -0.5000 
     75 CA         -4.1011  -24.8886  -45.4904 C.3       13 UNK         0.1400 
     76 CB         -3.6520  -25.0765  -44.0337 C.3       13 UNK        -0.1800 
     77 C          -3.6745  -26.0825  -46.3634 C.2       13 UNK         0.5000 
     78 O          -4.5225  -26.9004  -46.7208 O.2       13 UNK        -0.5000 
     79 N          -2.3869  -26.1338  -46.7352 N.am      14 UNK        -0.5000 
     80 CA         -1.8111  -27.1492  -47.6227 C.3       14 UNK         0.1400 
     81 CB         -0.2840  -26.9875  -47.6613 C.3       14 UNK        -0.1800 
     82 C          -2.3991  -27.1156  -49.0473 C.2       14 UNK         0.5000 
     83 O          -2.5970  -28.1707  -49.6504 O.2       14 UNK        -0.5000 
     84 N          -2.7035  -25.9083  -49.5401 N.am      15 UNK        -0.5000 
     85 CA         -3.3713  -25.6526  -50.8176 C.3       15 UNK         0.1400 
     86 CB         -3.1249  -24.1881  -51.2120 C.3       15 UNK        -0.1800 
     87 C          -4.8832  -25.9707  -50.8117 C.2       15 UNK         0.5000 
     88 O          -5.4967  -25.9369  -51.8781 O.2       15 UNK        -0.5000 
     89 N          -5.4468  -26.2825  -49.6339 N.am      16 UNK        -0.5000 
     90 CA         -6.8560  -26.5708  -49.3577 C.3       16 UNK         0.1400 
     91 CB         -7.3596  -27.7914  -50.1579 C.3       16 UNK        -0.1800 
     92 C          -7.7331  -25.3156  -49.5250 C.2       16 UNK         0.5000 
     93 O          -8.5802  -25.2552  -50.4177 O.2       16 UNK        -0.5000 
     94 N          -7.4951  -24.3433  -48.6344 N.am      17 UNK        -0.5000 
     95 CA         -8.1407  -23.0317  -48.5287 C.3       17 UNK         0.1400 
     96 CB         -9.6730  -23.1473  -48.3763 C.3       17 UNK        -0.1800 
     97 C          -7.6941  -22.0757  -49.6501 C.2       17 UNK         0.5000 
     98 O          -8.5273  -21.4277  -50.2865 O.2       17 UNK        -0.5000 
     99 N          -6.3688  -21.9958  -49.8396 N.am      18 UNK        -0.5000 
    100 CA        -5.6616  -21.1422  -50.7977 C.3       18 UNK         0.1400 
    101 CB        -5.7912  -19.6521  -50.4063 C.3       18 UNK        -0.1800 
    102 C         -6.0564  -21.4626  -52.2541 C.2       18 UNK         0.5000 
    103 O         -5.9031  -22.6114  -52.6680 O.2       18 UNK        -0.5000 
    104 N         -6.5027  -20.4524  -53.0160 N.am      19 UNK        -0.5000 
    105 CA        -6.9188  -20.4697  -54.4285 C.3       19 UNK         0.1400 
    106 CB        -8.0893  -21.4433  -54.6656 C.3       19 UNK        -0.1800 
    107 C         -5.7695  -20.7180  -55.4269 C.2       19 UNK         0.5000 
    108 O         -5.6607  -19.9930  -56.4158 O.2       19 UNK        -0.5000 
    109 N         -4.9146  -21.7057  -55.1376 N.am      20 UNK        -0.5000 
    110 CA        -3.6759  -21.9978  -55.8620 C.3       20 UNK         0.1400 
    111 CB        -3.2686  -23.4515  -55.5755 C.3       20 UNK        -0.1800 
    112 C         -2.5293  -21.0335  -55.4926 C.2       20 UNK         0.5000 
    113 O         -1.5405  -20.9608  -56.2236 O.2       20 UNK        -0.5000 
    114 N         -2.6762  -20.3201  -54.3666 N.am      21 UNK        -0.5000 
    115 CA        -1.7537  -19.2998  -53.8694 C.3       21 UNK         0.1400 
    116 CB        -2.2506  -18.8357  -52.4911 C.3       21 UNK        -0.1800 
    117 C         -1.6388  -18.0946  -54.8357 C.2       21 UNK         0.5000 
    118 O         -2.6220  -17.7716  -55.5038 O.2       21 UNK        -0.5000 
    119 N         -0.4984  -17.3953  -54.9142 N.am      22 UNK        -0.5000 
    120 CA         0.7612  -17.6103  -54.1766 C.3       22 UNK         0.1400 
    121 C          1.6543  -18.7662  -54.7205 C.2       22 UNK         0.5000 
    122 N          1.2813  -19.4569  -55.7899 N.am      22 UNK        -0.7600 
    123 O          2.7004  -19.0552  -54.1475 O.2       22 UNK        -0.5000 
    124 C124        1.5816  -16.2966  -54.0647 C.3       23 UNK        -0.0398 
    125 S125        0.6748  -14.9411  -53.2398 S.3       23 UNK        -0.2404 
    126 C126        1.3683  -15.0010  -51.5564 C.3       23 UNK        -0.0205 
    127 H127       -0.8973  -11.5155  -51.4501 H         1 UNK         0.0600 
    128 H128       -1.3938  -10.2433  -50.3280 H         1 UNK         0.0600 
    129 H129       -2.5052  -11.5593  -50.7209 H         1 UNK         0.0600 
    130 H130       -2.6415  -13.0943  -49.1116 H         1 UNK         0.3000 
    131 H131       -0.4490  -14.4663  -48.0405 H         1 UNK         0.0600 
    132 H132       -2.0901  -15.6329  -46.5987 H         1 UNK         0.0800 
    133 H133       -3.2624  -14.3774  -46.8482 H         1 UNK         0.0800 
    134 H134       -2.1012  -17.7227  -47.7797 H         1 UNK         0.0800 
    135 H135       -2.8282  -18.0946  -49.3213 H         1 UNK         0.0800 
    136 H136       -0.9744  -15.3181  -50.2780 H         1 UNK         0.1150 
    137 H137        2.6399  -17.3856  -51.1927 H         1 UNK         0.1150 
    138 H138       -0.4327  -19.3452  -48.9235 H         1 UNK         0.1150 
    139 H139        2.6243  -19.8111  -51.0225 H         1 UNK         0.0800 
    140 H140        2.8963  -19.6165  -49.3113 H         1 UNK         0.0800 
    141 H141        0.9500  -20.5130  -47.5911 H         1 UNK         0.0800 
    142 H142        2.3655  -21.5129  -47.6663 H         1 UNK         0.0800 
    143 H143        1.0224  -23.5523  -47.6385 H         1 UNK         0.0600 
    144 H144        1.0265  -21.7110  -45.4938 H         1 UNK         0.3000 
    145 H145       -0.5747  -23.7084  -43.0202 H         1 UNK         0.0600 
    146 H146        1.5356  -23.1045  -41.8541 H         1 UNK         0.0600 
    147 H147        1.8169  -24.3822  -43.0268 H         1 UNK         0.0600 
    148 H148        2.3097  -22.7350  -43.3934 H         1 UNK         0.0600 
    149 H149        0.5083  -21.0315  -43.1048 H         1 UNK         0.3000 
    150 H150       -2.5793  -19.4101  -43.9034 H         1 UNK         0.0600 
    151 H151       -2.6338  -19.8902  -41.4368 H         1 UNK         0.0600 
    152 H152       -2.0904  -18.2570  -41.7853 H         1 UNK         0.0600 
    153 H153       -0.9211  -19.4942  -41.3278 H         1 UNK         0.0600 
    154 H154       -0.0097  -18.3475  -43.3179 H         1 UNK         0.3000 
    155 H155        1.3681  -18.5954  -46.6270 H         1 UNK         0.0600 
    156 H156        0.2330  -16.1792  -45.1724 H         1 UNK         0.0600 
    157 H157       -0.0131  -16.6130  -46.8605 H         1 UNK         0.0600 
    158 H158        1.5781  -16.1278  -46.3150 H         1 UNK         0.0600 
    159 H159        2.4131  -17.3126  -44.3733 H         1 UNK         0.3000 
    160 H160        4.0341  -20.1200  -42.8746 H         1 UNK         0.0600 
    161 H161        5.0424  -17.7791  -44.5808 H         1 UNK         0.0600 
    162 H162        5.4252  -19.4782  -44.8357 H         1 UNK         0.0600 
    163 H163        5.9839  -18.6644  -43.3819 H         1 UNK         0.0600 
    164 H164        3.6529  -17.1768  -42.6240 H         1 UNK         0.3000 
    165 H165        1.7361  -17.4973  -39.6599 H         1 UNK         0.0600 
    166 H166        3.4871  -16.0494  -38.6766 H         1 UNK         0.0600 
    167 H167        4.0702  -17.7024  -38.7854 H         1 UNK         0.0600 
    168 H168        4.6216  -16.5033  -39.9492 H         1 UNK         0.0600 
    169 H169        2.7605  -15.1947  -40.9639 H         1 UNK         0.3000 
    170 H170        0.1143  -14.8019  -43.3337 H         1 UNK         0.0600 
    171 H171       -0.7790  -14.0595  -41.1247 H         1 UNK         0.0600 
    172 H172        0.7691  -13.3107  -40.7492 H         1 UNK         0.0600 
    173 H173       -0.2052  -12.7095  -42.0895 H         1 UNK         0.0600 
    174 H174        1.9556  -12.9197  -43.0880 H         1 UNK         0.3000 
    175 H175        4.5146  -13.0781  -43.8850 H         1 UNK         0.0600 
    176 H176        4.0955  -14.6989  -46.4596 H         1 UNK         0.0600 
    177 H177        5.3758  -13.5148  -46.1997 H         1 UNK         0.0600 
    178 H178        5.3431  -14.9917  -45.2523 H         1 UNK         0.0600 
    179 H179        2.1027  -12.7327  -45.5204 H         1 UNK         0.3000 
    180 H180        2.6010   -9.2725  -45.6984 H         1 UNK         0.0600 
    181 H181        2.7731  -11.0482  -48.1907 H         1 UNK         0.0600 
    182 H182        3.8773   -9.7425  -47.7783 H         1 UNK         0.0600 
    183 H183        2.2007   -9.3805  -48.1588 H         1 UNK         0.0600 
    184 H184        0.6472  -10.9871  -46.9182 H         1 UNK         0.3000 
    185 H185       -1.2919  -11.6889  -44.1123 H         1 UNK         0.0600 
    186 H186       -1.8895   -9.2590  -44.1673 H         1 UNK         0.0600 
    187 H187       -1.9379   -9.3029  -45.9257 H         1 UNK         0.0600 
    188 H188       -3.1011  -10.2346  -44.9810 H         1 UNK         0.0600 
    189 H189       -2.1046  -11.6253  -46.8076 H         1 UNK         0.3000 
    190 H190       -1.4566  -21.0758  -46.7303 H         1 UNK         0.3000 
    191 H191       -3.3418  -21.7185  -48.7060 H         1 UNK         0.0600 
    192 H192       -3.4673  -19.6494  -47.3846 H         1 UNK         0.0600 
    193 H193       -4.9609  -20.5485  -47.1791 H         1 UNK         0.0600 
    194 H194       -3.7506  -20.5571  -45.9030 H         1 UNK         0.0600 
    195 H195       -2.9356  -23.1152  -45.4250 H         1 UNK         0.3000 
    196 H196       -5.1921  -24.8434  -45.5010 H         1 UNK         0.0600 
    197 H197       -4.0417  -26.0085  -43.6226 H         1 UNK         0.0600 
    198 H198       -4.0155  -24.2653  -43.4027 H         1 UNK         0.0600 
    199 H199       -2.5664  -25.1070  -43.9439 H         1 UNK         0.0600 
    200 H200       -1.7447  -25.4323  -46.3753 H         1 UNK         0.3000 
    201 H201       -2.0381  -28.1284  -47.1963 H         1 UNK         0.0600 
    202 H202        0.1483  -27.0929  -46.6661 H         1 UNK         0.0600 
    203 H203        0.0074  -26.0113  -48.0498 H         1 UNK         0.0600 
    204 H204        0.1742  -27.7456  -48.2976 H         1 UNK         0.0600 
    205 H205       -2.4222  -25.0879  -49.0095 H         1 UNK         0.3000 
    206 H206       -2.9124  -26.2888  -51.5770 H         1 UNK         0.0600 
    207 H207       -2.0597  -23.9771  -51.3073 H         1 UNK         0.0600 
    208 H208       -3.5890  -23.9544  -52.1700 H         1 UNK         0.0600 
    209 H209       -3.5366  -23.5055  -50.4700 H         1 UNK         0.0600 
    210 H210       -4.8469  -26.2789  -48.8183 H         1 UNK         0.3000 
    211 H211       -6.9048  -26.8449  -48.3027 H         1 UNK         0.0600 
    212 H212       -7.3960  -27.5984  -51.2301 H         1 UNK         0.0600 
    213 H213       -8.3677  -28.0662  -49.8461 H         1 UNK         0.0600 
    214 H214       -6.7207  -28.6592  -49.9947 H         1 UNK         0.0600 
    215 H215       -6.6921  -24.4612  -48.0270 H         1 UNK         0.3000 
    216 H216       -7.7645  -22.5947  -47.6024 H         1 UNK         0.0600 
    217 H217      -10.1109  -22.1781  -48.1351 H         1 UNK         0.0600 
    218 H218       -9.9395  -23.8326  -47.5717 H         1 UNK         0.0600 
    219 H219      -10.1520  -23.4980  -49.2905 H         1 UNK         0.0600 
    220 H220       -5.7868  -22.6160  -49.2844 H         1 UNK         0.3000 
    221 H221       -4.6059  -21.4006  -50.7187 H         1 UNK         0.0600 
    222 H222       -6.8207  -19.2974  -50.4645 H         1 UNK         0.0600 
    223 H223       -5.4464  -19.4866  -49.3860 H         1 UNK         0.0600 
    224 H224       -5.1811  -19.0173  -51.0495 H         1 UNK         0.0600 
    225 H225       -6.5772  -19.5481  -52.5714 H         1 UNK         0.3000 
    226 H226       -7.2921  -19.4646  -54.6316 H         1 UNK         0.0600 
    227 H227       -8.9196  -21.2317  -53.9917 H         1 UNK         0.0600 
    228 H228       -8.4663  -21.3549  -55.6852 H         1 UNK         0.0600 
    229 H229       -7.7957  -22.4829  -54.5183 H         1 UNK         0.0600 
    230 H230       -5.1115  -22.2611  -54.3077 H         1 UNK         0.3000 
    231 H231       -3.8614  -21.8975  -56.9334 H         1 UNK         0.0600 
    232 H232       -3.0569  -23.6086  -54.5176 H         1 UNK         0.0600 
    233 H233       -2.3719  -23.7236  -56.1336 H         1 UNK         0.0600 
    234 H234       -4.0559  -24.1470  -55.8670 H         1 UNK         0.0600 
    235 H235       -3.5411  -20.4272  -53.8618 H         1 UNK         0.3000 
    236 H236       -0.7848  -19.7832  -53.7491 H         1 UNK         0.0600 
    237 H237       -2.2540  -19.6545  -51.7710 H         1 UNK         0.0600 
    238 H238       -1.6080  -18.0534  -52.0895 H         1 UNK         0.0600 
    239 H239       -3.2596  -18.4256  -52.5448 H         1 UNK         0.0600 
    240 H240       -0.4773  -16.6102  -55.5473 H         1 UNK         0.3000 
    241 H241        0.5008  -17.9063  -53.1615 H         1 UNK         0.0600 
    242 H242        1.8684  -20.2071  -56.1192 H         1 UNK         0.3800 
    243 H243        0.4097  -19.2690  -56.2617 H         1 UNK         0.3800 
    244 H244        2.5173  -16.4648  -53.5290 H         1 UNK         0.0800 
    245 H245        1.8698  -15.9508  -55.0587 H         1 UNK         0.0800 
    246 H246        1.0704  -14.0985  -51.0202 H         1 UNK         0.0800 
    247 H247        2.4582  -14.9794  -51.6007 H         1 UNK         0.0800 
@<TRIPOS>BOND
     1    1    2 1    
     2    1  127 1    
     3    1  128 1    
     4    1  129 1    
     5    2    3 2    
     6    2    4 am   BACKBONE|DICT|INTERRES
     7    4    5 1    
     8    4  130 1    
     9    5    6 1    
    10    5   65 1    
    11    5  131 1    
    12    6    7 1    
    13    6  132 1    
    14    6  133 1    
    15    7    8 1    
    16    8    9 1    
    17    8  134 1    
    18    8  135 1    
    19    9   10 ar   
    20    9   14 ar   
    21   10   11 ar   
    22   10  136 1    
    23   11   12 ar   
    24   11  126 1    
    25   12   13 ar   
    26   12  137 1    
    27   13   14 ar   
    28   13   15 1    
    29   14  138 1    
    30   15   16 1    
    31   15  139 1    
    32   15  140 1    
    33   16   17 1    
    34   17   18 1    
    35   17  141 1    
    36   17  142 1    
    37   18   19 1    
    38   18   67 1    
    39   18  143 1    
    40   19   20 am   BACKBONE|DICT|INTERRES
    41   19  144 1    
    42   20   21 2    
    43   20   22 1    
    44   22   23 1    
    45   22   24 1    
    46   22  145 1    
    47   23  146 1    
    48   23  147 1    
    49   23  148 1    
    50   24   25 am   BACKBONE|DICT|INTERRES
    51   24  149 1    
    52   25   26 2    
    53   25   27 1    
    54   27   28 1    
    55   27   29 1    
    56   27  150 1    
    57   28  151 1    
    58   28  152 1    
    59   28  153 1    
    60   29   30 am   BACKBONE|DICT|INTERRES
    61   29  154 1    
    62   30   31 2    
    63   30   32 1    
    64   32   33 1    
    65   32   34 1    
    66   32  155 1    
    67   33  156 1    
    68   33  157 1    
    69   33  158 1    
    70   34   35 am   BACKBONE|DICT|INTERRES
    71   34  159 1    
    72   35   36 2    
    73   35   37 1    
    74   37   38 1    
    75   37   39 1    
    76   37  160 1    
    77   38  161 1    
    78   38  162 1    
    79   38  163 1    
    80   39   40 am   BACKBONE|DICT|INTERRES
    81   39  164 1    
    82   40   41 2    
    83   40   42 1    
    84   42   43 1    
    85   42   44 1    
    86   42  165 1    
    87   43  166 1    
    88   43  167 1    
    89   43  168 1    
    90   44   45 am   BACKBONE|DICT|INTERRES
    91   44  169 1    
    92   45   46 2    
    93   45   47 1    
    94   47   48 1    
    95   47   49 1    
    96   47  170 1    
    97   48  171 1    
    98   48  172 1    
    99   48  173 1    
   100   49   50 am   BACKBONE|DICT|INTERRES
   101   49  174 1    
   102   50   51 2    
   103   50   52 1    
   104   52   53 1    
   105   52   54 1    
   106   52  175 1    
   107   53  176 1    
   108   53  177 1    
   109   53  178 1    
   110   54   55 am   BACKBONE|DICT|INTERRES
   111   54  179 1    
   112   55   56 2    
   113   55   57 1    
   114   57   58 1    
   115   57   59 1    
   116   57  180 1    
   117   58  181 1    
   118   58  182 1    
   119   58  183 1    
   120   59   60 am   BACKBONE|DICT|INTERRES
   121   59  184 1    
   122   60   61 2    
   123   60   62 1    
   124   62   63 1    
   125   62   64 1    
   126   62  185 1    
   127   63  186 1    
   128   63  187 1    
   129   63  188 1    
   130   64   65 am   BACKBONE|DICT|INTERRES
   131   64  189 1    
   132   65   66 2    
   133   67   68 2    
   134   67   69 am   BACKBONE|DICT|INTERRES
   135   69   70 1    
   136   69  190 1    
   137   70   71 1    
   138   70   72 1    
   139   70  191 1    
   140   71  192 1    
   141   71  193 1    
   142   71  194 1    
   143   72   73 2    
   144   72   74 am   BACKBONE|DICT|INTERRES
   145   74   75 1    
   146   74  195 1    
   147   75   76 1    
   148   75   77 1    
   149   75  196 1    
   150   76  197 1    
   151   76  198 1    
   152   76  199 1    
   153   77   78 2    
   154   77   79 am   BACKBONE|DICT|INTERRES
   155   79   80 1    
   156   79  200 1    
   157   80   81 1    
   158   80   82 1    
   159   80  201 1    
   160   81  202 1    
   161   81  203 1    
   162   81  204 1    
   163   82   83 2    
   164   82   84 am   BACKBONE|DICT|INTERRES
   165   84   85 1    
   166   84  205 1    
   167   85   86 1    
   168   85   87 1    
   169   85  206 1    
   170   86  207 1    
   171   86  208 1    
   172   86  209 1    
   173   87   88 2    
   174   87   89 am   BACKBONE|DICT|INTERRES
   175   89   90 1    
   176   89  210 1    
   177   90   91 1    
   178   90   92 1    
   179   90  211 1    
   180   91  212 1    
   181   91  213 1    
   182   91  214 1    
   183   92   93 2    
   184   92   94 am   BACKBONE|DICT|INTERRES
   185   94   95 1    
   186   94  215 1    
   187   95   96 1    
   188   95   97 1    
   189   95  216 1    
   190   96  217 1    
   191   96  218 1    
   192   96  219 1    
   193   97   98 2    
   194   97   99 am   BACKBONE|DICT|INTERRES
   195   99  100 1    
   196   99  220 1    
   197  100  101 1    
   198  100  102 1    
   199  100  221 1    
   200  101  222 1    
   201  101  223 1    
   202  101  224 1    
   203  102  103 2    
   204  102  104 am   BACKBONE|DICT|INTERRES
   205  104  105 1    
   206  104  225 1    
   207  105  106 1    
   208  105  107 1    
   209  105  226 1    
   210  106  227 1    
   211  106  228 1    
   212  106  229 1    
   213  107  108 2    
   214  107  109 am   BACKBONE|DICT|INTERRES
   215  109  110 1    
   216  109  230 1    
   217  110  111 1    
   218  110  112 1    
   219  110  231 1    
   220  111  232 1    
   221  111  233 1    
   222  111  234 1    
   223  112  113 2    
   224  112  114 am   BACKBONE|DICT|INTERRES
   225  114  115 1    
   226  114  235 1    
   227  115  116 1    
   228  115  117 1    
   229  115  236 1    
   230  116  237 1    
   231  116  238 1    
   232  116  239 1    
   233  117  118 2    
   234  117  119 am   BACKBONE|DICT|INTERRES
   235  119  120 1    
   236  119  240 1    
   237  120  121 1    
   238  120  124 1    
   239  120  241 1    
   240  121  122 am   BACKBONE|DICT|INTERRES
   241  121  123 2    
   242  122  242 1    
   243  122  243 1    
   244  124  125 1    
   245  124  244 1    
   246  124  245 1    
   247  125  126 1    
   248  126  246 1    
   249  126  247 1    
@<TRIPOS>SUBSTRUCTURE
     1 UNK         1 GROUP             0       ****    0 ROOT    
