@<TRIPOS>MOLECULE
3R540
247   249    1
SMALL
USER_CHARGES


@<TRIPOS>ATOM
      1 CA          7.8216  -12.8040  -47.6720 C.3       0 UNK        -0.1800 
      2 C           6.7611  -13.3567  -48.6140 C.2       0 UNK         0.5000 
      3 O           6.8865  -13.2023  -49.8287 O.2       0 UNK        -0.5000 
      4 N           5.7262  -13.9974  -48.0533 N.am      1 UNK        -0.5000 
      5 CA          4.5866  -14.6051  -48.7533 C.3       1 UNK         0.1400 
      6 C6          4.9599  -15.8581  -49.5936 C.3       23 UNK        -0.0398 
      7 S7          5.3688  -17.2940  -48.5441 S.3       23 UNK        -0.2404 
      8 C8          3.7241  -17.8300  -47.9590 C.3       23 UNK        -0.0205 
      9 C9          2.8802  -18.4806  -49.0444 C.ar      23 UNK        -0.0193 
     10 C10         2.0223  -17.7135  -49.8376 C.ar      23 UNK        -0.1150 
     11 C11         1.2301  -18.3190  -50.8158 C.ar      23 UNK        -0.0193 
     12 C12         1.2598  -19.7089  -50.9594 C.ar      23 UNK        -0.1150 
     13 C13         2.0976  -20.4947  -50.1619 C.ar      23 UNK        -0.0193 
     14 C14         2.9286  -19.8641  -49.2269 C.ar      23 UNK        -0.1150 
     15 C15         2.0831  -22.0128  -50.3543 C.3       23 UNK        -0.0205 
     16 S16         2.6032  -22.9996  -48.9049 S.3       23 UNK        -0.2404 
     17 C17         1.5090  -22.3506  -47.5994 C.3       23 UNK        -0.0398 
     18 CA          1.0477  -23.4367  -46.5994 C.3       11 UNK         0.1400 
     19 N           0.8816  -22.8771  -45.2559 N.am      11 UNK        -0.5000 
     20 C           0.6542  -23.5831  -44.1395 C.2       10 UNK         0.5000 
     21 O           0.5963  -24.8117  -44.1022 O.2       10 UNK        -0.5000 
     22 CA          0.4014  -22.7660  -42.8598 C.3       10 UNK         0.1400 
     23 CB          1.7225  -22.3312  -42.2074 C.3       10 UNK        -0.1800 
     24 N          -0.4223  -21.5900  -43.1430 N.am      10 UNK        -0.5000 
     25 C          -1.7318  -21.6521  -43.4230 C.2       9 UNK         0.5000 
     26 O          -2.3984  -22.6836  -43.3407 O.2       9 UNK        -0.5000 
     27 CA         -2.4029  -20.3607  -43.9184 C.3       9 UNK         0.1400 
     28 CB         -3.0175  -19.5776  -42.7507 C.3       9 UNK        -0.1800 
     29 N          -1.4881  -19.5011  -44.6758 N.am      9 UNK        -0.5000 
     30 C          -1.0896  -19.7653  -45.9310 C.2       8 UNK         0.5000 
     31 O          -1.4692  -20.7460  -46.5645 O.2       8 UNK        -0.5000 
     32 CA         -0.0743  -18.8125  -46.5893 C.3       8 UNK         0.1400 
     33 CB         -0.8113  -17.7451  -47.4058 C.3       8 UNK        -0.1800 
     34 N           0.8175  -18.1628  -45.6309 N.am      8 UNK        -0.5000 
     35 C           1.6809  -18.8057  -44.8316 C.2       7 UNK         0.5000 
     36 O           1.8639  -20.0230  -44.8712 O.2       7 UNK        -0.5000 
     37 CA          2.4063  -17.9558  -43.7673 C.3       7 UNK         0.1400 
     38 CB          3.7969  -17.5327  -44.2626 C.3       7 UNK        -0.1800 
     39 N           1.6555  -16.7610  -43.3600 N.am      7 UNK        -0.5000 
     40 C           0.4412  -16.7769  -42.7906 C.2       6 UNK         0.5000 
     41 O          -0.1589  -17.8188  -42.5248 O.2       6 UNK        -0.5000 
     42 CA         -0.2544  -15.4255  -42.5447 C.3       6 UNK         0.1400 
     43 CB          0.6631  -14.2004  -42.7299 C.3       6 UNK        -0.1800 
     44 N          -1.3652  -15.3224  -43.4846 N.am      6 UNK        -0.5000 
     45 C          -2.6346  -15.6692  -43.2511 C.2       5 UNK         0.5000 
     46 O          -3.0616  -15.9863  -42.1398 O.2       5 UNK        -0.5000 
     47 CA         -3.5772  -15.6564  -44.4770 C.3       5 UNK         0.1400 
     48 CB         -5.0380  -15.9820  -44.1162 C.3       5 UNK        -0.1800 
     49 N          -3.5510  -14.3948  -45.2235 N.am      5 UNK        -0.5000 
     50 C          -2.5746  -13.9902  -46.0443 C.2       4 UNK         0.5000 
     51 O          -1.5109  -14.5977  -46.1975 O.2       4 UNK        -0.5000 
     52 CA         -2.8071  -12.6679  -46.7842 C.3       4 UNK         0.1400 
     53 CB         -2.3503  -11.4708  -45.9330 C.3       4 UNK        -0.1800 
     54 N          -2.0509  -12.7057  -48.0273 N.am      4 UNK        -0.5000 
     55 C          -2.3451  -12.0545  -49.1540 C.2       3 UNK         0.5000 
     56 O          -3.2795  -11.2572  -49.2571 O.2       3 UNK        -0.5000 
     57 CA         -1.4125  -12.3296  -50.3519 C.3       3 UNK         0.1400 
     58 CB         -1.9559  -11.7635  -51.6760 C.3       3 UNK        -0.1800 
     59 N          -0.0647  -11.8020  -50.1316 N.am      3 UNK        -0.5000 
     60 C           0.8653  -12.3744  -49.3587 C.2       2 UNK         0.5000 
     61 O           0.6772  -13.4182  -48.7275 O.2       2 UNK        -0.5000 
     62 CA          2.2200  -11.6430  -49.2551 C.3       2 UNK         0.1400 
     63 CB          2.1244  -10.4719  -48.2642 C.3       2 UNK        -0.1800 
     64 N           3.2746  -12.5519  -48.8060 N.am      2 UNK        -0.5000 
     65 C           3.7594  -13.5645  -49.5368 C.2       1 UNK         0.5000 
     66 O           3.5527  -13.6967  -50.7451 O.2       1 UNK        -0.5000 
     67 C          -0.2250  -24.1569  -47.0930 C.2       11 UNK         0.5000 
     68 O          -0.1319  -25.2516  -47.6516 O.2       11 UNK        -0.5000 
     69 N          -1.3952  -23.5520  -46.8357 N.am      12 UNK        -0.5000 
     70 CA         -2.7238  -24.0250  -47.2321 C.3       12 UNK         0.1400 
     71 CB         -3.7926  -23.0176  -46.7802 C.3       12 UNK        -0.1800 
     72 C          -3.0930  -25.4391  -46.7500 C.2       12 UNK         0.5000 
     73 O          -3.9347  -26.0821  -47.3765 O.2       12 UNK        -0.5000 
     74 N          -2.4372  -25.9175  -45.6846 N.am      13 UNK        -0.5000 
     75 CA         -2.5669  -27.2793  -45.1664 C.3       13 UNK         0.1400 
     76 CB         -1.8145  -27.3756  -43.8308 C.3       13 UNK        -0.1800 
     77 C          -2.0742  -28.3695  -46.1428 C.2       13 UNK         0.5000 
     78 O          -2.5052  -29.5165  -46.0148 O.2       13 UNK        -0.5000 
     79 N          -1.1944  -28.0059  -47.0878 N.am      14 UNK        -0.5000 
     80 CA         -0.6390  -28.9083  -48.0969 C.3       14 UNK         0.1400 
     81 CB          0.8528  -29.1330  -47.8018 C.3       14 UNK        -0.1800 
     82 C          -0.8287  -28.3718  -49.5254 C.2       14 UNK         0.5000 
     83 O          -1.1470  -29.1517  -50.4237 O.2       14 UNK        -0.5000 
     84 N          -0.6161  -27.0646  -49.7226 N.am      15 UNK        -0.5000 
     85 CA         -0.5546  -26.4232  -51.0383 C.3       15 UNK         0.1400 
     86 CB          0.5754  -25.3822  -51.0034 C.3       15 UNK        -0.1800 
     87 C          -1.8722  -25.7498  -51.4628 C.2       15 UNK         0.5000 
     88 O          -1.9271  -25.1968  -52.5622 O.2       15 UNK        -0.5000 
     89 N          -2.8872  -25.7495  -50.5857 N.am      16 UNK        -0.5000 
     90 CA         -4.1950  -25.0795  -50.6911 C.3       16 UNK         0.1400 
     91 CB         -4.9956  -25.5657  -51.9137 C.3       16 UNK        -0.1800 
     92 C          -4.1253  -23.5382  -50.6484 C.2       16 UNK         0.5000 
     93 O          -4.9273  -22.9232  -49.9452 O.2       16 UNK        -0.5000 
     94 N          -3.1664  -22.9440  -51.3745 N.am      17 UNK        -0.5000 
     95 CA         -2.8048  -21.5192  -51.4090 C.3       17 UNK         0.1400 
     96 CB         -2.0782  -21.1331  -50.1035 C.3       17 UNK        -0.1800 
     97 C          -3.9899  -20.5811  -51.7295 C.2       17 UNK         0.5000 
     98 O          -4.0530  -19.4667  -51.2087 O.2       17 UNK        -0.5000 
     99 N          -4.9352  -21.0745  -52.5455 N.am      18 UNK        -0.5000 
    100 CA        -6.2246  -20.4569  -52.8797 C.3       18 UNK         0.1400 
    101 CB        -6.0169  -19.2390  -53.8012 C.3       18 UNK        -0.1800 
    102 C         -7.0624  -20.1288  -51.6233 C.2       18 UNK         0.5000 
    103 O         -7.5844  -19.0209  -51.4979 O.2       18 UNK        -0.5000 
    104 N         -7.1226  -21.0922  -50.6908 N.am      19 UNK        -0.5000 
    105 CA        -7.7327  -20.9995  -49.3588 C.3       19 UNK         0.1400 
    106 CB        -9.2604  -20.8024  -49.4548 C.3       19 UNK        -0.1800 
    107 C         -7.0322  -19.9478  -48.4727 C.2       19 UNK         0.5000 
    108 O         -7.6942  -19.1933  -47.7590 O.2       19 UNK        -0.5000 
    109 N         -5.6945  -19.9153  -48.5682 N.am      20 UNK        -0.5000 
    110 CA        -4.7540  -19.0076  -47.8982 C.3       20 UNK         0.1400 
    111 CB        -4.8834  -19.1167  -46.3658 C.3       20 UNK        -0.1800 
    112 C         -4.8192  -17.5384  -48.3698 C.2       20 UNK         0.5000 
    113 O         -4.1346  -16.6974  -47.7880 O.2       20 UNK        -0.5000 
    114 N         -5.6208  -17.2376  -49.4002 N.am      21 UNK        -0.5000 
    115 CA        -5.7719  -15.8910  -49.9515 C.3       21 UNK         0.1400 
    116 CB        -7.1924  -15.7386  -50.5162 C.3       21 UNK        -0.1800 
    117 C         -4.7291  -15.5708  -51.0372 C.2       21 UNK         0.5000 
    118 O         -4.4993  -14.3929  -51.3105 O.2       21 UNK        -0.5000 
    119 N         -4.1403  -16.6074  -51.6504 N.am      22 UNK        -0.5000 
    120 CA        -3.1559  -16.5408  -52.7471 C.3       22 UNK         0.1400 
    121 C         -3.6987  -15.9799  -54.0994 C.2       22 UNK         0.5000 
    122 N         -5.0011  -15.7911  -54.2730 N.am      22 UNK        -0.7600 
    123 O         -2.9296  -15.7441  -55.0272 O.2       22 UNK        -0.5000 
    124 C124       -1.8245  -15.8617  -52.3265 C.3       23 UNK        -0.0398 
    125 S125       -1.0276  -16.6936  -50.9090 S.3       23 UNK        -0.2404 
    126 C126        0.3844  -17.4682  -51.7508 C.3       23 UNK        -0.0205 
    127 H127        7.5885  -13.0158  -46.6282 H         1 UNK         0.0600 
    128 H128        7.9015  -11.7234  -47.7898 H         1 UNK         0.0600 
    129 H129        8.7919  -13.2456  -47.8994 H         1 UNK         0.0600 
    130 H130        5.7041  -14.0849  -47.0471 H         1 UNK         0.3000 
    131 H131        3.9100  -14.9302  -47.9635 H         1 UNK         0.0600 
    132 H132        4.1575  -16.1500  -50.2691 H         1 UNK         0.0800 
    133 H133        5.8116  -15.6467  -50.2407 H         1 UNK         0.0800 
    134 H134        3.8712  -18.5427  -47.1465 H         1 UNK         0.0800 
    135 H135        3.1792  -16.9952  -47.5194 H         1 UNK         0.0800 
    136 H136        1.9734  -16.6417  -49.7045 H         1 UNK         0.1150 
    137 H137        0.6369  -20.1814  -51.7060 H         1 UNK         0.1150 
    138 H138        3.6041  -20.4466  -48.6178 H         1 UNK         0.1150 
    139 H139        1.0806  -22.3324  -50.6401 H         1 UNK         0.0800 
    140 H140        2.7351  -22.2611  -51.1924 H         1 UNK         0.0800 
    141 H141        0.6608  -21.8230  -48.0403 H         1 UNK         0.0800 
    142 H142        2.0872  -21.5877  -47.0770 H         1 UNK         0.0800 
    143 H143        1.8335  -24.1908  -46.5166 H         1 UNK         0.0600 
    144 H144        0.9682  -21.8706  -45.1718 H         1 UNK         0.3000 
    145 H145       -0.1315  -23.4040  -42.1514 H         1 UNK         0.0600 
    146 H146        1.5430  -21.7742  -41.2877 H         1 UNK         0.0600 
    147 H147        2.3303  -23.1990  -41.9484 H         1 UNK         0.0600 
    148 H148        2.3180  -21.7022  -42.8691 H         1 UNK         0.0600 
    149 H149        0.0563  -20.7064  -43.2448 H         1 UNK         0.3000 
    150 H150       -3.2164  -20.6620  -44.5785 H         1 UNK         0.0600 
    151 H151       -3.5239  -18.6803  -43.1026 H         1 UNK         0.0600 
    152 H152       -3.7576  -20.1820  -42.2250 H         1 UNK         0.0600 
    153 H153       -2.2661  -19.2768  -42.0208 H         1 UNK         0.0600 
    154 H154       -1.0843  -18.7188  -44.1738 H         1 UNK         0.3000 
    155 H155        0.5417  -19.3989  -47.2735 H         1 UNK         0.0600 
    156 H156       -1.5009  -17.1708  -46.7879 H         1 UNK         0.0600 
    157 H157       -1.3961  -18.2031  -48.2045 H         1 UNK         0.0600 
    158 H158       -0.1174  -17.0461  -47.8727 H         1 UNK         0.0600 
    159 H159        0.7231  -17.1631  -45.5324 H         1 UNK         0.3000 
    160 H160        2.5349  -18.5867  -42.8853 H         1 UNK         0.0600 
    161 H161        3.7339  -16.8379  -45.1002 H         1 UNK         0.0600 
    162 H162        4.3764  -18.3965  -44.5916 H         1 UNK         0.0600 
    163 H163        4.3651  -17.0472  -43.4689 H         1 UNK         0.0600 
    164 H164        2.0865  -15.8685  -43.5523 H         1 UNK         0.3000 
    165 H165       -0.6222  -15.4266  -41.5167 H         1 UNK         0.0600 
    166 H166        0.1289  -13.2809  -42.4896 H         1 UNK         0.0600 
    167 H167        1.5275  -14.2493  -42.0663 H         1 UNK         0.0600 
    168 H168        1.0257  -14.1064  -43.7545 H         1 UNK         0.0600 
    169 H169       -1.1328  -15.0682  -44.4420 H         1 UNK         0.3000 
    170 H170       -3.2250  -16.4476  -45.1413 H         1 UNK         0.0600 
    171 H171       -5.1161  -16.9436  -43.6084 H         1 UNK         0.0600 
    172 H172       -5.4682  -15.2259  -43.4585 H         1 UNK         0.0600 
    173 H173       -5.6577  -16.0432  -45.0113 H         1 UNK         0.0600 
    174 H174       -4.3674  -13.8101  -45.1204 H         1 UNK         0.3000 
    175 H175       -3.8718  -12.5774  -47.0096 H         1 UNK         0.0600 
    176 H176       -1.2866  -11.5296  -45.6985 H         1 UNK         0.0600 
    177 H177       -2.5270  -10.5275  -46.4500 H         1 UNK         0.0600 
    178 H178       -2.8944  -11.4304  -44.9887 H         1 UNK         0.0600 
    179 H179       -1.2484  -13.3317  -48.0160 H         1 UNK         0.3000 
    180 H180       -1.3456  -13.4135  -50.4548 H         1 UNK         0.0600 
    181 H181       -2.0175  -10.6748  -51.6557 H         1 UNK         0.0600 
    182 H182       -2.9563  -12.1459  -51.8824 H         1 UNK         0.0600 
    183 H183       -1.3224  -12.0494  -52.5158 H         1 UNK         0.0600 
    184 H184        0.1483  -10.9256  -50.5858 H         1 UNK         0.3000 
    185 H185        2.4871  -11.2550  -50.2404 H         1 UNK         0.0600 
    186 H186        1.3748   -9.7467  -48.5833 H         1 UNK         0.0600 
    187 H187        1.8464  -10.8115  -47.2654 H         1 UNK         0.0600 
    188 H188        3.0739   -9.9418  -48.1868 H         1 UNK         0.0600 
    189 H189        3.4925  -12.5250  -47.8210 H         1 UNK         0.3000 
    190 H190       -1.3706  -22.6152  -46.4415 H         1 UNK         0.3000 
    191 H191       -2.7186  -24.0529  -48.3192 H         1 UNK         0.0600 
    192 H192       -3.6390  -22.0410  -47.2357 H         1 UNK         0.0600 
    193 H193       -4.7909  -23.3466  -47.0722 H         1 UNK         0.0600 
    194 H194       -3.7926  -22.8901  -45.6980 H         1 UNK         0.0600 
    195 H195       -1.7514  -25.3252  -45.2366 H         1 UNK         0.3000 
    196 H196       -3.6262  -27.4640  -44.9767 H         1 UNK         0.0600 
    197 H197       -1.9449  -28.3596  -43.3787 H         1 UNK         0.0600 
    198 H198       -2.1798  -26.6382  -43.1157 H         1 UNK         0.0600 
    199 H199       -0.7437  -27.2147  -43.9619 H         1 UNK         0.0600 
    200 H200       -0.8906  -27.0387  -47.1230 H         1 UNK         0.3000 
    201 H201       -1.1379  -29.8788  -48.0591 H         1 UNK         0.0600 
    202 H202        0.9939  -29.5958  -46.8249 H         1 UNK         0.0600 
    203 H203        1.4110  -28.1958  -47.8114 H         1 UNK         0.0600 
    204 H204        1.3043  -29.7938  -48.5430 H         1 UNK         0.0600 
    205 H205       -0.3623  -26.4715  -48.9348 H         1 UNK         0.3000 
    206 H206       -0.3069  -27.1623  -51.8030 H         1 UNK         0.0600 
    207 H207        1.5246  -25.8353  -50.7168 H         1 UNK         0.0600 
    208 H208        0.7199  -24.9182  -51.9799 H         1 UNK         0.0600 
    209 H209        0.3559  -24.5874  -50.2908 H         1 UNK         0.0600 
    210 H210       -2.7297  -26.2357  -49.7139 H         1 UNK         0.3000 
    211 H211       -4.7532  -25.3849  -49.8056 H         1 UNK         0.0600 
    212 H212       -4.5356  -25.2661  -52.8554 H         1 UNK         0.0600 
    213 H213       -6.0058  -25.1545  -51.9026 H         1 UNK         0.0600 
    214 H214       -5.0879  -26.6518  -51.9161 H         1 UNK         0.0600 
    215 H215       -2.5928  -23.5611  -51.9449 H         1 UNK         0.3000 
    216 H216       -2.0960  -21.3991  -52.2292 H         1 UNK         0.0600 
    217 H217       -1.7105  -20.1066  -50.1401 H         1 UNK         0.0600 
    218 H218       -1.2187  -21.7779  -49.9236 H         1 UNK         0.0600 
    219 H219       -2.7354  -21.2153  -49.2394 H         1 UNK         0.0600 
    220 H220       -4.7882  -22.0041  -52.9120 H         1 UNK         0.3000 
    221 H221       -6.7920  -21.2016  -53.4397 H         1 UNK         0.0600 
    222 H222       -5.4959  -18.4340  -53.2869 H         1 UNK         0.0600 
    223 H223       -5.4355  -19.5042  -54.6840 H         1 UNK         0.0600 
    224 H224       -6.9716  -18.8415  -54.1473 H         1 UNK         0.0600 
    225 H225       -6.5753  -21.9313  -50.8429 H         1 UNK         0.3000 
    226 H226       -7.5569  -21.9629  -48.8778 H         1 UNK         0.0600 
    227 H227       -9.7171  -21.5642  -50.0866 H         1 UNK         0.0600 
    228 H228       -9.7245  -20.8769  -48.4708 H         1 UNK         0.0600 
    229 H229       -9.5215  -19.8260  -49.8637 H         1 UNK         0.0600 
    230 H230       -5.2683  -20.5684  -49.2130 H         1 UNK         0.3000 
    231 H231       -3.7586  -19.3614  -48.1676 H         1 UNK         0.0600 
    232 H232       -5.7882  -18.6322  -45.9984 H         1 UNK         0.0600 
    233 H233       -4.0388  -18.6390  -45.8703 H         1 UNK         0.0600 
    234 H234       -4.9093  -20.1576  -46.0463 H         1 UNK         0.0600 
    235 H235       -6.1485  -17.9778  -49.8437 H         1 UNK         0.3000 
    236 H236       -5.6518  -15.1566  -49.1519 H         1 UNK         0.0600 
    237 H237       -7.9451  -15.9689  -49.7618 H         1 UNK         0.0600 
    238 H238       -7.3698  -14.7161  -50.8518 H         1 UNK         0.0600 
    239 H239       -7.3606  -16.3953  -51.3697 H         1 UNK         0.0600 
    240 H240       -4.3517  -17.5490  -51.3327 H         1 UNK         0.3000 
    241 H241       -2.9210  -17.5816  -52.9719 H         1 UNK         0.0600 
    242 H242       -5.6487  -15.9751  -53.5252 H         1 UNK         0.3800 
    243 H243       -5.3371  -15.4396  -55.1556 H         1 UNK         0.3800 
    244 H244       -1.9996  -14.8181  -52.0734 H         1 UNK         0.0800 
    245 H245       -1.1209  -15.8432  -53.1600 H         1 UNK         0.0800 
    246 H246        0.0153  -18.0696  -52.5831 H         1 UNK         0.0800 
    247 H247        1.0133  -16.6900  -52.1859 H         1 UNK         0.0800 
@<TRIPOS>BOND
     1    1    2 1    
     2    1  127 1    
     3    1  128 1    
     4    1  129 1    
     5    2    3 2    
     6    2    4 am   BACKBONE|DICT|INTERRES
     7    4    5 1    
     8    4  130 1    
     9    5    6 1    
    10    5   65 1    
    11    5  131 1    
    12    6    7 1    
    13    6  132 1    
    14    6  133 1    
    15    7    8 1    
    16    8    9 1    
    17    8  134 1    
    18    8  135 1    
    19    9   10 ar   
    20    9   14 ar   
    21   10   11 ar   
    22   10  136 1    
    23   11   12 ar   
    24   11  126 1    
    25   12   13 ar   
    26   12  137 1    
    27   13   14 ar   
    28   13   15 1    
    29   14  138 1    
    30   15   16 1    
    31   15  139 1    
    32   15  140 1    
    33   16   17 1    
    34   17   18 1    
    35   17  141 1    
    36   17  142 1    
    37   18   19 1    
    38   18   67 1    
    39   18  143 1    
    40   19   20 am   BACKBONE|DICT|INTERRES
    41   19  144 1    
    42   20   21 2    
    43   20   22 1    
    44   22   23 1    
    45   22   24 1    
    46   22  145 1    
    47   23  146 1    
    48   23  147 1    
    49   23  148 1    
    50   24   25 am   BACKBONE|DICT|INTERRES
    51   24  149 1    
    52   25   26 2    
    53   25   27 1    
    54   27   28 1    
    55   27   29 1    
    56   27  150 1    
    57   28  151 1    
    58   28  152 1    
    59   28  153 1    
    60   29   30 am   BACKBONE|DICT|INTERRES
    61   29  154 1    
    62   30   31 2    
    63   30   32 1    
    64   32   33 1    
    65   32   34 1    
    66   32  155 1    
    67   33  156 1    
    68   33  157 1    
    69   33  158 1    
    70   34   35 am   BACKBONE|DICT|INTERRES
    71   34  159 1    
    72   35   36 2    
    73   35   37 1    
    74   37   38 1    
    75   37   39 1    
    76   37  160 1    
    77   38  161 1    
    78   38  162 1    
    79   38  163 1    
    80   39   40 am   BACKBONE|DICT|INTERRES
    81   39  164 1    
    82   40   41 2    
    83   40   42 1    
    84   42   43 1    
    85   42   44 1    
    86   42  165 1    
    87   43  166 1    
    88   43  167 1    
    89   43  168 1    
    90   44   45 am   BACKBONE|DICT|INTERRES
    91   44  169 1    
    92   45   46 2    
    93   45   47 1    
    94   47   48 1    
    95   47   49 1    
    96   47  170 1    
    97   48  171 1    
    98   48  172 1    
    99   48  173 1    
   100   49   50 am   BACKBONE|DICT|INTERRES
   101   49  174 1    
   102   50   51 2    
   103   50   52 1    
   104   52   53 1    
   105   52   54 1    
   106   52  175 1    
   107   53  176 1    
   108   53  177 1    
   109   53  178 1    
   110   54   55 am   BACKBONE|DICT|INTERRES
   111   54  179 1    
   112   55   56 2    
   113   55   57 1    
   114   57   58 1    
   115   57   59 1    
   116   57  180 1    
   117   58  181 1    
   118   58  182 1    
   119   58  183 1    
   120   59   60 am   BACKBONE|DICT|INTERRES
   121   59  184 1    
   122   60   61 2    
   123   60   62 1    
   124   62   63 1    
   125   62   64 1    
   126   62  185 1    
   127   63  186 1    
   128   63  187 1    
   129   63  188 1    
   130   64   65 am   BACKBONE|DICT|INTERRES
   131   64  189 1    
   132   65   66 2    
   133   67   68 2    
   134   67   69 am   BACKBONE|DICT|INTERRES
   135   69   70 1    
   136   69  190 1    
   137   70   71 1    
   138   70   72 1    
   139   70  191 1    
   140   71  192 1    
   141   71  193 1    
   142   71  194 1    
   143   72   73 2    
   144   72   74 am   BACKBONE|DICT|INTERRES
   145   74   75 1    
   146   74  195 1    
   147   75   76 1    
   148   75   77 1    
   149   75  196 1    
   150   76  197 1    
   151   76  198 1    
   152   76  199 1    
   153   77   78 2    
   154   77   79 am   BACKBONE|DICT|INTERRES
   155   79   80 1    
   156   79  200 1    
   157   80   81 1    
   158   80   82 1    
   159   80  201 1    
   160   81  202 1    
   161   81  203 1    
   162   81  204 1    
   163   82   83 2    
   164   82   84 am   BACKBONE|DICT|INTERRES
   165   84   85 1    
   166   84  205 1    
   167   85   86 1    
   168   85   87 1    
   169   85  206 1    
   170   86  207 1    
   171   86  208 1    
   172   86  209 1    
   173   87   88 2    
   174   87   89 am   BACKBONE|DICT|INTERRES
   175   89   90 1    
   176   89  210 1    
   177   90   91 1    
   178   90   92 1    
   179   90  211 1    
   180   91  212 1    
   181   91  213 1    
   182   91  214 1    
   183   92   93 2    
   184   92   94 am   BACKBONE|DICT|INTERRES
   185   94   95 1    
   186   94  215 1    
   187   95   96 1    
   188   95   97 1    
   189   95  216 1    
   190   96  217 1    
   191   96  218 1    
   192   96  219 1    
   193   97   98 2    
   194   97   99 am   BACKBONE|DICT|INTERRES
   195   99  100 1    
   196   99  220 1    
   197  100  101 1    
   198  100  102 1    
   199  100  221 1    
   200  101  222 1    
   201  101  223 1    
   202  101  224 1    
   203  102  103 2    
   204  102  104 am   BACKBONE|DICT|INTERRES
   205  104  105 1    
   206  104  225 1    
   207  105  106 1    
   208  105  107 1    
   209  105  226 1    
   210  106  227 1    
   211  106  228 1    
   212  106  229 1    
   213  107  108 2    
   214  107  109 am   BACKBONE|DICT|INTERRES
   215  109  110 1    
   216  109  230 1    
   217  110  111 1    
   218  110  112 1    
   219  110  231 1    
   220  111  232 1    
   221  111  233 1    
   222  111  234 1    
   223  112  113 2    
   224  112  114 am   BACKBONE|DICT|INTERRES
   225  114  115 1    
   226  114  235 1    
   227  115  116 1    
   228  115  117 1    
   229  115  236 1    
   230  116  237 1    
   231  116  238 1    
   232  116  239 1    
   233  117  118 2    
   234  117  119 am   BACKBONE|DICT|INTERRES
   235  119  120 1    
   236  119  240 1    
   237  120  121 1    
   238  120  124 1    
   239  120  241 1    
   240  121  122 am   BACKBONE|DICT|INTERRES
   241  121  123 2    
   242  122  242 1    
   243  122  243 1    
   244  124  125 1    
   245  124  244 1    
   246  124  245 1    
   247  125  126 1    
   248  126  246 1    
   249  126  247 1    
@<TRIPOS>SUBSTRUCTURE
     1 UNK         1 GROUP             0       ****    0 ROOT    
