@<TRIPOS>MOLECULE
3R540
247   249    1
SMALL
USER_CHARGES


@<TRIPOS>ATOM
      1 CA          3.8065  -18.0063  -49.5638 C.3       0 UNK        -0.1800 
      2 C           3.6668  -17.3430  -48.1960 C.2       0 UNK         0.5000 
      3 O           4.5598  -17.4971  -47.3664 O.2       0 UNK        -0.5000 
      4 N           2.5907  -16.6045  -47.9005 N.am      1 UNK        -0.5000 
      5 CA          1.4243  -16.2876  -48.7240 C.3       1 UNK         0.1400 
      6 C6          1.7830  -15.3408  -49.9147 C.3       23 UNK        -0.0398 
      7 S7          0.4669  -14.9974  -51.1418 S.3       23 UNK        -0.2404 
      8 C8          0.4058  -16.5296  -52.1276 C.3       23 UNK        -0.0205 
      9 C9         -0.2645  -17.6744  -51.3805 C.ar      23 UNK        -0.0193 
     10 C10        -1.5328  -17.5116  -50.8125 C.ar      23 UNK        -0.1150 
     11 C11        -2.1288  -18.5523  -50.0963 C.ar      23 UNK        -0.0193 
     12 C12        -1.4522  -19.7631  -49.9466 C.ar      23 UNK        -0.1150 
     13 C13        -0.1916  -19.9424  -50.5214 C.ar      23 UNK        -0.0193 
     14 C14         0.3908  -18.9012  -51.2478 C.ar      23 UNK        -0.1150 
     15 C15         0.5491  -21.2565  -50.3510 C.3       23 UNK        -0.0205 
     16 S16         1.8723  -21.1343  -49.1051 S.3       23 UNK        -0.2404 
     17 C17         0.9482  -20.7890  -47.5678 C.3       23 UNK        -0.0398 
     18 CA          0.7005  -22.0578  -46.7211 C.3       11 UNK         0.1400 
     19 N           0.4440  -21.7373  -45.3163 N.am      11 UNK        -0.5000 
     20 C           0.5586  -22.6173  -44.3126 C.2       10 UNK         0.5000 
     21 O           0.9259  -23.7820  -44.4655 O.2       10 UNK        -0.5000 
     22 CA          0.1378  -22.1306  -42.9147 C.3       10 UNK         0.1400 
     23 CB          1.3072  -21.4609  -42.1795 C.3       10 UNK        -0.1800 
     24 N          -1.0160  -21.2275  -42.9621 N.am      10 UNK        -0.5000 
     25 C          -2.2510  -21.6552  -43.2633 C.2       9 UNK         0.5000 
     26 O          -2.5111  -22.8237  -43.5538 O.2       9 UNK        -0.5000 
     27 CA         -3.3859  -20.6177  -43.2583 C.3       9 UNK         0.1400 
     28 CB         -3.8310  -20.3152  -41.8196 C.3       9 UNK        -0.1800 
     29 N          -3.0851  -19.3584  -43.9376 N.am      9 UNK        -0.5000 
     30 C          -2.6468  -19.1950  -45.1913 C.2       8 UNK         0.5000 
     31 O          -2.2738  -20.1144  -45.9170 O.2       8 UNK        -0.5000 
     32 CA         -2.6170  -17.7547  -45.7326 C.3       8 UNK         0.1400 
     33 CB         -4.0397  -17.2423  -46.0395 C.3       8 UNK        -0.1800 
     34 N          -1.8652  -16.8322  -44.8771 N.am      8 UNK        -0.5000 
     35 C          -2.1445  -16.4112  -43.6344 C.2       7 UNK         0.5000 
     36 O          -3.1949  -16.6662  -43.0415 O.2       7 UNK        -0.5000 
     37 CA         -1.0255  -15.6254  -42.9222 C.3       7 UNK         0.1400 
     38 CB         -1.2121  -15.5609  -41.3926 C.3       7 UNK        -0.1800 
     39 N           0.3162  -16.1197  -43.2501 N.am      7 UNK        -0.5000 
     40 C           0.7956  -17.3631  -43.0774 C.2       6 UNK         0.5000 
     41 O           0.1275  -18.2984  -42.6304 O.2       6 UNK        -0.5000 
     42 CA          2.2608  -17.6264  -43.4682 C.3       6 UNK         0.1400 
     43 CB          2.3496  -18.4638  -44.7529 C.3       6 UNK        -0.1800 
     44 N           3.0513  -16.4004  -43.6157 N.am      6 UNK        -0.5000 
     45 C           4.3443  -16.2925  -43.2764 C.2       5 UNK         0.5000 
     46 O           5.0242  -17.2327  -42.8619 O.2       5 UNK        -0.5000 
     47 CA          4.9938  -14.8964  -43.3941 C.3       5 UNK         0.1400 
     48 CB          5.6584  -14.7332  -44.7698 C.3       5 UNK        -0.1800 
     49 N           4.0529  -13.7936  -43.1909 N.am      5 UNK        -0.5000 
     50 C           3.3491  -13.5624  -42.0742 C.2       4 UNK         0.5000 
     51 O           3.5292  -14.1759  -41.0217 O.2       4 UNK        -0.5000 
     52 CA          2.2364  -12.4907  -42.1370 C.3       4 UNK         0.1400 
     53 CB          2.6032  -11.2857  -41.2560 C.3       4 UNK        -0.1800 
     54 N           1.8704  -11.9950  -43.4728 N.am      4 UNK        -0.5000 
     55 C           1.4580  -12.7230  -44.5189 C.2       3 UNK         0.5000 
     56 O           1.4667  -13.9567  -44.5377 O.2       3 UNK        -0.5000 
     57 CA          1.0209  -11.9307  -45.7665 C.3       3 UNK         0.1400 
     58 CB          2.2536  -11.4310  -46.5365 C.3       3 UNK        -0.1800 
     59 N           0.2091  -12.7382  -46.6747 N.am      3 UNK        -0.5000 
     60 C          -1.0169  -13.2154  -46.4183 C.2       2 UNK         0.5000 
     61 O          -1.6787  -12.9097  -45.4258 O.2       2 UNK        -0.5000 
     62 CA         -1.5920  -14.2232  -47.4357 C.3       2 UNK         0.1400 
     63 CB         -2.5842  -13.5414  -48.3891 C.3       2 UNK        -0.1800 
     64 N          -0.5631  -14.9010  -48.2286 N.am      2 UNK        -0.5000 
     65 C           0.3390  -15.7668  -47.7528 C.2       1 UNK         0.5000 
     66 O           0.3410  -16.1474  -46.5788 O.2       1 UNK        -0.5000 
     67 C          -0.4308  -22.9314  -47.2983 C.2       11 UNK         0.5000 
     68 O          -0.1529  -23.8705  -48.0424 O.2       11 UNK        -0.5000 
     69 N          -1.6828  -22.6435  -46.9164 N.am      12 UNK        -0.5000 
     70 CA         -2.8625  -23.4302  -47.2703 C.3       12 UNK         0.1400 
     71 CB         -4.1340  -22.7202  -46.7843 C.3       12 UNK        -0.1800 
     72 C          -2.7950  -24.8784  -46.7575 C.2       12 UNK         0.5000 
     73 O          -3.1701  -25.7950  -47.4876 O.2       12 UNK        -0.5000 
     74 N          -2.2738  -25.0614  -45.5379 N.am      13 UNK        -0.5000 
     75 CA         -1.9954  -26.3712  -44.9546 C.3       13 UNK         0.1400 
     76 CB         -1.7111  -26.2091  -43.4533 C.3       13 UNK        -0.1800 
     77 C          -0.8328  -27.0990  -45.6579 C.2       13 UNK         0.5000 
     78 O          -0.9512  -28.2907  -45.9448 O.2       13 UNK        -0.5000 
     79 N           0.2701  -26.3797  -45.9078 N.am      14 UNK        -0.5000 
     80 CA          1.5105  -26.9407  -46.4447 C.3       14 UNK         0.1400 
     81 CB          2.6720  -25.9807  -46.1436 C.3       14 UNK        -0.1800 
     82 C           1.4623  -27.2581  -47.9503 C.2       14 UNK         0.5000 
     83 O           1.9312  -28.3228  -48.3554 O.2       14 UNK        -0.5000 
     84 N           0.9417  -26.3211  -48.7516 N.am      15 UNK        -0.5000 
     85 CA          1.0473  -26.3177  -50.2139 C.3       15 UNK         0.1400 
     86 CB          1.7704  -25.0279  -50.6415 C.3       15 UNK        -0.1800 
     87 C          -0.3146  -26.4488  -50.9207 C.2       15 UNK         0.5000 
     88 O          -0.3678  -26.3070  -52.1426 O.2       15 UNK        -0.5000 
     89 N          -1.3867  -26.7086  -50.1578 N.am      16 UNK        -0.5000 
     90 CA         -2.7752  -26.8965  -50.6084 C.3       16 UNK         0.1400 
     91 CB         -2.8953  -28.0894  -51.5813 C.3       16 UNK        -0.1800 
     92 C          -3.4547  -25.6158  -51.1477 C.2       16 UNK         0.5000 
     93 O          -4.5077  -25.7144  -51.7797 O.2       16 UNK        -0.5000 
     94 N          -2.8680  -24.4504  -50.8339 N.am      17 UNK        -0.5000 
     95 CA         -3.3145  -23.0800  -51.1137 C.3       17 UNK         0.1400 
     96 CB         -4.7532  -22.8439  -50.6067 C.3       17 UNK        -0.1800 
     97 C          -3.1798  -22.6475  -52.5861 C.2       17 UNK         0.5000 
     98 O          -3.2527  -23.4674  -53.5028 O.2       17 UNK        -0.5000 
     99 N          -3.0150  -21.3321  -52.7790 N.am      18 UNK        -0.5000 
    100 CA        -3.0200  -20.6775  -54.0898 C.3       18 UNK         0.1400 
    101 CB        -2.2203  -19.3707  -53.9876 C.3       18 UNK        -0.1800 
    102 C         -4.4467  -20.3843  -54.5960 C.2       18 UNK         0.5000 
    103 O         -4.6363  -20.2052  -55.7996 O.2       18 UNK        -0.5000 
    104 N         -5.4113  -20.3170  -53.6655 N.am      19 UNK        -0.5000 
    105 CA        -6.8388  -20.0144  -53.8156 C.3       19 UNK         0.1400 
    106 CB        -7.5475  -21.0369  -54.7242 C.3       19 UNK        -0.1800 
    107 C         -7.1197  -18.5654  -54.2538 C.2       19 UNK         0.5000 
    108 O         -7.7704  -17.8241  -53.5157 O.2       19 UNK        -0.5000 
    109 N         -6.6043  -18.1766  -55.4263 N.am      20 UNK        -0.5000 
    110 CA        -6.7984  -16.8634  -56.0455 C.3       20 UNK         0.1400 
    111 CB        -6.2202  -16.8866  -57.4685 C.3       20 UNK        -0.1800 
    112 C         -6.1895  -15.7084  -55.2300 C.2       20 UNK         0.5000 
    113 O         -6.7920  -14.6377  -55.1471 O.2       20 UNK        -0.5000 
    114 N         -5.0207  -15.9575  -54.6250 N.am      21 UNK        -0.5000 
    115 CA        -4.3451  -15.0215  -53.7243 C.3       21 UNK         0.1400 
    116 CB        -2.8439  -15.3452  -53.7063 C.3       21 UNK        -0.1800 
    117 C         -4.9180  -15.0570  -52.2942 C.2       21 UNK         0.5000 
    118 O         -4.7540  -14.0856  -51.5555 O.2       21 UNK        -0.5000 
    119 N         -5.5548  -16.1747  -51.9240 N.am      22 UNK        -0.5000 
    120 CA        -6.1322  -16.4094  -50.5924 C.3       22 UNK         0.1400 
    121 C         -7.5205  -15.7393  -50.4141 C.2       22 UNK         0.5000 
    122 N         -8.3667  -15.7313  -51.4374 N.am      22 UNK        -0.7600 
    123 O         -7.8306  -15.2245  -49.3438 O.2       22 UNK        -0.5000 
    124 C124       -6.2142  -17.9183  -50.2283 C.3       23 UNK        -0.0398 
    125 S125       -4.7542  -18.8914  -50.7275 S.3       23 UNK        -0.2404 
    126 C126       -3.5147  -18.3763  -49.5093 C.3       23 UNK        -0.0205 
    127 H127        2.8490  -18.1832  -50.0464 H         1 UNK         0.0600 
    128 H128        4.2971  -18.9740  -49.4587 H         1 UNK         0.0600 
    129 H129        4.4191  -17.3896  -50.2209 H         1 UNK         0.0600 
    130 H130        2.4967  -16.2493  -46.9574 H         1 UNK         0.3000 
    131 H131        1.0351  -17.2292  -49.1048 H         1 UNK         0.0600 
    132 H132        2.1284  -14.3821  -49.5247 H         1 UNK         0.0800 
    133 H133        2.6297  -15.7363  -50.4735 H         1 UNK         0.0800 
    134 H134       -0.1524  -16.3384  -53.0442 H         1 UNK         0.0800 
    135 H135        1.4173  -16.7979  -52.4362 H         1 UNK         0.0800 
    136 H136       -2.0559  -16.5724  -50.9247 H         1 UNK         0.1150 
    137 H137       -1.9071  -20.5606  -49.3764 H         1 UNK         0.1150 
    138 H138        1.3661  -19.0439  -51.6912 H         1 UNK         0.1150 
    139 H139       -0.1407  -22.0568  -50.0843 H         1 UNK         0.0800 
    140 H140        0.9917  -21.5471  -51.3048 H         1 UNK         0.0800 
    141 H141        1.5708  -20.0939  -47.0052 H         1 UNK         0.0800 
    142 H142        0.0226  -20.2486  -47.7620 H         1 UNK         0.0800 
    143 H143        1.6141  -22.6561  -46.7490 H         1 UNK         0.0600 
    144 H144        0.0520  -20.8286  -45.1165 H         1 UNK         0.3000 
    145 H145       -0.1475  -23.0128  -42.3370 H         1 UNK         0.0600 
    146 H146        1.0202  -21.1661  -41.1701 H         1 UNK         0.0600 
    147 H147        2.1529  -22.1440  -42.0912 H         1 UNK         0.0600 
    148 H148        1.6597  -20.5719  -42.6978 H         1 UNK         0.0600 
    149 H149       -0.8547  -20.2473  -42.7555 H         1 UNK         0.3000 
    150 H150       -4.2324  -21.0638  -43.7831 H         1 UNK         0.0600 
    151 H151       -4.0783  -21.2326  -41.2835 H         1 UNK         0.0600 
    152 H152       -4.7188  -19.6826  -41.8066 H         1 UNK         0.0600 
    153 H153       -3.0485  -19.8044  -41.2568 H         1 UNK         0.0600 
    154 H154       -3.3068  -18.5078  -43.4268 H         1 UNK         0.3000 
    155 H155       -2.0727  -17.7892  -46.6778 H         1 UNK         0.0600 
    156 H156       -4.0185  -16.2753  -46.5398 H         1 UNK         0.0600 
    157 H157       -4.6454  -17.1372  -45.1397 H         1 UNK         0.0600 
    158 H158       -4.5706  -17.9324  -46.6952 H         1 UNK         0.0600 
    159 H159       -0.9573  -16.5708  -45.2563 H         1 UNK         0.3000 
    160 H160       -1.0790  -14.6057  -43.3050 H         1 UNK         0.0600 
    161 H161       -1.2199  -16.5552  -40.9448 H         1 UNK         0.0600 
    162 H162       -2.1540  -15.0766  -41.1328 H         1 UNK         0.0600 
    163 H163       -0.4129  -14.9876  -40.9229 H         1 UNK         0.0600 
    164 H164        0.8929  -15.4272  -43.7205 H         1 UNK         0.3000 
    165 H165        2.6766  -18.2177  -42.6497 H         1 UNK         0.0600 
    166 H166        1.9290  -17.9340  -45.6039 H         1 UNK         0.0600 
    167 H167        3.3821  -18.7189  -44.9916 H         1 UNK         0.0600 
    168 H168        1.8001  -19.3972  -44.6527 H         1 UNK         0.0600 
    169 H169        2.5717  -15.5739  -43.9532 H         1 UNK         0.3000 
    170 H170        5.7658  -14.8235  -42.6254 H         1 UNK         0.0600 
    171 H171        6.3872  -15.5251  -44.9477 H         1 UNK         0.0600 
    172 H172        4.9262  -14.7766  -45.5776 H         1 UNK         0.0600 
    173 H173        6.1871  -13.7828  -44.8442 H         1 UNK         0.0600 
    174 H174        3.8241  -13.2442  -44.0055 H         1 UNK         0.3000 
    175 H175        1.3417  -12.9553  -41.7177 H         1 UNK         0.0600 
    176 H176        3.4721  -10.7545  -41.6465 H         1 UNK         0.0600 
    177 H177        1.7769  -10.5775  -41.1897 H         1 UNK         0.0600 
    178 H178        2.8398  -11.5980  -40.2379 H         1 UNK         0.0600 
    179 H179        1.8688  -10.9897  -43.5695 H         1 UNK         0.3000 
    180 H180        0.4265  -11.0734  -45.4441 H         1 UNK         0.0600 
    181 H181        2.8791  -12.2581  -46.8754 H         1 UNK         0.0600 
    182 H182        2.8738  -10.7842  -45.9147 H         1 UNK         0.0600 
    183 H183        1.9626  -10.8506  -47.4124 H         1 UNK         0.0600 
    184 H184        0.6700  -13.0665  -47.5085 H         1 UNK         0.3000 
    185 H185       -2.1339  -14.9787  -46.8691 H         1 UNK         0.0600 
    186 H186       -3.0516  -14.2660  -49.0568 H         1 UNK         0.0600 
    187 H187       -3.3843  -13.0492  -47.8349 H         1 UNK         0.0600 
    188 H188       -2.0958  -12.7849  -49.0045 H         1 UNK         0.0600 
    189 H189       -0.5141  -14.6558  -49.2101 H         1 UNK         0.3000 
    190 H190       -1.8488  -21.8102  -46.3554 H         1 UNK         0.3000 
    191 H191       -2.8986  -23.4756  -48.3551 H         1 UNK         0.0600 
    192 H192       -4.2241  -21.7275  -47.2261 H         1 UNK         0.0600 
    193 H193       -5.0261  -23.2827  -47.0622 H         1 UNK         0.0600 
    194 H194       -4.1434  -22.6078  -45.7010 H         1 UNK         0.0600 
    195 H195       -2.0538  -24.2481  -44.9729 H         1 UNK         0.3000 
    196 H196       -2.8898  -26.9884  -45.0628 H         1 UNK         0.0600 
    197 H197       -1.5166  -27.1750  -42.9855 H         1 UNK         0.0600 
    198 H198       -2.5620  -25.7628  -42.9382 H         1 UNK         0.0600 
    199 H199       -0.8429  -25.5746  -43.2719 H         1 UNK         0.0600 
    200 H200        0.3046  -25.4122  -45.6062 H         1 UNK         0.3000 
    201 H201        1.7134  -27.8765  -45.9193 H         1 UNK         0.0600 
    202 H202        2.7881  -25.8274  -45.0705 H         1 UNK         0.0600 
    203 H203        2.5180  -25.0051  -46.6060 H         1 UNK         0.0600 
    204 H204        3.6164  -26.3771  -46.5187 H         1 UNK         0.0600 
    205 H205        0.5574  -25.4708  -48.3400 H         1 UNK         0.3000 
    206 H206        1.6497  -27.1619  -50.5543 H         1 UNK         0.0600 
    207 H207        2.7422  -24.9410  -50.1555 H         1 UNK         0.0600 
    208 H208        1.9451  -25.0089  -51.7178 H         1 UNK         0.0600 
    209 H209        1.1911  -24.1410  -50.3873 H         1 UNK         0.0600 
    210 H210       -1.2407  -26.7858  -49.1601 H         1 UNK         0.3000 
    211 H211       -3.3374  -27.1680  -49.7147 H         1 UNK         0.0600 
    212 H212       -2.4501  -27.8707  -52.5520 H         1 UNK         0.0600 
    213 H213       -3.9406  -28.3462  -51.7564 H         1 UNK         0.0600 
    214 H214       -2.4088  -28.9780  -51.1793 H         1 UNK         0.0600 
    215 H215       -1.9895  -24.5230  -50.3411 H         1 UNK         0.3000 
    216 H216       -2.6481  -22.4457  -50.5302 H         1 UNK         0.0600 
    217 H217       -4.8997  -23.2384  -49.6025 H         1 UNK         0.0600 
    218 H218       -5.4934  -23.3133  -51.2555 H         1 UNK         0.0600 
    219 H219       -4.9880  -21.7815  -50.5715 H         1 UNK         0.0600 
    220 H220       -2.9379  -20.7182  -51.9800 H         1 UNK         0.3000 
    221 H221       -2.5306  -21.3230  -54.8222 H         1 UNK         0.0600 
    222 H222       -2.6512  -18.6990  -53.2455 H         1 UNK         0.0600 
    223 H223       -1.1860  -19.5641  -53.7034 H         1 UNK         0.0600 
    224 H224       -2.2012  -18.8421  -54.9415 H         1 UNK         0.0600 
    225 H225       -5.1140  -20.4339  -52.7073 H         1 UNK         0.3000 
    226 H226       -7.2659  -20.1238  -52.8173 H         1 UNK         0.0600 
    227 H227       -7.4039  -22.0529  -54.3564 H         1 UNK         0.0600 
    228 H228       -8.6217  -20.8504  -54.7528 H         1 UNK         0.0600 
    229 H229       -7.1846  -20.9998  -55.7515 H         1 UNK         0.0600 
    230 H230       -6.0238  -18.8452  -55.9245 H         1 UNK         0.3000 
    231 H231       -7.8734  -16.6852  -56.1167 H         1 UNK         0.0600 
    232 H232       -6.3617  -15.9253  -57.9643 H         1 UNK         0.0600 
    233 H233       -6.7118  -17.6428  -58.0808 H         1 UNK         0.0600 
    234 H234       -5.1508  -17.1015  -57.4652 H         1 UNK         0.0600 
    235 H235       -4.5890  -16.8591  -54.7615 H         1 UNK         0.3000 
    236 H236       -4.4674  -14.0052  -54.1050 H         1 UNK         0.0600 
    237 H237       -2.4082  -15.2581  -54.7016 H         1 UNK         0.0600 
    238 H238       -2.3025  -14.6590  -53.0534 H         1 UNK         0.0600 
    239 H239       -2.6571  -16.3556  -53.3454 H         1 UNK         0.0600 
    240 H240       -5.6830  -16.9109  -52.6001 H         1 UNK         0.3000 
    241 H241       -5.4674  -15.9429  -49.8628 H         1 UNK         0.0600 
    242 H242       -8.1403  -16.2285  -52.2920 H         1 UNK         0.3800 
    243 H243       -9.2695  -15.2959  -51.3354 H         1 UNK         0.3800 
    244 H244       -7.0752  -18.3796  -50.7157 H         1 UNK         0.0800 
    245 H245       -6.3735  -18.0426  -49.1558 H         1 UNK         0.0800 
    246 H246       -3.6638  -17.3352  -49.2214 H         1 UNK         0.0800 
    247 H247       -3.6254  -18.9766  -48.6054 H         1 UNK         0.0800 
@<TRIPOS>BOND
     1    1    2 1    
     2    1  127 1    
     3    1  128 1    
     4    1  129 1    
     5    2    3 2    
     6    2    4 am   BACKBONE|DICT|INTERRES
     7    4    5 1    
     8    4  130 1    
     9    5    6 1    
    10    5   65 1    
    11    5  131 1    
    12    6    7 1    
    13    6  132 1    
    14    6  133 1    
    15    7    8 1    
    16    8    9 1    
    17    8  134 1    
    18    8  135 1    
    19    9   10 ar   
    20    9   14 ar   
    21   10   11 ar   
    22   10  136 1    
    23   11   12 ar   
    24   11  126 1    
    25   12   13 ar   
    26   12  137 1    
    27   13   14 ar   
    28   13   15 1    
    29   14  138 1    
    30   15   16 1    
    31   15  139 1    
    32   15  140 1    
    33   16   17 1    
    34   17   18 1    
    35   17  141 1    
    36   17  142 1    
    37   18   19 1    
    38   18   67 1    
    39   18  143 1    
    40   19   20 am   BACKBONE|DICT|INTERRES
    41   19  144 1    
    42   20   21 2    
    43   20   22 1    
    44   22   23 1    
    45   22   24 1    
    46   22  145 1    
    47   23  146 1    
    48   23  147 1    
    49   23  148 1    
    50   24   25 am   BACKBONE|DICT|INTERRES
    51   24  149 1    
    52   25   26 2    
    53   25   27 1    
    54   27   28 1    
    55   27   29 1    
    56   27  150 1    
    57   28  151 1    
    58   28  152 1    
    59   28  153 1    
    60   29   30 am   BACKBONE|DICT|INTERRES
    61   29  154 1    
    62   30   31 2    
    63   30   32 1    
    64   32   33 1    
    65   32   34 1    
    66   32  155 1    
    67   33  156 1    
    68   33  157 1    
    69   33  158 1    
    70   34   35 am   BACKBONE|DICT|INTERRES
    71   34  159 1    
    72   35   36 2    
    73   35   37 1    
    74   37   38 1    
    75   37   39 1    
    76   37  160 1    
    77   38  161 1    
    78   38  162 1    
    79   38  163 1    
    80   39   40 am   BACKBONE|DICT|INTERRES
    81   39  164 1    
    82   40   41 2    
    83   40   42 1    
    84   42   43 1    
    85   42   44 1    
    86   42  165 1    
    87   43  166 1    
    88   43  167 1    
    89   43  168 1    
    90   44   45 am   BACKBONE|DICT|INTERRES
    91   44  169 1    
    92   45   46 2    
    93   45   47 1    
    94   47   48 1    
    95   47   49 1    
    96   47  170 1    
    97   48  171 1    
    98   48  172 1    
    99   48  173 1    
   100   49   50 am   BACKBONE|DICT|INTERRES
   101   49  174 1    
   102   50   51 2    
   103   50   52 1    
   104   52   53 1    
   105   52   54 1    
   106   52  175 1    
   107   53  176 1    
   108   53  177 1    
   109   53  178 1    
   110   54   55 am   BACKBONE|DICT|INTERRES
   111   54  179 1    
   112   55   56 2    
   113   55   57 1    
   114   57   58 1    
   115   57   59 1    
   116   57  180 1    
   117   58  181 1    
   118   58  182 1    
   119   58  183 1    
   120   59   60 am   BACKBONE|DICT|INTERRES
   121   59  184 1    
   122   60   61 2    
   123   60   62 1    
   124   62   63 1    
   125   62   64 1    
   126   62  185 1    
   127   63  186 1    
   128   63  187 1    
   129   63  188 1    
   130   64   65 am   BACKBONE|DICT|INTERRES
   131   64  189 1    
   132   65   66 2    
   133   67   68 2    
   134   67   69 am   BACKBONE|DICT|INTERRES
   135   69   70 1    
   136   69  190 1    
   137   70   71 1    
   138   70   72 1    
   139   70  191 1    
   140   71  192 1    
   141   71  193 1    
   142   71  194 1    
   143   72   73 2    
   144   72   74 am   BACKBONE|DICT|INTERRES
   145   74   75 1    
   146   74  195 1    
   147   75   76 1    
   148   75   77 1    
   149   75  196 1    
   150   76  197 1    
   151   76  198 1    
   152   76  199 1    
   153   77   78 2    
   154   77   79 am   BACKBONE|DICT|INTERRES
   155   79   80 1    
   156   79  200 1    
   157   80   81 1    
   158   80   82 1    
   159   80  201 1    
   160   81  202 1    
   161   81  203 1    
   162   81  204 1    
   163   82   83 2    
   164   82   84 am   BACKBONE|DICT|INTERRES
   165   84   85 1    
   166   84  205 1    
   167   85   86 1    
   168   85   87 1    
   169   85  206 1    
   170   86  207 1    
   171   86  208 1    
   172   86  209 1    
   173   87   88 2    
   174   87   89 am   BACKBONE|DICT|INTERRES
   175   89   90 1    
   176   89  210 1    
   177   90   91 1    
   178   90   92 1    
   179   90  211 1    
   180   91  212 1    
   181   91  213 1    
   182   91  214 1    
   183   92   93 2    
   184   92   94 am   BACKBONE|DICT|INTERRES
   185   94   95 1    
   186   94  215 1    
   187   95   96 1    
   188   95   97 1    
   189   95  216 1    
   190   96  217 1    
   191   96  218 1    
   192   96  219 1    
   193   97   98 2    
   194   97   99 am   BACKBONE|DICT|INTERRES
   195   99  100 1    
   196   99  220 1    
   197  100  101 1    
   198  100  102 1    
   199  100  221 1    
   200  101  222 1    
   201  101  223 1    
   202  101  224 1    
   203  102  103 2    
   204  102  104 am   BACKBONE|DICT|INTERRES
   205  104  105 1    
   206  104  225 1    
   207  105  106 1    
   208  105  107 1    
   209  105  226 1    
   210  106  227 1    
   211  106  228 1    
   212  106  229 1    
   213  107  108 2    
   214  107  109 am   BACKBONE|DICT|INTERRES
   215  109  110 1    
   216  109  230 1    
   217  110  111 1    
   218  110  112 1    
   219  110  231 1    
   220  111  232 1    
   221  111  233 1    
   222  111  234 1    
   223  112  113 2    
   224  112  114 am   BACKBONE|DICT|INTERRES
   225  114  115 1    
   226  114  235 1    
   227  115  116 1    
   228  115  117 1    
   229  115  236 1    
   230  116  237 1    
   231  116  238 1    
   232  116  239 1    
   233  117  118 2    
   234  117  119 am   BACKBONE|DICT|INTERRES
   235  119  120 1    
   236  119  240 1    
   237  120  121 1    
   238  120  124 1    
   239  120  241 1    
   240  121  122 am   BACKBONE|DICT|INTERRES
   241  121  123 2    
   242  122  242 1    
   243  122  243 1    
   244  124  125 1    
   245  124  244 1    
   246  124  245 1    
   247  125  126 1    
   248  126  246 1    
   249  126  247 1    
@<TRIPOS>SUBSTRUCTURE
     1 UNK         1 GROUP             0       ****    0 ROOT    
