@<TRIPOS>MOLECULE
3R540
247   249    1
SMALL
USER_CHARGES


@<TRIPOS>ATOM
      1 CA          8.2364  -14.2296  -49.0522 C.3       0 UNK        -0.1800 
      2 C           6.9299  -13.5853  -48.6103 C.2       0 UNK         0.5000 
      3 O           6.7218  -12.3980  -48.8601 O.2       0 UNK        -0.5000 
      4 N           6.0588  -14.3660  -47.9558 N.am      1 UNK        -0.5000 
      5 CA          4.7412  -13.9663  -47.4403 C.3       1 UNK         0.1400 
      6 C6          3.7104  -13.6096  -48.5481 C.3       23 UNK        -0.0398 
      7 S7          3.3692  -14.9919  -49.6930 S.3       23 UNK        -0.2404 
      8 C8          1.9142  -15.7523  -48.9060 C.3       23 UNK        -0.0205 
      9 C9          1.1198  -16.6027  -49.8861 C.ar      23 UNK        -0.0193 
     10 C10         0.1118  -16.0151  -50.6536 C.ar      23 UNK        -0.1150 
     11 C11        -0.6713  -16.7909  -51.5105 C.ar      23 UNK        -0.0193 
     12 C12        -0.4472  -18.1672  -51.5871 C.ar      23 UNK        -0.1150 
     13 C13         0.5596  -18.7776  -50.8327 C.ar      23 UNK        -0.0193 
     14 C14         1.3552  -17.9772  -49.9965 C.ar      23 UNK        -0.1150 
     15 C15         0.7212  -20.2978  -50.9613 C.3       23 UNK        -0.0205 
     16 S16         1.8759  -21.1044  -49.7958 S.3       23 UNK        -0.2404 
     17 C17         1.0897  -20.7190  -48.1965 C.3       23 UNK        -0.0398 
     18 CA          0.6347  -21.9391  -47.3670 C.3       11 UNK         0.1400 
     19 N           0.2442  -21.5230  -46.0210 N.am      11 UNK        -0.5000 
     20 C          -0.0726  -22.3339  -45.0047 C.2       10 UNK         0.5000 
     21 O          -0.0369  -23.5627  -45.0682 O.2       10 UNK        -0.5000 
     22 CA         -0.5504  -21.6473  -43.7120 C.3       10 UNK         0.1400 
     23 CB          0.6415  -21.1113  -42.9049 C.3       10 UNK        -0.1800 
     24 N          -1.4929  -20.5566  -43.9702 N.am      10 UNK        -0.5000 
     25 C          -2.7050  -20.7176  -44.5205 C.2       9 UNK         0.5000 
     26 O          -3.1704  -21.8106  -44.8441 O.2       9 UNK        -0.5000 
     27 CA         -3.5146  -19.4385  -44.7993 C.3       9 UNK         0.1400 
     28 CB         -4.1314  -18.8785  -43.5088 C.3       9 UNK        -0.1800 
     29 N          -2.7158  -18.4032  -45.4548 N.am      9 UNK        -0.5000 
     30 C          -2.1876  -18.5231  -46.6814 C.2       8 UNK         0.5000 
     31 O          -2.3327  -19.5120  -47.3972 O.2       8 UNK        -0.5000 
     32 CA         -1.3079  -17.3651  -47.1759 C.3       8 UNK         0.1400 
     33 CB         -2.1776  -16.2228  -47.7190 C.3       8 UNK        -0.1800 
     34 N          -0.4034  -16.8572  -46.1442 N.am      8 UNK        -0.5000 
     35 C           0.5460  -17.5847  -45.5383 C.2       7 UNK         0.5000 
     36 O           0.7769  -18.7622  -45.7996 O.2       7 UNK        -0.5000 
     37 CA          1.3393  -16.9064  -44.4124 C.3       7 UNK         0.1400 
     38 CB          2.3982  -15.9578  -44.9888 C.3       7 UNK        -0.1800 
     39 N           0.4781  -16.1892  -43.4755 N.am      7 UNK        -0.5000 
     40 C          -0.4782  -16.7584  -42.7274 C.2       6 UNK         0.5000 
     41 O          -0.7354  -17.9631  -42.7372 O.2       6 UNK        -0.5000 
     42 CA         -1.3098  -15.8120  -41.8485 C.3       6 UNK         0.1400 
     43 CB         -0.5696  -15.4839  -40.5427 C.3       6 UNK        -0.1800 
     44 N          -1.6259  -14.5736  -42.5576 N.am      6 UNK        -0.5000 
     45 C          -2.5704  -14.4684  -43.5015 C.2       5 UNK         0.5000 
     46 O          -3.3086  -15.3951  -43.8381 O.2       5 UNK        -0.5000 
     47 CA         -2.6886  -13.1038  -44.2070 C.3       5 UNK         0.1400 
     48 CB         -3.5360  -12.1325  -43.3713 C.3       5 UNK        -0.1800 
     49 N          -1.3903  -12.4893  -44.4967 N.am      5 UNK        -0.5000 
     50 C          -0.4950  -13.0005  -45.3519 C.2       4 UNK         0.5000 
     51 O          -0.6632  -14.0479  -45.9723 O.2       4 UNK        -0.5000 
     52 CA          0.8263  -12.2374  -45.5348 C.3       4 UNK         0.1400 
     53 CB          0.6451  -11.0942  -46.5447 C.3       4 UNK        -0.1800 
     54 N           1.4536  -11.7145  -44.3171 N.am      4 UNK        -0.5000 
     55 C           1.6454  -12.3581  -43.1558 C.2       3 UNK         0.5000 
     56 O           1.1340  -13.4411  -42.8671 O.2       3 UNK        -0.5000 
     57 CA          2.6476  -11.6821  -42.1970 C.3       3 UNK         0.1400 
     58 CB          2.7312  -12.3686  -40.8167 C.3       3 UNK        -0.1800 
     59 N           3.9681  -11.5757  -42.8370 N.am      3 UNK        -0.5000 
     60 C           4.7345  -12.5948  -43.2564 C.2       2 UNK         0.5000 
     61 O           4.5369  -13.7781  -42.9753 O.2       2 UNK        -0.5000 
     62 CA          5.9032  -12.2448  -44.1964 C.3       2 UNK         0.1400 
     63 CB          7.2584  -12.5131  -43.5240 C.3       2 UNK        -0.1800 
     64 N           5.8013  -13.0428  -45.4204 N.am      2 UNK        -0.5000 
     65 C           4.8461  -12.8760  -46.3471 C.2       1 UNK         0.5000 
     66 O           4.0688  -11.9202  -46.3448 O.2       1 UNK        -0.5000 
     67 C          -0.4854  -22.7420  -48.0560 C.2       11 UNK         0.5000 
     68 O          -0.2214  -23.8421  -48.5369 O.2       11 UNK        -0.5000 
     69 N          -1.7199  -22.2178  -48.0376 N.am      12 UNK        -0.5000 
     70 CA         -2.9075  -22.8831  -48.5739 C.3       12 UNK         0.1400 
     71 CB         -4.1117  -21.9339  -48.5065 C.3       12 UNK        -0.1800 
     72 C          -3.2274  -24.2093  -47.8640 C.2       12 UNK         0.5000 
     73 O          -3.5839  -25.1766  -48.5346 O.2       12 UNK        -0.5000 
     74 N          -3.0696  -24.2504  -46.5333 N.am      13 UNK        -0.5000 
     75 CA         -3.2304  -25.4619  -45.7286 C.3       13 UNK         0.1400 
     76 CB         -3.1839  -25.1094  -44.2342 C.3       13 UNK        -0.1800 
     77 C          -2.1889  -26.5405  -46.0793 C.2       13 UNK         0.5000 
     78 O          -2.5615  -27.6948  -46.2929 O.2       13 UNK        -0.5000 
     79 N          -0.9136  -26.1387  -46.1787 N.am      14 UNK        -0.5000 
     80 CA          0.2051  -27.0020  -46.5655 C.3       14 UNK         0.1400 
     81 CB          1.5263  -26.2465  -46.3568 C.3       14 UNK        -0.1800 
     82 C           0.0979  -27.5208  -48.0126 C.2       14 UNK         0.5000 
     83 O           0.4193  -28.6813  -48.2697 O.2       14 UNK        -0.5000 
     84 N          -0.3763  -26.6613  -48.9227 N.am      15 UNK        -0.5000 
     85 CA         -0.5892  -26.9557  -50.3403 C.3       15 UNK         0.1400 
     86 CB         -0.5109  -25.6390  -51.1281 C.3       15 UNK        -0.1800 
     87 C          -1.9106  -27.6992  -50.6325 C.2       15 UNK         0.5000 
     88 O          -2.1876  -27.9789  -51.7989 O.2       15 UNK        -0.5000 
     89 N          -2.7014  -28.0048  -49.5925 N.am      16 UNK        -0.5000 
     90 CA         -3.9786  -28.7256  -49.6288 C.3       16 UNK         0.1400 
     91 CB         -3.7673  -30.1928  -50.0580 C.3       16 UNK        -0.1800 
     92 C          -5.0538  -27.9945  -50.4606 C.2       16 UNK         0.5000 
     93 O          -5.6803  -28.5896  -51.3388 O.2       16 UNK        -0.5000 
     94 N          -5.2294  -26.7026  -50.1554 N.am      17 UNK        -0.5000 
     95 CA         -6.1823  -25.7422  -50.7225 C.3       17 UNK         0.1400 
     96 CB         -7.6362  -26.2519  -50.6427 C.3       17 UNK        -0.1800 
     97 C          -5.8156  -25.2209  -52.1255 C.2       17 UNK         0.5000 
     98 O          -6.5696  -24.4192  -52.6801 O.2       17 UNK        -0.5000 
     99 N          -4.6573  -25.6206  -52.6672 N.am      18 UNK        -0.5000 
    100 CA        -4.0711  -25.0027  -53.8557 C.3       18 UNK         0.1400 
    101 CB        -2.9936  -25.9255  -54.4406 C.3       18 UNK        -0.1800 
    102 C         -3.4901  -23.6206  -53.5017 C.2       18 UNK         0.5000 
    103 O         -2.9654  -23.4431  -52.4007 O.2       18 UNK        -0.5000 
    104 N         -3.6148  -22.6679  -54.4363 N.am      19 UNK        -0.5000 
    105 CA        -3.1919  -21.2622  -54.3306 C.3       19 UNK         0.1400 
    106 CB        -1.6615  -21.1543  -54.1591 C.3       19 UNK        -0.1800 
    107 C         -3.9577  -20.4395  -53.2674 C.2       19 UNK         0.5000 
    108 O         -3.5367  -19.3309  -52.9400 O.2       19 UNK        -0.5000 
    109 N         -5.0898  -20.9635  -52.7750 N.am      20 UNK        -0.5000 
    110 CA        -5.9312  -20.3475  -51.7437 C.3       20 UNK         0.1400 
    111 CB        -6.8616  -21.4253  -51.1663 C.3       20 UNK        -0.1800 
    112 C         -6.7543  -19.1398  -52.2379 C.2       20 UNK         0.5000 
    113 O         -7.3627  -18.4493  -51.4187 O.2       20 UNK        -0.5000 
    114 N         -6.7669  -18.9044  -53.5581 N.am      21 UNK        -0.5000 
    115 CA        -7.5240  -17.8601  -54.2550 C.3       21 UNK         0.1400 
    116 CB        -7.2714  -17.9950  -55.7647 C.3       21 UNK        -0.1800 
    117 C         -7.2369  -16.4177  -53.7892 C.2       21 UNK         0.5000 
    118 O         -8.0933  -15.5508  -53.9704 O.2       21 UNK        -0.5000 
    119 N         -6.0621  -16.1842  -53.1893 N.am      22 UNK        -0.5000 
    120 CA        -5.7080  -14.9187  -52.5288 C.3       22 UNK         0.1400 
    121 C         -6.4159  -14.6700  -51.1610 C.2       22 UNK         0.5000 
    122 N         -7.1028  -15.6419  -50.5701 N.am      22 UNK        -0.7600 
    123 O         -6.3555  -13.5623  -50.6340 O.2       22 UNK        -0.5000 
    124 C124       -4.1736  -14.7224  -52.4403 C.3       23 UNK        -0.0398 
    125 S125       -3.3083  -15.9723  -51.4262 S.3       23 UNK        -0.2404 
    126 C126       -1.7537  -16.1368  -52.3534 C.3       23 UNK        -0.0205 
    127 H127        8.2872  -15.2813  -48.7689 H         1 UNK         0.0600 
    128 H128        9.0819  -13.7138  -48.5971 H         1 UNK         0.0600 
    129 H129        8.3387  -14.1646  -50.1354 H         1 UNK         0.0600 
    130 H130        6.3032  -15.3337  -47.7982 H         1 UNK         0.3000 
    131 H131        4.3545  -14.8435  -46.9213 H         1 UNK         0.0600 
    132 H132        2.7652  -13.2855  -48.1109 H         1 UNK         0.0800 
    133 H133        4.0636  -12.7615  -49.1360 H         1 UNK         0.0800 
    134 H134        2.2399  -16.3591  -48.0604 H         1 UNK         0.0800 
    135 H135        1.2600  -14.9823  -48.4934 H         1 UNK         0.0800 
    136 H136       -0.0719  -14.9527  -50.5755 H         1 UNK         0.1150 
    137 H137       -1.0664  -18.7682  -52.2374 H         1 UNK         0.1150 
    138 H138        2.1465  -18.4131  -49.4058 H         1 UNK         0.1150 
    139 H139       -0.2570  -20.7691  -50.8480 H         1 UNK         0.0800 
    140 H140        1.0533  -20.5225  -51.9757 H         1 UNK         0.0800 
    141 H141        0.2547  -20.0325  -48.3403 H         1 UNK         0.0800 
    142 H142        1.8384  -20.1640  -47.6311 H         1 UNK         0.0800 
    143 H143        1.4919  -22.6063  -47.2547 H         1 UNK         0.0600 
    144 H144        0.2282  -20.5182  -45.8596 H         1 UNK         0.3000 
    145 H145       -1.0630  -22.3978  -43.1068 H         1 UNK         0.0600 
    146 H146        0.3151  -20.6944  -41.9519 H         1 UNK         0.0600 
    147 H147        1.3554  -21.9064  -42.6863 H         1 UNK         0.0600 
    148 H148        1.1744  -20.3280  -43.4452 H         1 UNK         0.0600 
    149 H149       -1.1915  -19.6212  -43.7117 H         1 UNK         0.3000 
    150 H150       -4.3306  -19.7051  -45.4743 H         1 UNK         0.0600 
    151 H151       -4.7542  -19.6272  -43.0178 H         1 UNK         0.0600 
    152 H152       -4.7635  -18.0150  -43.7174 H         1 UNK         0.0600 
    153 H153       -3.3685  -18.5672  -42.7951 H         1 UNK         0.0600 
    154 H154       -2.5381  -17.5595  -44.9269 H         1 UNK         0.3000 
    155 H155       -0.6988  -17.7463  -47.9959 H         1 UNK         0.0600 
    156 H156       -1.5670  -15.4533  -48.1911 H         1 UNK         0.0600 
    157 H157       -2.7623  -15.7500  -46.9288 H         1 UNK         0.0600 
    158 H158       -2.8756  -16.5889  -48.4725 H         1 UNK         0.0600 
    159 H159       -0.5150  -15.8766  -45.8948 H         1 UNK         0.3000 
    160 H160        1.8550  -17.6872  -43.8496 H         1 UNK         0.0600 
    161 H161        1.9503  -15.1758  -45.5998 H         1 UNK         0.0600 
    162 H162        3.1043  -16.5040  -45.6149 H         1 UNK         0.0600 
    163 H163        2.9694  -15.4794  -44.1948 H         1 UNK         0.0600 
    164 H164        0.6430  -15.1911  -43.3706 H         1 UNK         0.3000 
    165 H165       -2.2415  -16.3208  -41.5917 H         1 UNK         0.0600 
    166 H166        0.3745  -14.9704  -40.7285 H         1 UNK         0.0600 
    167 H167       -1.1748  -14.8480  -39.8966 H         1 UNK         0.0600 
    168 H168       -0.3437  -16.3935  -39.9850 H         1 UNK         0.0600 
    169 H169       -0.9950  -13.7961  -42.4116 H         1 UNK         0.3000 
    170 H170       -3.2004  -13.2690  -45.1576 H         1 UNK         0.0600 
    171 H171       -4.5169  -12.5578  -43.1548 H         1 UNK         0.0600 
    172 H172       -3.0609  -11.9003  -42.4175 H         1 UNK         0.0600 
    173 H173       -3.6999  -11.1948  -43.9025 H         1 UNK         0.0600 
    174 H174       -1.1655  -11.6324  -44.0131 H         1 UNK         0.3000 
    175 H175        1.5378  -12.9422  -45.9648 H         1 UNK         0.0600 
    176 H176       -0.0057  -10.3114  -46.1536 H         1 UNK         0.0600 
    177 H177        1.6016  -10.6387  -46.8018 H         1 UNK         0.0600 
    178 H178        0.2026  -11.4577  -47.4733 H         1 UNK         0.0600 
    179 H179        1.9408  -10.8392  -44.4404 H         1 UNK         0.3000 
    180 H180        2.2922  -10.6636  -42.0338 H         1 UNK         0.0600 
    181 H181        3.0214  -13.4167  -40.8914 H         1 UNK         0.0600 
    182 H182        1.7644  -12.3389  -40.3130 H         1 UNK         0.0600 
    183 H183        3.4511  -11.8668  -40.1703 H         1 UNK         0.0600 
    184 H184        4.2319  -10.6424  -43.1209 H         1 UNK         0.3000 
    185 H185        5.8538  -11.1868  -44.4628 H         1 UNK         0.0600 
    186 H186        8.0850  -12.2490  -44.1839 H         1 UNK         0.0600 
    187 H187        7.3653  -11.9200  -42.6150 H         1 UNK         0.0600 
    188 H188        7.3717  -13.5620  -43.2468 H         1 UNK         0.0600 
    189 H189        6.3963  -13.8559  -45.4789 H         1 UNK         0.3000 
    190 H190       -1.8667  -21.2920  -47.6408 H         1 UNK         0.3000 
    191 H191       -2.7139  -23.1115  -49.6240 H         1 UNK         0.0600 
    192 H192       -3.9521  -21.0543  -49.1299 H         1 UNK         0.0600 
    193 H193       -5.0180  -22.4265  -48.8578 H         1 UNK         0.0600 
    194 H194       -4.2986  -21.5937  -47.4874 H         1 UNK         0.0600 
    195 H195       -2.8265  -23.3985  -46.0374 H         1 UNK         0.3000 
    196 H196       -4.2183  -25.8744  -45.9442 H         1 UNK         0.0600 
    197 H197       -3.3174  -25.9998  -43.6187 H         1 UNK         0.0600 
    198 H198       -3.9775  -24.4101  -43.9709 H         1 UNK         0.0600 
    199 H199       -2.2338  -24.6554  -43.9533 H         1 UNK         0.0600 
    200 H200       -0.6863  -25.1715  -45.9633 H         1 UNK         0.3000 
    201 H201        0.2014  -27.8693  -45.9022 H         1 UNK         0.0600 
    202 H202        1.6490  -25.9485  -45.3154 H         1 UNK         0.0600 
    203 H203        1.5750  -25.3452  -46.9691 H         1 UNK         0.0600 
    204 H204        2.3808  -26.8709  -46.6203 H         1 UNK         0.0600 
    205 H205       -0.5502  -25.6999  -48.6382 H         1 UNK         0.3000 
    206 H206        0.2224  -27.5991  -50.6857 H         1 UNK         0.0600 
    207 H207        0.4156  -25.1051  -50.9164 H         1 UNK         0.0600 
    208 H208       -0.5336  -25.8190  -52.2018 H         1 UNK         0.0600 
    209 H209       -1.3420  -24.9774  -50.8816 H         1 UNK         0.0600 
    210 H210       -2.4047  -27.6952  -48.6761 H         1 UNK         0.3000 
    211 H211       -4.3466  -28.7377  -48.6018 H         1 UNK         0.0600 
    212 H212       -3.4323  -30.2712  -51.0926 H         1 UNK         0.0600 
    213 H213       -4.6942  -30.7609  -49.9716 H         1 UNK         0.0600 
    214 H214       -3.0262  -30.6840  -49.4275 H         1 UNK         0.0600 
    215 H215       -4.5981  -26.2931  -49.4656 H         1 UNK         0.3000 
    216 H216       -6.1176  -24.8699  -50.0705 H         1 UNK         0.0600 
    217 H217       -7.8788  -26.6008  -49.6390 H         1 UNK         0.0600 
    218 H218       -7.8209  -27.0698  -51.3392 H         1 UNK         0.0600 
    219 H219       -8.3408  -25.4562  -50.8870 H         1 UNK         0.0600 
    220 H220       -4.0720  -26.2604  -52.1486 H         1 UNK         0.3000 
    221 H221       -4.8542  -24.8787  -54.6069 H         1 UNK         0.0600 
    222 H222       -2.1695  -26.0739  -53.7455 H         1 UNK         0.0600 
    223 H223       -3.4035  -26.9055  -54.6853 H         1 UNK         0.0600 
    224 H224       -2.5769  -25.5071  -55.3575 H         1 UNK         0.0600 
    225 H225       -4.0668  -22.9128  -55.3069 H         1 UNK         0.3000 
    226 H226       -3.4418  -20.8061  -55.2894 H         1 UNK         0.0600 
    227 H227       -1.3378  -21.4915  -53.1741 H         1 UNK         0.0600 
    228 H228       -1.1368  -21.7488  -54.9068 H         1 UNK         0.0600 
    229 H229       -1.3268  -20.1231  -54.2756 H         1 UNK         0.0600 
    230 H230       -5.3748  -21.8768  -53.0989 H         1 UNK         0.3000 
    231 H231       -5.2813  -19.9891  -50.9429 H         1 UNK         0.0600 
    232 H232       -7.4386  -21.0376  -50.3259 H         1 UNK         0.0600 
    233 H233       -6.2969  -22.2834  -50.8045 H         1 UNK         0.0600 
    234 H234       -7.5695  -21.7864  -51.9136 H         1 UNK         0.0600 
    235 H235       -6.2283  -19.5268  -54.1411 H         1 UNK         0.3000 
    236 H236       -8.5826  -18.0505  -54.0674 H         1 UNK         0.0600 
    237 H237       -7.5723  -18.9770  -56.1303 H         1 UNK         0.0600 
    238 H238       -7.8420  -17.2535  -56.3256 H         1 UNK         0.0600 
    239 H239       -6.2180  -17.8523  -56.0091 H         1 UNK         0.0600 
    240 H240       -5.4164  -16.9506  -53.0609 H         1 UNK         0.3000 
    241 H241       -6.0719  -14.1179  -53.1757 H         1 UNK         0.0600 
    242 H242       -7.1612  -16.5711  -50.9763 H         1 UNK         0.3800 
    243 H243       -7.5591  -15.4575  -49.6914 H         1 UNK         0.3800 
    244 H244       -3.9381  -13.7347  -52.0404 H         1 UNK         0.0800 
    245 H245       -3.7596  -14.7348  -53.4494 H         1 UNK         0.0800 
    246 H246       -1.9357  -16.7177  -53.2592 H         1 UNK         0.0800 
    247 H247       -1.4125  -15.1524  -52.6779 H         1 UNK         0.0800 
@<TRIPOS>BOND
     1    1    2 1    
     2    1  127 1    
     3    1  128 1    
     4    1  129 1    
     5    2    3 2    
     6    2    4 am   BACKBONE|DICT|INTERRES
     7    4    5 1    
     8    4  130 1    
     9    5    6 1    
    10    5   65 1    
    11    5  131 1    
    12    6    7 1    
    13    6  132 1    
    14    6  133 1    
    15    7    8 1    
    16    8    9 1    
    17    8  134 1    
    18    8  135 1    
    19    9   10 ar   
    20    9   14 ar   
    21   10   11 ar   
    22   10  136 1    
    23   11   12 ar   
    24   11  126 1    
    25   12   13 ar   
    26   12  137 1    
    27   13   14 ar   
    28   13   15 1    
    29   14  138 1    
    30   15   16 1    
    31   15  139 1    
    32   15  140 1    
    33   16   17 1    
    34   17   18 1    
    35   17  141 1    
    36   17  142 1    
    37   18   19 1    
    38   18   67 1    
    39   18  143 1    
    40   19   20 am   BACKBONE|DICT|INTERRES
    41   19  144 1    
    42   20   21 2    
    43   20   22 1    
    44   22   23 1    
    45   22   24 1    
    46   22  145 1    
    47   23  146 1    
    48   23  147 1    
    49   23  148 1    
    50   24   25 am   BACKBONE|DICT|INTERRES
    51   24  149 1    
    52   25   26 2    
    53   25   27 1    
    54   27   28 1    
    55   27   29 1    
    56   27  150 1    
    57   28  151 1    
    58   28  152 1    
    59   28  153 1    
    60   29   30 am   BACKBONE|DICT|INTERRES
    61   29  154 1    
    62   30   31 2    
    63   30   32 1    
    64   32   33 1    
    65   32   34 1    
    66   32  155 1    
    67   33  156 1    
    68   33  157 1    
    69   33  158 1    
    70   34   35 am   BACKBONE|DICT|INTERRES
    71   34  159 1    
    72   35   36 2    
    73   35   37 1    
    74   37   38 1    
    75   37   39 1    
    76   37  160 1    
    77   38  161 1    
    78   38  162 1    
    79   38  163 1    
    80   39   40 am   BACKBONE|DICT|INTERRES
    81   39  164 1    
    82   40   41 2    
    83   40   42 1    
    84   42   43 1    
    85   42   44 1    
    86   42  165 1    
    87   43  166 1    
    88   43  167 1    
    89   43  168 1    
    90   44   45 am   BACKBONE|DICT|INTERRES
    91   44  169 1    
    92   45   46 2    
    93   45   47 1    
    94   47   48 1    
    95   47   49 1    
    96   47  170 1    
    97   48  171 1    
    98   48  172 1    
    99   48  173 1    
   100   49   50 am   BACKBONE|DICT|INTERRES
   101   49  174 1    
   102   50   51 2    
   103   50   52 1    
   104   52   53 1    
   105   52   54 1    
   106   52  175 1    
   107   53  176 1    
   108   53  177 1    
   109   53  178 1    
   110   54   55 am   BACKBONE|DICT|INTERRES
   111   54  179 1    
   112   55   56 2    
   113   55   57 1    
   114   57   58 1    
   115   57   59 1    
   116   57  180 1    
   117   58  181 1    
   118   58  182 1    
   119   58  183 1    
   120   59   60 am   BACKBONE|DICT|INTERRES
   121   59  184 1    
   122   60   61 2    
   123   60   62 1    
   124   62   63 1    
   125   62   64 1    
   126   62  185 1    
   127   63  186 1    
   128   63  187 1    
   129   63  188 1    
   130   64   65 am   BACKBONE|DICT|INTERRES
   131   64  189 1    
   132   65   66 2    
   133   67   68 2    
   134   67   69 am   BACKBONE|DICT|INTERRES
   135   69   70 1    
   136   69  190 1    
   137   70   71 1    
   138   70   72 1    
   139   70  191 1    
   140   71  192 1    
   141   71  193 1    
   142   71  194 1    
   143   72   73 2    
   144   72   74 am   BACKBONE|DICT|INTERRES
   145   74   75 1    
   146   74  195 1    
   147   75   76 1    
   148   75   77 1    
   149   75  196 1    
   150   76  197 1    
   151   76  198 1    
   152   76  199 1    
   153   77   78 2    
   154   77   79 am   BACKBONE|DICT|INTERRES
   155   79   80 1    
   156   79  200 1    
   157   80   81 1    
   158   80   82 1    
   159   80  201 1    
   160   81  202 1    
   161   81  203 1    
   162   81  204 1    
   163   82   83 2    
   164   82   84 am   BACKBONE|DICT|INTERRES
   165   84   85 1    
   166   84  205 1    
   167   85   86 1    
   168   85   87 1    
   169   85  206 1    
   170   86  207 1    
   171   86  208 1    
   172   86  209 1    
   173   87   88 2    
   174   87   89 am   BACKBONE|DICT|INTERRES
   175   89   90 1    
   176   89  210 1    
   177   90   91 1    
   178   90   92 1    
   179   90  211 1    
   180   91  212 1    
   181   91  213 1    
   182   91  214 1    
   183   92   93 2    
   184   92   94 am   BACKBONE|DICT|INTERRES
   185   94   95 1    
   186   94  215 1    
   187   95   96 1    
   188   95   97 1    
   189   95  216 1    
   190   96  217 1    
   191   96  218 1    
   192   96  219 1    
   193   97   98 2    
   194   97   99 am   BACKBONE|DICT|INTERRES
   195   99  100 1    
   196   99  220 1    
   197  100  101 1    
   198  100  102 1    
   199  100  221 1    
   200  101  222 1    
   201  101  223 1    
   202  101  224 1    
   203  102  103 2    
   204  102  104 am   BACKBONE|DICT|INTERRES
   205  104  105 1    
   206  104  225 1    
   207  105  106 1    
   208  105  107 1    
   209  105  226 1    
   210  106  227 1    
   211  106  228 1    
   212  106  229 1    
   213  107  108 2    
   214  107  109 am   BACKBONE|DICT|INTERRES
   215  109  110 1    
   216  109  230 1    
   217  110  111 1    
   218  110  112 1    
   219  110  231 1    
   220  111  232 1    
   221  111  233 1    
   222  111  234 1    
   223  112  113 2    
   224  112  114 am   BACKBONE|DICT|INTERRES
   225  114  115 1    
   226  114  235 1    
   227  115  116 1    
   228  115  117 1    
   229  115  236 1    
   230  116  237 1    
   231  116  238 1    
   232  116  239 1    
   233  117  118 2    
   234  117  119 am   BACKBONE|DICT|INTERRES
   235  119  120 1    
   236  119  240 1    
   237  120  121 1    
   238  120  124 1    
   239  120  241 1    
   240  121  122 am   BACKBONE|DICT|INTERRES
   241  121  123 2    
   242  122  242 1    
   243  122  243 1    
   244  124  125 1    
   245  124  244 1    
   246  124  245 1    
   247  125  126 1    
   248  126  246 1    
   249  126  247 1    
@<TRIPOS>SUBSTRUCTURE
     1 UNK         1 GROUP             0       ****    0 ROOT    
