@<TRIPOS>MOLECULE
3R540
247   249    1
SMALL
USER_CHARGES


@<TRIPOS>ATOM
      1 CA          0.9391   -8.9672  -44.7800 C.3       0 UNK        -0.1800 
      2 C           1.1258  -10.4753  -44.8438 C.2       0 UNK         0.5000 
      3 O           2.1053  -10.9886  -44.3021 O.2       0 UNK        -0.5000 
      4 N           0.1885  -11.1799  -45.4944 N.am      1 UNK        -0.5000 
      5 CA          0.1840  -12.6332  -45.7181 C.3       1 UNK         0.1400 
      6 C6         -1.0491  -13.0910  -46.5317 C.3       23 UNK        -0.0398 
      7 S7         -0.9794  -12.4955  -48.2558 S.3       23 UNK        -0.2404 
      8 C8         -2.4645  -13.2636  -48.9826 C.3       23 UNK        -0.0205 
      9 C9         -2.4297  -14.7823  -48.8923 C.ar      23 UNK        -0.0193 
     10 C10        -1.6423  -15.5294  -49.7751 C.ar      23 UNK        -0.1150 
     11 C11        -1.5760  -16.9227  -49.6640 C.ar      23 UNK        -0.0193 
     12 C12        -2.3057  -17.5622  -48.6570 C.ar      23 UNK        -0.1150 
     13 C13        -3.1106  -16.8274  -47.7837 C.ar      23 UNK        -0.0193 
     14 C14        -3.1736  -15.4388  -47.9079 C.ar      23 UNK        -0.1150 
     15 C15        -3.8840  -17.5397  -46.6906 C.3       23 UNK        -0.0205 
     16 S16        -2.7837  -17.8881  -45.2890 S.3       23 UNK        -0.2404 
     17 C17        -3.5211  -19.3960  -44.5810 C.3       23 UNK        -0.0398 
     18 CA         -3.3609  -20.6620  -45.4626 C.3       11 UNK         0.1400 
     19 N          -2.0068  -20.8521  -46.0055 N.am      11 UNK        -0.5000 
     20 C          -1.6679  -21.8033  -46.8895 C.2       10 UNK         0.5000 
     21 O          -2.4704  -22.6073  -47.3593 O.2       10 UNK        -0.5000 
     22 CA         -0.1892  -21.9214  -47.2809 C.3       10 UNK         0.1400 
     23 CB          0.1514  -20.9560  -48.4267 C.3       10 UNK        -0.1800 
     24 N           0.6743  -21.6832  -46.1263 N.am      10 UNK        -0.5000 
     25 C           0.8985  -22.5886  -45.1618 C.2       9 UNK         0.5000 
     26 O           0.4846  -23.7469  -45.2083 O.2       9 UNK        -0.5000 
     27 CA          1.6885  -22.1222  -43.9220 C.3       9 UNK         0.1400 
     28 CB          3.1929  -22.3563  -44.1233 C.3       9 UNK        -0.1800 
     29 N           1.4646  -20.7154  -43.5859 N.am      9 UNK        -0.5000 
     30 C           0.2944  -20.2005  -43.1828 C.2       8 UNK         0.5000 
     31 O          -0.7163  -20.8763  -42.9880 O.2       8 UNK        -0.5000 
     32 CA          0.2249  -18.6666  -43.0283 C.3       8 UNK         0.1400 
     33 CB          0.5655  -18.2545  -41.5889 C.3       8 UNK        -0.1800 
     34 N           1.0848  -17.9195  -43.9539 N.am      8 UNK        -0.5000 
     35 C           1.1179  -18.0463  -45.2898 C.2       7 UNK         0.5000 
     36 O           0.4154  -18.8445  -45.9067 O.2       7 UNK        -0.5000 
     37 CA          2.1153  -17.1705  -46.0723 C.3       7 UNK         0.1400 
     38 CB          1.3822  -16.2841  -47.0908 C.3       7 UNK        -0.1800 
     39 N           2.9371  -16.3298  -45.1991 N.am      7 UNK        -0.5000 
     40 C           4.0561  -16.7299  -44.5818 C.2       6 UNK         0.5000 
     41 O           4.5206  -17.8657  -44.6964 O.2       6 UNK        -0.5000 
     42 CA          4.7480  -15.6909  -43.6715 C.3       6 UNK         0.1400 
     43 CB          6.1722  -16.1114  -43.2542 C.3       6 UNK        -0.1800 
     44 N           4.7639  -14.3328  -44.2257 N.am      6 UNK        -0.5000 
     45 C           5.2812  -13.9360  -45.4003 C.2       5 UNK         0.5000 
     46 O           5.7899  -14.6991  -46.2223 O.2       5 UNK        -0.5000 
     47 CA          5.2429  -12.4264  -45.7132 C.3       5 UNK         0.1400 
     48 CB          4.1357  -12.1075  -46.7245 C.3       5 UNK        -0.1800 
     49 N           5.0677  -11.5963  -44.5178 N.am      5 UNK        -0.5000 
     50 C           6.0644  -11.3255  -43.6629 C.2       4 UNK         0.5000 
     51 O           7.2216  -11.7156  -43.8269 O.2       4 UNK        -0.5000 
     52 CA          5.7394  -10.4830  -42.4147 C.3       4 UNK         0.1400 
     53 CB          6.0743   -9.0053  -42.6704 C.3       4 UNK        -0.1800 
     54 N           4.3636  -10.5717  -41.9210 N.am      4 UNK        -0.5000 
     55 C           3.7260  -11.6811  -41.5239 C.2       3 UNK         0.5000 
     56 O           4.1782  -12.8187  -41.6649 O.2       3 UNK        -0.5000 
     57 CA          2.3622  -11.4951  -40.8348 C.3       3 UNK         0.1400 
     58 CB          1.9273  -10.0240  -40.6667 C.3       3 UNK        -0.1800 
     59 N           1.3409  -12.1969  -41.6005 N.am      3 UNK        -0.5000 
     60 C           0.5647  -13.1878  -41.1449 C.2       2 UNK         0.5000 
     61 O           0.6523  -13.6531  -40.0075 O.2       2 UNK        -0.5000 
     62 CA         -0.5176  -13.7412  -42.0974 C.3       2 UNK         0.1400 
     63 CB         -1.9199  -13.5807  -41.4875 C.3       2 UNK        -0.1800 
     64 N          -0.5138  -13.1056  -43.4171 N.am      2 UNK        -0.5000 
     65 C           0.3130  -13.4426  -44.4130 C.2       1 UNK         0.5000 
     66 O           1.1776  -14.3129  -44.3163 O.2       1 UNK        -0.5000 
     67 C          -3.8554  -21.9092  -44.7024 C.2       11 UNK         0.5000 
     68 O          -4.9909  -22.3387  -44.9085 O.2       11 UNK        -0.5000 
     69 N          -2.9631  -22.5120  -43.9034 N.am      12 UNK        -0.5000 
     70 CA         -3.1712  -23.7823  -43.2023 C.3       12 UNK         0.1400 
     71 CB         -1.9782  -24.0297  -42.2667 C.3       12 UNK        -0.1800 
     72 C          -3.3780  -24.9900  -44.1425 C.2       12 UNK         0.5000 
     73 O          -3.9816  -25.9804  -43.7299 O.2       12 UNK        -0.5000 
     74 N          -2.9016  -24.8763  -45.3885 N.am      13 UNK        -0.5000 
     75 CA         -3.0651  -25.8485  -46.4681 C.3       13 UNK         0.1400 
     76 CB         -1.7138  -26.0080  -47.1875 C.3       13 UNK        -0.1800 
     77 C          -4.1911  -25.4406  -47.4435 C.2       13 UNK         0.5000 
     78 O          -4.1963  -25.9040  -48.5846 O.2       13 UNK        -0.5000 
     79 N          -5.1139  -24.5730  -46.9964 N.am      14 UNK        -0.5000 
     80 CA         -6.2731  -24.0518  -47.7299 C.3       14 UNK         0.1400 
     81 CB         -7.2889  -25.1773  -48.0190 C.3       14 UNK        -0.1800 
     82 C          -5.8627  -23.2705  -48.9936 C.2       14 UNK         0.5000 
     83 O          -6.3219  -23.5846  -50.0922 O.2       14 UNK        -0.5000 
     84 N          -4.9655  -22.2933  -48.7986 N.am      15 UNK        -0.5000 
     85 CA         -4.3092  -21.4595  -49.8145 C.3       15 UNK         0.1400 
     86 CB         -5.3294  -20.5745  -50.5600 C.3       15 UNK        -0.1800 
     87 C          -3.4197  -22.2896  -50.7621 C.2       15 UNK         0.5000 
     88 O          -3.3764  -22.0193  -51.9624 O.2       15 UNK        -0.5000 
     89 N          -2.7380  -23.2938  -50.1892 N.am      16 UNK        -0.5000 
     90 CA         -1.9374  -24.3247  -50.8586 C.3       16 UNK         0.1400 
     91 CB         -0.6528  -23.7154  -51.4554 C.3       16 UNK        -0.1800 
     92 C          -2.7667  -25.1197  -51.8895 C.2       16 UNK         0.5000 
     93 O          -2.3289  -25.2990  -53.0262 O.2       16 UNK        -0.5000 
     94 N          -3.9566  -25.5600  -51.4531 N.am      17 UNK        -0.5000 
     95 CA         -5.0361  -26.1721  -52.2288 C.3       17 UNK         0.1400 
     96 CB         -4.6038  -27.5255  -52.8296 C.3       17 UNK        -0.1800 
     97 C          -5.5846  -25.1973  -53.2886 C.2       17 UNK         0.5000 
     98 O          -5.1491  -25.2264  -54.4396 O.2       17 UNK        -0.5000 
     99 N          -6.5354  -24.3528  -52.8635 N.am      18 UNK        -0.5000 
    100 CA        -7.1620  -23.2334  -53.5817 C.3       18 UNK         0.1400 
    101 CB        -8.3493  -22.7209  -52.7505 C.3       18 UNK        -0.1800 
    102 C         -7.6157  -23.4690  -55.0406 C.2       18 UNK         0.5000 
    103 O         -7.7486  -22.4968  -55.7846 O.2       18 UNK        -0.5000 
    104 N         -7.8231  -24.7296  -55.4456 N.am      19 UNK        -0.5000 
    105 CA        -8.0515  -25.1373  -56.8365 C.3       19 UNK         0.1400 
    106 CB        -8.3745  -26.6388  -56.8677 C.3       19 UNK        -0.1800 
    107 C         -6.8648  -24.8204  -57.7762 C.2       19 UNK         0.5000 
    108 O         -7.0765  -24.6157  -58.9721 O.2       19 UNK        -0.5000 
    109 N         -5.6513  -24.7595  -57.2163 N.am      20 UNK        -0.5000 
    110 CA        -4.4185  -24.3264  -57.8648 C.3       20 UNK         0.1400 
    111 CB        -3.6440  -25.5567  -58.3729 C.3       20 UNK        -0.1800 
    112 C         -3.6365  -23.4831  -56.8428 C.2       20 UNK         0.5000 
    113 O         -2.5363  -23.8611  -56.4372 O.2       20 UNK        -0.5000 
    114 N         -4.2767  -22.3912  -56.3986 N.am      21 UNK        -0.5000 
    115 CA        -3.8802  -21.5459  -55.2701 C.3       21 UNK         0.1400 
    116 CB        -4.8869  -20.3887  -55.1426 C.3       21 UNK        -0.1800 
    117 C         -2.4550  -20.9630  -55.3404 C.2       21 UNK         0.5000 
    118 O         -1.9211  -20.7444  -56.4316 O.2       21 UNK        -0.5000 
    119 N         -1.9059  -20.6629  -54.1578 N.am      22 UNK        -0.5000 
    120 CA        -0.6589  -19.9115  -53.9452 C.3       22 UNK         0.1400 
    121 C         -0.6379  -18.4940  -54.5941 C.2       22 UNK         0.5000 
    122 N          0.5398  -17.9806  -54.9253 N.am      22 UNK        -0.7600 
    123 O         -1.6647  -17.8413  -54.7708 O.2       22 UNK        -0.5000 
    124 C124       -0.2920  -19.8479  -52.4376 C.3       23 UNK        -0.0398 
    125 S125       -1.5903  -19.1076  -51.3836 S.3       23 UNK        -0.2404 
    126 C126       -0.6896  -17.7304  -50.6042 C.3       23 UNK        -0.0205 
    127 H127        1.8288   -8.4646  -45.1593 H         1 UNK         0.0600 
    128 H128        0.7813   -8.6519  -43.7490 H         1 UNK         0.0600 
    129 H129        0.0847   -8.6388  -45.3722 H         1 UNK         0.0600 
    130 H130       -0.5778  -10.6815  -45.9242 H         1 UNK         0.3000 
    131 H131        1.0630  -12.8730  -46.3141 H         1 UNK         0.0600 
    132 H132       -1.9753  -12.7456  -46.0693 H         1 UNK         0.0800 
    133 H133       -1.1057  -14.1794  -46.5530 H         1 UNK         0.0800 
    134 H134       -3.3525  -12.8683  -48.4868 H         1 UNK         0.0800 
    135 H135       -2.5418  -12.9643  -50.0288 H         1 UNK         0.0800 
    136 H136       -1.0662  -15.0203  -50.5350 H         1 UNK         0.1150 
    137 H137       -2.2423  -18.6356  -48.5467 H         1 UNK         0.1150 
    138 H138       -3.7817  -14.8670  -47.2210 H         1 UNK         0.1150 
    139 H139       -4.7261  -16.9357  -46.3495 H         1 UNK         0.0800 
    140 H140       -4.3073  -18.4576  -47.0970 H         1 UNK         0.0800 
    141 H141       -4.5770  -19.2035  -44.3822 H         1 UNK         0.0800 
    142 H142       -3.0553  -19.5483  -43.6060 H         1 UNK         0.0800 
    143 H143       -4.0212  -20.5509  -46.3236 H         1 UNK         0.0600 
    144 H144       -1.2977  -20.1949  -45.7015 H         1 UNK         0.3000 
    145 H145       -0.0178  -22.9370  -47.6441 H         1 UNK         0.0600 
    146 H146       -0.0477  -19.9175  -48.1653 H         1 UNK         0.0600 
    147 H147        1.1998  -21.0357  -48.7136 H         1 UNK         0.0600 
    148 H148       -0.4463  -21.1816  -49.3102 H         1 UNK         0.0600 
    149 H149        0.9656  -20.7222  -45.9824 H         1 UNK         0.3000 
    150 H150        1.3579  -22.7266  -43.0747 H         1 UNK         0.0600 
    151 H151        3.3978  -23.4022  -44.3560 H         1 UNK         0.0600 
    152 H152        3.7549  -22.1088  -43.2225 H         1 UNK         0.0600 
    153 H153        3.5880  -21.7537  -44.9423 H         1 UNK         0.0600 
    154 H154        2.2396  -20.0846  -43.7302 H         1 UNK         0.3000 
    155 H155       -0.8037  -18.3669  -43.2275 H         1 UNK         0.0600 
    156 H156       -0.0727  -18.7738  -40.8724 H         1 UNK         0.0600 
    157 H157        0.4169  -17.1852  -41.4376 H         1 UNK         0.0600 
    158 H158        1.6006  -18.4893  -41.3377 H         1 UNK         0.0600 
    159 H159        1.6859  -17.2211  -43.5439 H         1 UNK         0.3000 
    160 H160        2.7678  -17.8455  -46.6298 H         1 UNK         0.0600 
    161 H161        2.0757  -15.6436  -47.6357 H         1 UNK         0.0600 
    162 H162        0.6436  -15.6490  -46.6069 H         1 UNK         0.0600 
    163 H163        0.8523  -16.8913  -47.8254 H         1 UNK         0.0600 
    164 H164        2.5570  -15.4113  -44.9829 H         1 UNK         0.3000 
    165 H165        4.1440  -15.6368  -42.7646 H         1 UNK         0.0600 
    166 H166        6.8290  -16.2253  -44.1172 H         1 UNK         0.0600 
    167 H167        6.6195  -15.3740  -42.5875 H         1 UNK         0.0600 
    168 H168        6.1609  -17.0633  -42.7221 H         1 UNK         0.0600 
    169 H169        4.3937  -13.6187  -43.6079 H         1 UNK         0.3000 
    170 H170        6.1957  -12.1675  -46.1802 H         1 UNK         0.0600 
    171 H171        3.1631  -12.3903  -46.3340 H         1 UNK         0.0600 
    172 H172        4.1084  -11.0446  -46.9650 H         1 UNK         0.0600 
    173 H173        4.2864  -12.6526  -47.6571 H         1 UNK         0.0600 
    174 H174        4.1284  -11.2648  -44.3178 H         1 UNK         0.3000 
    175 H175        6.3881  -10.8426  -41.6135 H         1 UNK         0.0600 
    176 H176        5.4248   -8.5739  -43.4333 H         1 UNK         0.0600 
    177 H177        5.9676   -8.4120  -41.7621 H         1 UNK         0.0600 
    178 H178        7.1039   -8.8893  -43.0120 H         1 UNK         0.0600 
    179 H179        3.8867   -9.6911  -41.7962 H         1 UNK         0.3000 
    180 H180        2.4642  -11.9285  -39.8382 H         1 UNK         0.0600 
    181 H181        1.8115   -9.5195  -41.6265 H         1 UNK         0.0600 
    182 H182        2.6476   -9.4615  -40.0712 H         1 UNK         0.0600 
    183 H183        0.9707   -9.9614  -40.1477 H         1 UNK         0.0600 
    184 H184        1.2732  -11.9331  -42.5761 H         1 UNK         0.3000 
    185 H185       -0.3242  -14.8093  -42.2181 H         1 UNK         0.0600 
    186 H186       -2.6831  -14.0121  -42.1355 H         1 UNK         0.0600 
    187 H187       -1.9913  -14.0887  -40.5249 H         1 UNK         0.0600 
    188 H188       -2.1697  -12.5316  -41.3246 H         1 UNK         0.0600 
    189 H189       -1.1664  -12.3478  -43.5568 H         1 UNK         0.3000 
    190 H190       -2.0666  -22.0567  -43.7526 H         1 UNK         0.3000 
    191 H191       -4.0719  -23.6835  -42.5933 H         1 UNK         0.0600 
    192 H192       -1.0443  -24.1166  -42.8232 H         1 UNK         0.0600 
    193 H193       -1.8647  -23.2172  -41.5486 H         1 UNK         0.0600 
    194 H194       -2.1098  -24.9509  -41.6977 H         1 UNK         0.0600 
    195 H195       -2.4486  -24.0109  -45.6519 H         1 UNK         0.3000 
    196 H196       -3.3415  -26.8210  -46.0566 H         1 UNK         0.0600 
    197 H197       -0.9332  -26.3138  -46.4907 H         1 UNK         0.0600 
    198 H198       -1.3930  -25.0770  -47.6538 H         1 UNK         0.0600 
    199 H199       -1.7661  -26.7688  -47.9672 H         1 UNK         0.0600 
    200 H200       -4.9924  -24.1946  -46.0650 H         1 UNK         0.3000 
    201 H201       -6.7595  -23.3331  -47.0686 H         1 UNK         0.0600 
    202 H202       -8.1963  -24.7754  -48.4712 H         1 UNK         0.0600 
    203 H203       -7.5822  -25.6877  -47.1018 H         1 UNK         0.0600 
    204 H204       -6.8875  -25.9244  -48.7045 H         1 UNK         0.0600 
    205 H205       -4.5732  -22.2133  -47.8697 H         1 UNK         0.3000 
    206 H206       -3.6346  -20.7933  -49.2749 H         1 UNK         0.0600 
    207 H207       -5.9502  -20.0130  -49.8622 H         1 UNK         0.0600 
    208 H208       -5.9864  -21.1634  -51.1995 H         1 UNK         0.0600 
    209 H209       -4.8207  -19.8500  -51.1973 H         1 UNK         0.0600 
    210 H210       -2.8253  -23.3864  -49.1829 H         1 UNK         0.3000 
    211 H211       -1.6392  -25.0364  -50.0884 H         1 UNK         0.0600 
    212 H212       -0.0966  -23.1500  -50.7087 H         1 UNK         0.0600 
    213 H213        0.0094  -24.4967  -51.8296 H         1 UNK         0.0600 
    214 H214       -0.8749  -23.0518  -52.2912 H         1 UNK         0.0600 
    215 H215       -4.1780  -25.4003  -50.4739 H         1 UNK         0.3000 
    216 H216       -5.8409  -26.3756  -51.5204 H         1 UNK         0.0600 
    217 H217       -5.4416  -28.0086  -53.3334 H         1 UNK         0.0600 
    218 H218       -3.8053  -27.4166  -53.5639 H         1 UNK         0.0600 
    219 H219       -4.2538  -28.2058  -52.0533 H         1 UNK         0.0600 
    220 H220       -6.7240  -24.3540  -51.8649 H         1 UNK         0.3000 
    221 H221       -6.4101  -22.4450  -53.6092 H         1 UNK         0.0600 
    222 H222       -9.1068  -23.4942  -52.6183 H         1 UNK         0.0600 
    223 H223       -8.0328  -22.3906  -51.7619 H         1 UNK         0.0600 
    224 H224       -8.8301  -21.8681  -53.2320 H         1 UNK         0.0600 
    225 H225       -7.6772  -25.4702  -54.7759 H         1 UNK         0.3000 
    226 H226       -8.9203  -24.5902  -57.2079 H         1 UNK         0.0600 
    227 H227       -9.2585  -26.8654  -56.2713 H         1 UNK         0.0600 
    228 H228       -8.5759  -26.9741  -57.8860 H         1 UNK         0.0600 
    229 H229       -7.5462  -27.2355  -56.4832 H         1 UNK         0.0600 
    230 H230       -5.5649  -24.9341  -56.2150 H         1 UNK         0.3000 
    231 H231       -4.6446  -23.6792  -58.7148 H         1 UNK         0.0600 
    232 H232       -2.7090  -25.2602  -58.8494 H         1 UNK         0.0600 
    233 H233       -4.2252  -26.1096  -59.1110 H         1 UNK         0.0600 
    234 H234       -3.3996  -26.2405  -57.5590 H         1 UNK         0.0600 
    235 H235       -5.1781  -22.1817  -56.8025 H         1 UNK         0.3000 
    236 H236       -3.9534  -22.1794  -54.3864 H         1 UNK         0.0600 
    237 H237       -5.9137  -20.7413  -55.0759 H         1 UNK         0.0600 
    238 H238       -4.6915  -19.7995  -54.2454 H         1 UNK         0.0600 
    239 H239       -4.8257  -19.7129  -55.9967 H         1 UNK         0.0600 
    240 H240       -2.4250  -20.8953  -53.3157 H         1 UNK         0.3000 
    241 H241        0.1201  -20.4906  -54.4445 H         1 UNK         0.0600 
    242 H242        0.5714  -17.0603  -55.3360 H         1 UNK         0.3800 
    243 H243        1.3998  -18.4903  -54.7935 H         1 UNK         0.3800 
    244 H244       -0.1059  -20.8546  -52.0659 H         1 UNK         0.0800 
    245 H245        0.6498  -19.3152  -52.2960 H         1 UNK         0.0800 
    246 H246       -0.2783  -17.0916  -51.3875 H         1 UNK         0.0800 
    247 H247        0.1565  -18.1245  -50.0399 H         1 UNK         0.0800 
@<TRIPOS>BOND
     1    1    2 1    
     2    1  127 1    
     3    1  128 1    
     4    1  129 1    
     5    2    3 2    
     6    2    4 am   BACKBONE|DICT|INTERRES
     7    4    5 1    
     8    4  130 1    
     9    5    6 1    
    10    5   65 1    
    11    5  131 1    
    12    6    7 1    
    13    6  132 1    
    14    6  133 1    
    15    7    8 1    
    16    8    9 1    
    17    8  134 1    
    18    8  135 1    
    19    9   10 ar   
    20    9   14 ar   
    21   10   11 ar   
    22   10  136 1    
    23   11   12 ar   
    24   11  126 1    
    25   12   13 ar   
    26   12  137 1    
    27   13   14 ar   
    28   13   15 1    
    29   14  138 1    
    30   15   16 1    
    31   15  139 1    
    32   15  140 1    
    33   16   17 1    
    34   17   18 1    
    35   17  141 1    
    36   17  142 1    
    37   18   19 1    
    38   18   67 1    
    39   18  143 1    
    40   19   20 am   BACKBONE|DICT|INTERRES
    41   19  144 1    
    42   20   21 2    
    43   20   22 1    
    44   22   23 1    
    45   22   24 1    
    46   22  145 1    
    47   23  146 1    
    48   23  147 1    
    49   23  148 1    
    50   24   25 am   BACKBONE|DICT|INTERRES
    51   24  149 1    
    52   25   26 2    
    53   25   27 1    
    54   27   28 1    
    55   27   29 1    
    56   27  150 1    
    57   28  151 1    
    58   28  152 1    
    59   28  153 1    
    60   29   30 am   BACKBONE|DICT|INTERRES
    61   29  154 1    
    62   30   31 2    
    63   30   32 1    
    64   32   33 1    
    65   32   34 1    
    66   32  155 1    
    67   33  156 1    
    68   33  157 1    
    69   33  158 1    
    70   34   35 am   BACKBONE|DICT|INTERRES
    71   34  159 1    
    72   35   36 2    
    73   35   37 1    
    74   37   38 1    
    75   37   39 1    
    76   37  160 1    
    77   38  161 1    
    78   38  162 1    
    79   38  163 1    
    80   39   40 am   BACKBONE|DICT|INTERRES
    81   39  164 1    
    82   40   41 2    
    83   40   42 1    
    84   42   43 1    
    85   42   44 1    
    86   42  165 1    
    87   43  166 1    
    88   43  167 1    
    89   43  168 1    
    90   44   45 am   BACKBONE|DICT|INTERRES
    91   44  169 1    
    92   45   46 2    
    93   45   47 1    
    94   47   48 1    
    95   47   49 1    
    96   47  170 1    
    97   48  171 1    
    98   48  172 1    
    99   48  173 1    
   100   49   50 am   BACKBONE|DICT|INTERRES
   101   49  174 1    
   102   50   51 2    
   103   50   52 1    
   104   52   53 1    
   105   52   54 1    
   106   52  175 1    
   107   53  176 1    
   108   53  177 1    
   109   53  178 1    
   110   54   55 am   BACKBONE|DICT|INTERRES
   111   54  179 1    
   112   55   56 2    
   113   55   57 1    
   114   57   58 1    
   115   57   59 1    
   116   57  180 1    
   117   58  181 1    
   118   58  182 1    
   119   58  183 1    
   120   59   60 am   BACKBONE|DICT|INTERRES
   121   59  184 1    
   122   60   61 2    
   123   60   62 1    
   124   62   63 1    
   125   62   64 1    
   126   62  185 1    
   127   63  186 1    
   128   63  187 1    
   129   63  188 1    
   130   64   65 am   BACKBONE|DICT|INTERRES
   131   64  189 1    
   132   65   66 2    
   133   67   68 2    
   134   67   69 am   BACKBONE|DICT|INTERRES
   135   69   70 1    
   136   69  190 1    
   137   70   71 1    
   138   70   72 1    
   139   70  191 1    
   140   71  192 1    
   141   71  193 1    
   142   71  194 1    
   143   72   73 2    
   144   72   74 am   BACKBONE|DICT|INTERRES
   145   74   75 1    
   146   74  195 1    
   147   75   76 1    
   148   75   77 1    
   149   75  196 1    
   150   76  197 1    
   151   76  198 1    
   152   76  199 1    
   153   77   78 2    
   154   77   79 am   BACKBONE|DICT|INTERRES
   155   79   80 1    
   156   79  200 1    
   157   80   81 1    
   158   80   82 1    
   159   80  201 1    
   160   81  202 1    
   161   81  203 1    
   162   81  204 1    
   163   82   83 2    
   164   82   84 am   BACKBONE|DICT|INTERRES
   165   84   85 1    
   166   84  205 1    
   167   85   86 1    
   168   85   87 1    
   169   85  206 1    
   170   86  207 1    
   171   86  208 1    
   172   86  209 1    
   173   87   88 2    
   174   87   89 am   BACKBONE|DICT|INTERRES
   175   89   90 1    
   176   89  210 1    
   177   90   91 1    
   178   90   92 1    
   179   90  211 1    
   180   91  212 1    
   181   91  213 1    
   182   91  214 1    
   183   92   93 2    
   184   92   94 am   BACKBONE|DICT|INTERRES
   185   94   95 1    
   186   94  215 1    
   187   95   96 1    
   188   95   97 1    
   189   95  216 1    
   190   96  217 1    
   191   96  218 1    
   192   96  219 1    
   193   97   98 2    
   194   97   99 am   BACKBONE|DICT|INTERRES
   195   99  100 1    
   196   99  220 1    
   197  100  101 1    
   198  100  102 1    
   199  100  221 1    
   200  101  222 1    
   201  101  223 1    
   202  101  224 1    
   203  102  103 2    
   204  102  104 am   BACKBONE|DICT|INTERRES
   205  104  105 1    
   206  104  225 1    
   207  105  106 1    
   208  105  107 1    
   209  105  226 1    
   210  106  227 1    
   211  106  228 1    
   212  106  229 1    
   213  107  108 2    
   214  107  109 am   BACKBONE|DICT|INTERRES
   215  109  110 1    
   216  109  230 1    
   217  110  111 1    
   218  110  112 1    
   219  110  231 1    
   220  111  232 1    
   221  111  233 1    
   222  111  234 1    
   223  112  113 2    
   224  112  114 am   BACKBONE|DICT|INTERRES
   225  114  115 1    
   226  114  235 1    
   227  115  116 1    
   228  115  117 1    
   229  115  236 1    
   230  116  237 1    
   231  116  238 1    
   232  116  239 1    
   233  117  118 2    
   234  117  119 am   BACKBONE|DICT|INTERRES
   235  119  120 1    
   236  119  240 1    
   237  120  121 1    
   238  120  124 1    
   239  120  241 1    
   240  121  122 am   BACKBONE|DICT|INTERRES
   241  121  123 2    
   242  122  242 1    
   243  122  243 1    
   244  124  125 1    
   245  124  244 1    
   246  124  245 1    
   247  125  126 1    
   248  126  246 1    
   249  126  247 1    
@<TRIPOS>SUBSTRUCTURE
     1 UNK         1 GROUP             0       ****    0 ROOT    
