@<TRIPOS>MOLECULE
3R540
247   249    1
SMALL
USER_CHARGES


@<TRIPOS>ATOM
      1 CA         -5.3942  -15.3649  -48.2718 C.3       0 UNK        -0.1800 
      2 C          -4.0490  -14.9862  -47.6694 C.2       0 UNK         0.5000 
      3 O          -3.8404  -13.8293  -47.3038 O.2       0 UNK        -0.5000 
      4 N          -3.1387  -15.9616  -47.5473 N.am      1 UNK        -0.5000 
      5 CA         -1.7572  -15.7892  -47.0724 C.3       1 UNK         0.1400 
      6 C6         -0.9120  -17.0631  -47.2811 C.3       23 UNK        -0.0398 
      7 S7         -0.7710  -17.5323  -49.0355 S.3       23 UNK        -0.2404 
      8 C8          0.9141  -16.9723  -49.4451 C.3       23 UNK        -0.0205 
      9 C9          1.6067  -18.0088  -50.3092 C.ar      23 UNK        -0.0193 
     10 C10         1.5398  -17.9247  -51.6997 C.ar      23 UNK        -0.1150 
     11 C11         2.1017  -18.9208  -52.5105 C.ar      23 UNK        -0.0193 
     12 C12         2.7278  -20.0122  -51.8943 C.ar      23 UNK        -0.1150 
     13 C13         2.8116  -20.1018  -50.4992 C.ar      23 UNK        -0.0193 
     14 C14         2.2721  -19.0804  -49.7150 C.ar      23 UNK        -0.1150 
     15 C15         3.4769  -21.3001  -49.8342 C.3       23 UNK        -0.0205 
     16 S16         2.2680  -22.5670  -49.3180 S.3       23 UNK        -0.2404 
     17 C17         1.5559  -21.8128  -47.8157 C.3       23 UNK        -0.0398 
     18 CA          0.6035  -22.7606  -47.0449 C.3       11 UNK         0.1400 
     19 N           0.5469  -22.4303  -45.6193 N.am      11 UNK        -0.5000 
     20 C           0.0021  -23.2122  -44.6748 C.2       10 UNK         0.5000 
     21 O          -0.4657  -24.3273  -44.9008 O.2       10 UNK        -0.5000 
     22 CA         -0.0758  -22.6402  -43.2452 C.3       10 UNK         0.1400 
     23 CB          1.1766  -23.0219  -42.4436 C.3       10 UNK        -0.1800 
     24 N          -0.2442  -21.1873  -43.2116 N.am      10 UNK        -0.5000 
     25 C          -1.2901  -20.5248  -43.7259 C.2       9 UNK         0.5000 
     26 O          -2.2623  -21.0778  -44.2370 O.2       9 UNK        -0.5000 
     27 CA         -1.2195  -18.9870  -43.7155 C.3       9 UNK         0.1400 
     28 CB         -1.9192  -18.4503  -42.4597 C.3       9 UNK        -0.1800 
     29 N           0.1443  -18.4489  -43.7902 N.am      9 UNK        -0.5000 
     30 C           1.0516  -18.7239  -44.7413 C.2       8 UNK         0.5000 
     31 O           0.8303  -19.4617  -45.7023 O.2       8 UNK        -0.5000 
     32 CA          2.4533  -18.1130  -44.5673 C.3       8 UNK         0.1400 
     33 CB          2.5580  -16.7502  -45.2681 C.3       8 UNK        -0.1800 
     34 N           2.8136  -17.9647  -43.1573 N.am      8 UNK        -0.5000 
     35 C           3.1993  -18.9746  -42.3636 C.2       7 UNK         0.5000 
     36 O           3.3236  -20.1365  -42.7496 O.2       7 UNK        -0.5000 
     37 CA          3.4697  -18.6309  -40.8862 C.3       7 UNK         0.1400 
     38 CB          4.9232  -18.1712  -40.6975 C.3       7 UNK        -0.1800 
     39 N           2.5683  -17.5936  -40.3829 N.am      7 UNK        -0.5000 
     40 C           1.2598  -17.7734  -40.1525 C.2       6 UNK         0.5000 
     41 O           0.6976  -18.8637  -40.2457 O.2       6 UNK        -0.5000 
     42 CA          0.4367  -16.5173  -39.7971 C.3       6 UNK         0.1400 
     43 CB          0.3253  -16.3586  -38.2737 C.3       6 UNK        -0.1800 
     44 N           0.9906  -15.2863  -40.3727 N.am      6 UNK        -0.5000 
     45 C           1.0505  -15.0267  -41.6850 C.2       5 UNK         0.5000 
     46 O           0.6028  -15.7829  -42.5483 O.2       5 UNK        -0.5000 
     47 CA          1.8315  -13.7736  -42.0957 C.3       5 UNK         0.1400 
     48 CB          3.3358  -14.1096  -42.1728 C.3       5 UNK        -0.1800 
     49 N           1.3526  -13.2757  -43.3841 N.am      5 UNK        -0.5000 
     50 C           1.6715  -12.0807  -43.9020 C.2       4 UNK         0.5000 
     51 O           2.3953  -11.2600  -43.3361 O.2       4 UNK        -0.5000 
     52 CA          1.0632  -11.7229  -45.2665 C.3       4 UNK         0.1400 
     53 CB          1.6442  -12.5977  -46.3911 C.3       4 UNK        -0.1800 
     54 N          -0.3911  -11.8493  -45.2254 N.am      4 UNK        -0.5000 
     55 C          -1.2232  -10.8783  -44.8182 C.2       3 UNK         0.5000 
     56 O          -0.8495   -9.7454  -44.5115 O.2       3 UNK        -0.5000 
     57 CA         -2.7265  -11.2156  -44.7347 C.3       3 UNK         0.1400 
     58 CB         -3.4570  -10.7263  -45.9943 C.3       3 UNK        -0.1800 
     59 N          -2.9814  -12.6449  -44.5571 N.am      3 UNK        -0.5000 
     60 C          -2.7227  -13.3224  -43.4281 C.2       2 UNK         0.5000 
     61 O          -2.3568  -12.7861  -42.3819 O.2       2 UNK        -0.5000 
     62 CA         -2.8516  -14.8585  -43.4786 C.3       2 UNK         0.1400 
     63 CB         -4.1847  -15.3131  -42.8666 C.3       2 UNK        -0.1800 
     64 N          -2.7265  -15.4240  -44.8254 N.am      2 UNK        -0.5000 
     65 C          -1.6456  -15.3057  -45.6098 C.2       1 UNK         0.5000 
     66 O          -0.5990  -14.7790  -45.2349 O.2       1 UNK        -0.5000 
     67 C          -0.8135  -22.7619  -47.6517 C.2       11 UNK         0.5000 
     68 O          -1.2011  -23.7369  -48.2949 O.2       11 UNK        -0.5000 
     69 N          -1.5788  -21.6930  -47.3796 N.am      12 UNK        -0.5000 
     70 CA         -2.9747  -21.5401  -47.7955 C.3       12 UNK         0.1400 
     71 CB         -3.4596  -20.1158  -47.4873 C.3       12 UNK        -0.1800 
     72 C          -3.9045  -22.5925  -47.1688 C.2       12 UNK         0.5000 
     73 O          -4.7811  -23.1072  -47.8589 O.2       12 UNK        -0.5000 
     74 N          -3.6800  -22.9261  -45.8918 N.am      13 UNK        -0.5000 
     75 CA         -4.4070  -23.9757  -45.1778 C.3       13 UNK         0.1400 
     76 CB         -4.0311  -23.9358  -43.6891 C.3       13 UNK        -0.1800 
     77 C          -4.1639  -25.3810  -45.7622 C.2       13 UNK         0.5000 
     78 O          -5.1033  -26.1737  -45.8395 O.2       13 UNK        -0.5000 
     79 N          -2.9163  -25.6628  -46.1604 N.am      14 UNK        -0.5000 
     80 CA         -2.5045  -26.9457  -46.7234 C.3       14 UNK         0.1400 
     81 CB         -0.9869  -27.1164  -46.5480 C.3       14 UNK        -0.1800 
     82 C          -2.8996  -27.1062  -48.2013 C.2       14 UNK         0.5000 
     83 O          -3.4938  -28.1234  -48.5615 O.2       14 UNK        -0.5000 
     84 N          -2.5276  -26.1268  -49.0352 N.am      15 UNK        -0.5000 
     85 CA         -2.5801  -26.2319  -50.4952 C.3       15 UNK         0.1400 
     86 CB         -1.3061  -25.5956  -51.0702 C.3       15 UNK        -0.1800 
     87 C          -3.8334  -25.5957  -51.1223 C.2       15 UNK         0.5000 
     88 O          -4.0561  -25.7860  -52.3192 O.2       15 UNK        -0.5000 
     89 N          -4.6258  -24.8537  -50.3343 N.am      16 UNK        -0.5000 
     90 CA         -5.8306  -24.1290  -50.7523 C.3       16 UNK         0.1400 
     91 CB         -6.9576  -25.1185  -51.1297 C.3       16 UNK        -0.1800 
     92 C          -5.5095  -23.0774  -51.8362 C.2       16 UNK         0.5000 
     93 O          -4.5428  -22.3259  -51.6829 O.2       16 UNK        -0.5000 
     94 N          -6.3000  -23.0525  -52.9176 N.am      17 UNK        -0.5000 
     95 CA         -6.1994  -22.1270  -54.0508 C.3       17 UNK         0.1400 
     96 CB         -7.3869  -22.3778  -54.9932 C.3       17 UNK        -0.1800 
     97 C          -4.8703  -22.1866  -54.8316 C.2       17 UNK         0.5000 
     98 O          -4.5758  -21.2558  -55.5805 O.2       17 UNK        -0.5000 
     99 N          -4.0838  -23.2576  -54.6491 N.am      18 UNK        -0.5000 
    100 CA        -2.7355  -23.3754  -55.2037 C.3       18 UNK         0.1400 
    101 CB        -2.2808  -24.8399  -55.1494 C.3       18 UNK        -0.1800 
    102 C         -1.7175  -22.4545  -54.5007 C.2       18 UNK         0.5000 
    103 O         -0.7268  -22.0810  -55.1312 O.2       18 UNK        -0.5000 
    104 N         -1.9834  -22.0841  -53.2400 N.am      19 UNK        -0.5000 
    105 CA        -1.1813  -21.1357  -52.4692 C.3       19 UNK         0.1400 
    106 CB        -0.8142  -21.7438  -51.1126 C.3       19 UNK        -0.1800 
    107 C         -1.9204  -19.8049  -52.2854 C.2       19 UNK         0.5000 
    108 O         -1.3176  -18.7571  -52.5000 O.2       19 UNK        -0.5000 
    109 N         -3.2127  -19.8435  -51.9310 N.am      20 UNK        -0.5000 
    110 CA        -4.0509  -18.6572  -51.7440 C.3       20 UNK         0.1400 
    111 CB        -5.3992  -19.0750  -51.1353 C.3       20 UNK        -0.1800 
    112 C         -4.2234  -17.8808  -53.0663 C.2       20 UNK         0.5000 
    113 O         -4.9776  -18.3174  -53.9359 O.2       20 UNK        -0.5000 
    114 N         -3.4665  -16.7801  -53.1947 N.am      21 UNK        -0.5000 
    115 CA        -3.2630  -15.9438  -54.3882 C.3       21 UNK         0.1400 
    116 CB        -4.5960  -15.3900  -54.9347 C.3       21 UNK        -0.1800 
    117 C         -2.3961  -16.6042  -55.4882 C.2       21 UNK         0.5000 
    118 O         -2.2699  -16.0328  -56.5715 O.2       21 UNK        -0.5000 
    119 N         -1.7805  -17.7485  -55.1634 N.am      22 UNK        -0.5000 
    120 CA        -0.8737  -18.5934  -55.9573 C.3       22 UNK         0.1400 
    121 C         -1.4988  -19.1944  -57.2487 C.2       22 UNK         0.5000 
    122 N         -1.4359  -20.5087  -57.4105 N.am      22 UNK        -0.7600 
    123 O         -1.9736  -18.4944  -58.1388 O.2       22 UNK        -0.5000 
    124 C124        0.4976  -17.9305  -56.2590 C.3       23 UNK        -0.0398 
    125 S125        1.3573  -17.3363  -54.7613 S.3       23 UNK        -0.2404 
    126 C126        2.0121  -18.8896  -54.0413 C.3       23 UNK        -0.0205 
    127 H127       -6.1939  -15.1651  -47.5587 H         1 UNK         0.0600 
    128 H128       -5.4352  -16.4201  -48.5437 H         1 UNK         0.0600 
    129 H129       -5.5811  -14.7754  -49.1693 H         1 UNK         0.0600 
    130 H130       -3.3685  -16.8888  -47.8735 H         1 UNK         0.3000 
    131 H131       -1.3124  -14.9970  -47.6789 H         1 UNK         0.0600 
    132 H132        0.0851  -16.9352  -46.8630 H         1 UNK         0.0800 
    133 H133       -1.3522  -17.9049  -46.7475 H         1 UNK         0.0800 
    134 H134        1.5086  -16.7986  -48.5490 H         1 UNK         0.0800 
    135 H135        0.8571  -16.0144  -49.9641 H         1 UNK         0.0800 
    136 H136        1.0040  -17.0947  -52.1343 H         1 UNK         0.1150 
    137 H137        3.1433  -20.8022  -52.5042 H         1 UNK         0.1150 
    138 H138        2.3338  -19.1345  -48.6375 H         1 UNK         0.1150 
    139 H139        4.1857  -21.7587  -50.5253 H         1 UNK         0.0800 
    140 H140        4.0633  -20.9752  -48.9735 H         1 UNK         0.0800 
    141 H141        1.0464  -20.8850  -48.0765 H         1 UNK         0.0800 
    142 H142        2.3919  -21.5268  -47.1756 H         1 UNK         0.0800 
    143 H143        0.9965  -23.7773  -47.1178 H         1 UNK         0.0600 
    144 H144        0.8461  -21.4953  -45.3667 H         1 UNK         0.3000 
    145 H145       -0.9433  -23.0857  -42.7551 H         1 UNK         0.0600 
    146 H146        1.1123  -22.6658  -41.4152 H         1 UNK         0.0600 
    147 H147        2.0808  -22.6039  -42.8876 H         1 UNK         0.0600 
    148 H148        1.3002  -24.1050  -42.4059 H         1 UNK         0.0600 
    149 H149        0.5115  -20.6504  -42.8100 H         1 UNK         0.3000 
    150 H150       -1.7620  -18.6217  -44.5876 H         1 UNK         0.0600 
    151 H151       -1.7838  -17.3775  -42.3521 H         1 UNK         0.0600 
    152 H152       -1.5419  -18.9224  -41.5532 H         1 UNK         0.0600 
    153 H153       -2.9914  -18.6449  -42.5020 H         1 UNK         0.0600 
    154 H154        0.3937  -17.7599  -43.0896 H         1 UNK         0.3000 
    155 H155        3.1703  -18.7884  -45.0392 H         1 UNK         0.0600 
    156 H156        2.4113  -16.8558  -46.3423 H         1 UNK         0.0600 
    157 H157        3.5426  -16.3058  -45.1229 H         1 UNK         0.0600 
    158 H158        1.8145  -16.0430  -44.9009 H         1 UNK         0.0600 
    159 H159        2.6849  -17.0495  -42.7536 H         1 UNK         0.3000 
    160 H160        3.3179  -19.5384  -40.2977 H         1 UNK         0.0600 
    161 H161        5.1327  -17.2547  -41.2508 H         1 UNK         0.0600 
    162 H162        5.6214  -18.9328  -41.0473 H         1 UNK         0.0600 
    163 H163        5.1450  -17.9872  -39.6461 H         1 UNK         0.0600 
    164 H164        2.9582  -16.6725  -40.2521 H         1 UNK         0.3000 
    165 H165       -0.5683  -16.6572  -40.2005 H         1 UNK         0.0600 
    166 H166       -0.3166  -15.5175  -38.0107 H         1 UNK         0.0600 
    167 H167       -0.1080  -17.2506  -37.8191 H         1 UNK         0.0600 
    168 H168        1.3002  -16.1955  -37.8125 H         1 UNK         0.0600 
    169 H169        1.3881  -14.6251  -39.7206 H         1 UNK         0.3000 
    170 H170        1.6653  -13.0029  -41.3402 H         1 UNK         0.0600 
    171 H171        3.9378  -13.2221  -42.3659 H         1 UNK         0.0600 
    172 H172        3.6966  -14.5354  -41.2359 H         1 UNK         0.0600 
    173 H173        3.5453  -14.8297  -42.9644 H         1 UNK         0.0600 
    174 H174        0.7320  -13.9042  -43.8889 H         1 UNK         0.3000 
    175 H175        1.3274  -10.6877  -45.4934 H         1 UNK         0.0600 
    176 H176        1.4868  -13.6615  -46.2164 H         1 UNK         0.0600 
    177 H177        1.1988  -12.3478  -47.3541 H         1 UNK         0.0600 
    178 H178        2.7199  -12.4430  -46.4810 H         1 UNK         0.0600 
    179 H179       -0.7602  -12.7779  -45.3918 H         1 UNK         0.3000 
    180 H180       -3.1388  -10.6838  -43.8746 H         1 UNK         0.0600 
    181 H181       -4.5261  -10.9314  -45.9366 H         1 UNK         0.0600 
    182 H182       -3.0714  -11.2066  -46.8943 H         1 UNK         0.0600 
    183 H183       -3.3382   -9.6494  -46.1209 H         1 UNK         0.0600 
    184 H184       -3.2867  -13.1530  -45.3805 H         1 UNK         0.3000 
    185 H185       -2.0362  -15.2525  -42.8726 H         1 UNK         0.0600 
    186 H186       -5.0357  -14.9465  -43.4420 H         1 UNK         0.0600 
    187 H187       -4.2511  -16.4001  -42.8239 H         1 UNK         0.0600 
    188 H188       -4.2929  -14.9420  -41.8466 H         1 UNK         0.0600 
    189 H189       -3.5551  -15.8455  -45.2181 H         1 UNK         0.3000 
    190 H190       -1.1920  -20.9570  -46.8067 H         1 UNK         0.3000 
    191 H191       -3.0250  -21.6772  -48.8761 H         1 UNK         0.0600 
    192 H192       -4.5132  -19.9979  -47.7436 H         1 UNK         0.0600 
    193 H193       -2.9043  -19.3831  -48.0705 H         1 UNK         0.0600 
    194 H194       -3.3490  -19.8671  -46.4317 H         1 UNK         0.0600 
    195 H195       -2.9919  -22.3981  -45.3610 H         1 UNK         0.3000 
    196 H196       -5.4739  -23.7594  -45.2639 H         1 UNK         0.0600 
    197 H197       -4.2401  -22.9581  -43.2543 H         1 UNK         0.0600 
    198 H198       -2.9737  -24.1517  -43.5369 H         1 UNK         0.0600 
    199 H199       -4.6012  -24.6733  -43.1231 H         1 UNK         0.0600 
    200 H200       -2.1888  -24.9696  -46.0290 H         1 UNK         0.3000 
    201 H201       -2.9921  -27.7448  -46.1606 H         1 UNK         0.0600 
    202 H202       -0.7109  -27.1106  -45.4934 H         1 UNK         0.0600 
    203 H203       -0.4299  -26.3187  -47.0415 H         1 UNK         0.0600 
    204 H204       -0.6474  -28.0642  -46.9676 H         1 UNK         0.0600 
    205 H205       -2.0560  -25.3032  -48.6634 H         1 UNK         0.3000 
    206 H206       -2.5776  -27.2844  -50.7865 H         1 UNK         0.0600 
    207 H207       -1.2970  -24.5192  -50.9127 H         1 UNK         0.0600 
    208 H208       -0.4106  -26.0091  -50.6058 H         1 UNK         0.0600 
    209 H209       -1.2242  -25.7740  -52.1415 H         1 UNK         0.0600 
    210 H210       -4.3450  -24.7004  -49.3740 H         1 UNK         0.3000 
    211 H211       -6.1815  -23.5642  -49.8900 H         1 UNK         0.0600 
    212 H212       -6.7224  -25.6940  -52.0256 H         1 UNK         0.0600 
    213 H213       -7.9004  -24.5983  -51.3032 H         1 UNK         0.0600 
    214 H214       -7.1340  -25.8287  -50.3216 H         1 UNK         0.0600 
    215 H215       -7.0494  -23.7274  -52.9665 H         1 UNK         0.3000 
    216 H216       -6.2875  -21.1129  -53.6581 H         1 UNK         0.0600 
    217 H217       -7.3733  -21.6834  -55.8345 H         1 UNK         0.0600 
    218 H218       -8.3374  -22.2396  -54.4776 H         1 UNK         0.0600 
    219 H219       -7.3683  -23.3889  -55.4019 H         1 UNK         0.0600 
    220 H220       -4.3865  -23.9891  -54.0192 H         1 UNK         0.3000 
    221 H221       -2.7722  -23.0796  -56.2544 H         1 UNK         0.0600 
    222 H222       -2.2181  -25.2025  -54.1255 H         1 UNK         0.0600 
    223 H223       -2.9685  -25.4879  -55.6930 H         1 UNK         0.0600 
    224 H224       -1.2948  -24.9596  -55.6002 H         1 UNK         0.0600 
    225 H225       -2.8477  -22.3962  -52.8111 H         1 UNK         0.3000 
    226 H226       -0.2458  -20.9124  -52.9850 H         1 UNK         0.0600 
    227 H227       -0.0917  -22.5497  -51.2354 H         1 UNK         0.0600 
    228 H228       -0.3600  -21.0015  -50.4539 H         1 UNK         0.0600 
    229 H229       -1.6888  -22.1507  -50.6086 H         1 UNK         0.0600 
    230 H230       -3.6700  -20.7430  -51.8017 H         1 UNK         0.3000 
    231 H231       -3.5527  -18.0093  -51.0191 H         1 UNK         0.0600 
    232 H232       -6.0319  -18.2048  -50.9570 H         1 UNK         0.0600 
    233 H233       -5.2598  -19.5792  -50.1790 H         1 UNK         0.0600 
    234 H234       -5.9479  -19.7515  -51.7895 H         1 UNK         0.0600 
    235 H235       -2.8453  -16.5624  -52.4268 H         1 UNK         0.3000 
    236 H236       -2.6826  -15.0880  -54.0405 H         1 UNK         0.0600 
    237 H237       -5.1958  -16.1666  -55.4093 H         1 UNK         0.0600 
    238 H238       -5.1925  -14.9390  -54.1417 H         1 UNK         0.0600 
    239 H239       -4.4182  -14.6181  -55.6842 H         1 UNK         0.0600 
    240 H240       -1.8948  -18.0659  -54.2063 H         1 UNK         0.3000 
    241 H241       -0.6748  -19.4328  -55.2929 H         1 UNK         0.0600 
    242 H242       -1.8094  -20.9178  -58.2521 H         1 UNK         0.3800 
    243 H243       -1.0454  -21.1074  -56.6871 H         1 UNK         0.3800 
    244 H244        0.3650  -17.0819  -56.9320 H         1 UNK         0.0800 
    245 H245        1.1566  -18.6294  -56.7773 H         1 UNK         0.0800 
    246 H246        1.3934  -19.7293  -54.3562 H         1 UNK         0.0800 
    247 H247        3.0032  -19.0664  -54.4612 H         1 UNK         0.0800 
@<TRIPOS>BOND
     1    1    2 1    
     2    1  127 1    
     3    1  128 1    
     4    1  129 1    
     5    2    3 2    
     6    2    4 am   BACKBONE|DICT|INTERRES
     7    4    5 1    
     8    4  130 1    
     9    5    6 1    
    10    5   65 1    
    11    5  131 1    
    12    6    7 1    
    13    6  132 1    
    14    6  133 1    
    15    7    8 1    
    16    8    9 1    
    17    8  134 1    
    18    8  135 1    
    19    9   10 ar   
    20    9   14 ar   
    21   10   11 ar   
    22   10  136 1    
    23   11   12 ar   
    24   11  126 1    
    25   12   13 ar   
    26   12  137 1    
    27   13   14 ar   
    28   13   15 1    
    29   14  138 1    
    30   15   16 1    
    31   15  139 1    
    32   15  140 1    
    33   16   17 1    
    34   17   18 1    
    35   17  141 1    
    36   17  142 1    
    37   18   19 1    
    38   18   67 1    
    39   18  143 1    
    40   19   20 am   BACKBONE|DICT|INTERRES
    41   19  144 1    
    42   20   21 2    
    43   20   22 1    
    44   22   23 1    
    45   22   24 1    
    46   22  145 1    
    47   23  146 1    
    48   23  147 1    
    49   23  148 1    
    50   24   25 am   BACKBONE|DICT|INTERRES
    51   24  149 1    
    52   25   26 2    
    53   25   27 1    
    54   27   28 1    
    55   27   29 1    
    56   27  150 1    
    57   28  151 1    
    58   28  152 1    
    59   28  153 1    
    60   29   30 am   BACKBONE|DICT|INTERRES
    61   29  154 1    
    62   30   31 2    
    63   30   32 1    
    64   32   33 1    
    65   32   34 1    
    66   32  155 1    
    67   33  156 1    
    68   33  157 1    
    69   33  158 1    
    70   34   35 am   BACKBONE|DICT|INTERRES
    71   34  159 1    
    72   35   36 2    
    73   35   37 1    
    74   37   38 1    
    75   37   39 1    
    76   37  160 1    
    77   38  161 1    
    78   38  162 1    
    79   38  163 1    
    80   39   40 am   BACKBONE|DICT|INTERRES
    81   39  164 1    
    82   40   41 2    
    83   40   42 1    
    84   42   43 1    
    85   42   44 1    
    86   42  165 1    
    87   43  166 1    
    88   43  167 1    
    89   43  168 1    
    90   44   45 am   BACKBONE|DICT|INTERRES
    91   44  169 1    
    92   45   46 2    
    93   45   47 1    
    94   47   48 1    
    95   47   49 1    
    96   47  170 1    
    97   48  171 1    
    98   48  172 1    
    99   48  173 1    
   100   49   50 am   BACKBONE|DICT|INTERRES
   101   49  174 1    
   102   50   51 2    
   103   50   52 1    
   104   52   53 1    
   105   52   54 1    
   106   52  175 1    
   107   53  176 1    
   108   53  177 1    
   109   53  178 1    
   110   54   55 am   BACKBONE|DICT|INTERRES
   111   54  179 1    
   112   55   56 2    
   113   55   57 1    
   114   57   58 1    
   115   57   59 1    
   116   57  180 1    
   117   58  181 1    
   118   58  182 1    
   119   58  183 1    
   120   59   60 am   BACKBONE|DICT|INTERRES
   121   59  184 1    
   122   60   61 2    
   123   60   62 1    
   124   62   63 1    
   125   62   64 1    
   126   62  185 1    
   127   63  186 1    
   128   63  187 1    
   129   63  188 1    
   130   64   65 am   BACKBONE|DICT|INTERRES
   131   64  189 1    
   132   65   66 2    
   133   67   68 2    
   134   67   69 am   BACKBONE|DICT|INTERRES
   135   69   70 1    
   136   69  190 1    
   137   70   71 1    
   138   70   72 1    
   139   70  191 1    
   140   71  192 1    
   141   71  193 1    
   142   71  194 1    
   143   72   73 2    
   144   72   74 am   BACKBONE|DICT|INTERRES
   145   74   75 1    
   146   74  195 1    
   147   75   76 1    
   148   75   77 1    
   149   75  196 1    
   150   76  197 1    
   151   76  198 1    
   152   76  199 1    
   153   77   78 2    
   154   77   79 am   BACKBONE|DICT|INTERRES
   155   79   80 1    
   156   79  200 1    
   157   80   81 1    
   158   80   82 1    
   159   80  201 1    
   160   81  202 1    
   161   81  203 1    
   162   81  204 1    
   163   82   83 2    
   164   82   84 am   BACKBONE|DICT|INTERRES
   165   84   85 1    
   166   84  205 1    
   167   85   86 1    
   168   85   87 1    
   169   85  206 1    
   170   86  207 1    
   171   86  208 1    
   172   86  209 1    
   173   87   88 2    
   174   87   89 am   BACKBONE|DICT|INTERRES
   175   89   90 1    
   176   89  210 1    
   177   90   91 1    
   178   90   92 1    
   179   90  211 1    
   180   91  212 1    
   181   91  213 1    
   182   91  214 1    
   183   92   93 2    
   184   92   94 am   BACKBONE|DICT|INTERRES
   185   94   95 1    
   186   94  215 1    
   187   95   96 1    
   188   95   97 1    
   189   95  216 1    
   190   96  217 1    
   191   96  218 1    
   192   96  219 1    
   193   97   98 2    
   194   97   99 am   BACKBONE|DICT|INTERRES
   195   99  100 1    
   196   99  220 1    
   197  100  101 1    
   198  100  102 1    
   199  100  221 1    
   200  101  222 1    
   201  101  223 1    
   202  101  224 1    
   203  102  103 2    
   204  102  104 am   BACKBONE|DICT|INTERRES
   205  104  105 1    
   206  104  225 1    
   207  105  106 1    
   208  105  107 1    
   209  105  226 1    
   210  106  227 1    
   211  106  228 1    
   212  106  229 1    
   213  107  108 2    
   214  107  109 am   BACKBONE|DICT|INTERRES
   215  109  110 1    
   216  109  230 1    
   217  110  111 1    
   218  110  112 1    
   219  110  231 1    
   220  111  232 1    
   221  111  233 1    
   222  111  234 1    
   223  112  113 2    
   224  112  114 am   BACKBONE|DICT|INTERRES
   225  114  115 1    
   226  114  235 1    
   227  115  116 1    
   228  115  117 1    
   229  115  236 1    
   230  116  237 1    
   231  116  238 1    
   232  116  239 1    
   233  117  118 2    
   234  117  119 am   BACKBONE|DICT|INTERRES
   235  119  120 1    
   236  119  240 1    
   237  120  121 1    
   238  120  124 1    
   239  120  241 1    
   240  121  122 am   BACKBONE|DICT|INTERRES
   241  121  123 2    
   242  122  242 1    
   243  122  243 1    
   244  124  125 1    
   245  124  244 1    
   246  124  245 1    
   247  125  126 1    
   248  126  246 1    
   249  126  247 1    
@<TRIPOS>SUBSTRUCTURE
     1 UNK         1 GROUP             0       ****    0 ROOT    
