@<TRIPOS>MOLECULE
3R540
247   249    1
SMALL
USER_CHARGES


@<TRIPOS>ATOM
      1 CA         -2.5646  -10.8030  -47.9042 C.3       0 UNK        -0.1800 
      2 C          -1.4857  -11.7592  -47.4177 C.2       0 UNK         0.5000 
      3 O          -0.7144  -11.4064  -46.5268 O.2       0 UNK        -0.5000 
      4 N          -1.4364  -12.9712  -47.9877 N.am      1 UNK        -0.5000 
      5 CA         -0.4776  -14.0309  -47.6485 C.3       1 UNK         0.1400 
      6 C6         -0.6046  -15.2295  -48.6215 C.3       23 UNK        -0.0398 
      7 S7          0.7524  -16.4421  -48.4730 S.3       23 UNK        -0.2404 
      8 C8          1.1027  -16.8531  -50.2120 C.3       23 UNK        -0.0205 
      9 C9          1.4140  -18.3331  -50.3774 C.ar      23 UNK        -0.0193 
     10 C10         0.5227  -19.1681  -51.0574 C.ar      23 UNK        -0.1150 
     11 C11         0.8043  -20.5277  -51.2177 C.ar      23 UNK        -0.0193 
     12 C12         1.9883  -21.0498  -50.6916 C.ar      23 UNK        -0.1150 
     13 C13         2.8860  -20.2285  -50.0041 C.ar      23 UNK        -0.0193 
     14 C14         2.5953  -18.8690  -49.8558 C.ar      23 UNK        -0.1150 
     15 C15         4.1761  -20.8019  -49.4328 C.3       23 UNK        -0.0205 
     16 S16         3.9011  -22.2246  -48.3264 S.3       23 UNK        -0.2404 
     17 C17         2.9167  -21.4803  -46.9832 C.3       23 UNK        -0.0398 
     18 CA          1.6725  -22.3300  -46.6243 C.3       11 UNK         0.1400 
     19 N           1.2517  -22.1197  -45.2381 N.am      11 UNK        -0.5000 
     20 C           0.3790  -22.8923  -44.5769 C.2       10 UNK         0.5000 
     21 O          -0.1115  -23.9214  -45.0414 O.2       10 UNK        -0.5000 
     22 CA         -0.0425  -22.4178  -43.1725 C.3       10 UNK         0.1400 
     23 CB          0.9457  -22.9148  -42.1071 C.3       10 UNK        -0.1800 
     24 N          -0.1723  -20.9623  -43.0788 N.am      10 UNK        -0.5000 
     25 C          -1.0737  -20.2371  -43.7561 C.2       9 UNK         0.5000 
     26 O          -1.9270  -20.7265  -44.4944 O.2       9 UNK        -0.5000 
     27 CA         -0.9731  -18.7064  -43.6298 C.3       9 UNK         0.1400 
     28 CB         -1.5938  -18.2315  -42.3054 C.3       9 UNK        -0.1800 
     29 N           0.4054  -18.2222  -43.7437 N.am      9 UNK        -0.5000 
     30 C           1.1858  -18.3944  -44.8220 C.2       8 UNK         0.5000 
     31 O           0.8021  -18.9281  -45.8607 O.2       8 UNK        -0.5000 
     32 CA          2.6657  -17.9914  -44.6921 C.3       8 UNK         0.1400 
     33 CB          2.8815  -16.4974  -44.9676 C.3       8 UNK        -0.1800 
     34 N           3.2073  -18.3352  -43.3784 N.am      8 UNK        -0.5000 
     35 C           3.4377  -19.5888  -42.9636 C.2       7 UNK         0.5000 
     36 O           3.2652  -20.5824  -43.6678 O.2       7 UNK        -0.5000 
     37 CA          3.8916  -19.7603  -41.5026 C.3       7 UNK         0.1400 
     38 CB          5.4090  -19.5574  -41.3788 C.3       7 UNK        -0.1800 
     39 N           3.2030  -18.8388  -40.5979 N.am      7 UNK        -0.5000 
     40 C           1.8911  -18.8857  -40.3240 C.2       6 UNK         0.5000 
     41 O           1.1390  -19.7616  -40.7494 O.2       6 UNK        -0.5000 
     42 CA          1.3184  -17.7300  -39.4797 C.3       6 UNK         0.1400 
     43 CB          1.3966  -18.0638  -37.9829 C.3       6 UNK        -0.1800 
     44 N           1.9998  -16.4561  -39.7324 N.am      6 UNK        -0.5000 
     45 C           1.9597  -15.8005  -40.8995 C.2       5 UNK         0.5000 
     46 O           1.2974  -16.1732  -41.8706 O.2       5 UNK        -0.5000 
     47 CA          2.8794  -14.5808  -41.0279 C.3       5 UNK         0.1400 
     48 CB          4.3181  -15.0463  -41.3376 C.3       5 UNK        -0.1800 
     49 N           2.3819  -13.7135  -42.0919 N.am      5 UNK        -0.5000 
     50 C           2.8217  -12.4779  -42.3598 C.2       4 UNK         0.5000 
     51 O           3.7050  -11.9087  -41.7169 O.2       4 UNK        -0.5000 
     52 CA          2.1554  -11.7432  -43.5359 C.3       4 UNK         0.1400 
     53 CB          2.7645  -12.1919  -44.8735 C.3       4 UNK        -0.1800 
     54 N           0.7040  -11.9249  -43.5673 N.am      4 UNK        -0.5000 
     55 C          -0.1459  -11.3523  -42.7003 C.2       3 UNK         0.5000 
     56 O           0.2180  -10.6340  -41.7682 O.2       3 UNK        -0.5000 
     57 CA         -1.6542  -11.5973  -42.9029 C.3       3 UNK         0.1400 
     58 CB         -2.3270  -10.3631  -43.5247 C.3       3 UNK        -0.1800 
     59 N          -1.9275  -12.7618  -43.7428 N.am      3 UNK        -0.5000 
     60 C          -1.9380  -14.0255  -43.2996 C.2       2 UNK         0.5000 
     61 O          -1.7916  -14.3317  -42.1165 O.2       2 UNK        -0.5000 
     62 CA         -2.1342  -15.1369  -44.3494 C.3       2 UNK         0.1400 
     63 CB         -3.5579  -15.7098  -44.2882 C.3       2 UNK        -0.1800 
     64 N          -1.8411  -14.7206  -45.7225 N.am      2 UNK        -0.5000 
     65 C          -0.6049  -14.4636  -46.1717 C.2       1 UNK         0.5000 
     66 O           0.3923  -14.4936  -45.4530 O.2       1 UNK        -0.5000 
     67 C           0.4998  -22.1209  -47.6078 C.2       11 UNK         0.5000 
     68 O           0.2682  -22.9755  -48.4624 O.2       11 UNK        -0.5000 
     69 N          -0.2605  -21.0300  -47.4294 N.am      12 UNK        -0.5000 
     70 CA         -1.4690  -20.7193  -48.1961 C.3       12 UNK         0.1400 
     71 CB         -1.9833  -19.3233  -47.8154 C.3       12 UNK        -0.1800 
     72 C          -2.5736  -21.7779  -48.0312 C.2       12 UNK         0.5000 
     73 O          -3.1872  -22.1705  -49.0234 O.2       12 UNK        -0.5000 
     74 N          -2.7623  -22.2642  -46.7954 N.am      13 UNK        -0.5000 
     75 CA         -3.7298  -23.3012  -46.4271 C.3       13 UNK         0.1400 
     76 CB         -3.7224  -23.4949  -44.9036 C.3       13 UNK        -0.1800 
     77 C          -3.5286  -24.6507  -47.1445 C.2       13 UNK         0.5000 
     78 O          -4.4960  -25.3991  -47.2891 O.2       13 UNK        -0.5000 
     79 N          -2.3094  -24.9280  -47.6315 N.am      14 UNK        -0.5000 
     80 CA         -2.0011  -26.0903  -48.4706 C.3       14 UNK         0.1400 
     81 CB         -0.4785  -26.2364  -48.6077 C.3       14 UNK        -0.1800 
     82 C          -2.6714  -26.0314  -49.8610 C.2       14 UNK         0.5000 
     83 O          -2.8569  -27.0779  -50.4827 O.2       14 UNK        -0.5000 
     84 N          -3.0523  -24.8256  -50.3046 N.am      15 UNK        -0.5000 
     85 CA         -3.8390  -24.5632  -51.5090 C.3       15 UNK         0.1400 
     86 CB         -3.0961  -23.5243  -52.3664 C.3       15 UNK        -0.1800 
     87 C          -5.2656  -24.1001  -51.1426 C.2       15 UNK         0.5000 
     88 O          -5.9125  -23.4269  -51.9479 O.2       15 UNK        -0.5000 
     89 N          -5.7329  -24.4571  -49.9347 N.am      16 UNK        -0.5000 
     90 CA         -7.0231  -24.1126  -49.3328 C.3       16 UNK         0.1400 
     91 CB         -8.1810  -24.8109  -50.0808 C.3       16 UNK        -0.1800 
     92 C          -7.1923  -22.5868  -49.1966 C.2       16 UNK         0.5000 
     93 O          -6.6103  -21.9934  -48.2889 O.2       16 UNK        -0.5000 
     94 N          -7.9697  -21.9785  -50.1004 N.am      17 UNK        -0.5000 
     95 CA         -8.1634  -20.5310  -50.1934 C.3       17 UNK         0.1400 
     96 CB         -9.4602  -20.2618  -50.9744 C.3       17 UNK        -0.1800 
     97 C          -6.9786  -19.7991  -50.8577 C.2       17 UNK         0.5000 
     98 O          -6.9155  -18.5724  -50.7720 O.2       17 UNK        -0.5000 
     99 N          -6.0933  -20.5490  -51.5352 N.am      18 UNK        -0.5000 
    100 CA        -4.9628  -20.0794  -52.3457 C.3       18 UNK         0.1400 
    101 CB        -3.9009  -19.3676  -51.4814 C.3       18 UNK        -0.1800 
    102 C         -5.4033  -19.2618  -53.5787 C.2       18 UNK         0.5000 
    103 O         -4.6520  -18.4124  -54.0604 O.2       18 UNK        -0.5000 
    104 N         -6.6083  -19.5586  -54.0846 N.am      19 UNK        -0.5000 
    105 CA        -7.1881  -18.9665  -55.2916 C.3       19 UNK         0.1400 
    106 CB        -8.7194  -19.0451  -55.1841 C.3       19 UNK        -0.1800 
    107 C         -6.7006  -19.6513  -56.5851 C.2       19 UNK         0.5000 
    108 O         -6.8764  -19.0914  -57.6681 O.2       19 UNK        -0.5000 
    109 N         -6.1077  -20.8428  -56.4518 N.am      20 UNK        -0.5000 
    110 CA        -5.4969  -21.6299  -57.5175 C.3       20 UNK         0.1400 
    111 CB        -6.3287  -22.9049  -57.7312 C.3       20 UNK        -0.1800 
    112 C         -4.0585  -21.9795  -57.1084 C.2       20 UNK         0.5000 
    113 O         -3.7246  -21.9078  -55.9209 O.2       20 UNK        -0.5000 
    114 N         -3.2353  -22.3519  -58.0989 N.am      21 UNK        -0.5000 
    115 CA        -1.8022  -22.6447  -57.9823 C.3       21 UNK         0.1400 
    116 CB        -1.5719  -23.9450  -57.1765 C.3       21 UNK        -0.1800 
    117 C         -1.0386  -21.4159  -57.4446 C.2       21 UNK         0.5000 
    118 O         -1.0091  -20.3876  -58.1234 O.2       21 UNK        -0.5000 
    119 N         -0.4710  -21.5261  -56.2392 N.am      22 UNK        -0.5000 
    120 CA         0.1152  -20.4145  -55.4749 C.3       22 UNK         0.1400 
    121 C         -0.9184  -19.4198  -54.8654 C.2       22 UNK         0.5000 
    122 N         -2.2128  -19.7101  -54.8791 N.am      22 UNK        -0.7600 
    123 O         -0.5373  -18.3537  -54.3910 O.2       22 UNK        -0.5000 
    124 C124        1.1326  -20.9176  -54.4177 C.3       23 UNK        -0.0398 
    125 S125        0.5326  -22.2953  -53.3713 S.3       23 UNK        -0.2404 
    126 C126       -0.1860  -21.4346  -51.9341 C.3       23 UNK        -0.0205 
    127 H127       -3.2130  -10.5177  -47.0757 H         1 UNK         0.0600 
    128 H128       -3.1830  -11.2501  -48.6827 H         1 UNK         0.0600 
    129 H129       -2.1088   -9.8991  -48.3081 H         1 UNK         0.0600 
    130 H130       -2.1011  -13.1943  -48.7149 H         1 UNK         0.3000 
    131 H131        0.5199  -13.6034  -47.7735 H         1 UNK         0.0600 
    132 H132       -0.6194  -14.8510  -49.6442 H         1 UNK         0.0800 
    133 H133       -1.5526  -15.7518  -48.4811 H         1 UNK         0.0800 
    134 H134        1.9485  -16.2582  -50.5592 H         1 UNK         0.0800 
    135 H135        0.2555  -16.5823  -50.8436 H         1 UNK         0.0800 
    136 H136       -0.3928  -18.7595  -51.4620 H         1 UNK         0.1150 
    137 H137        2.2036  -22.1029  -50.8067 H         1 UNK         0.1150 
    138 H138        3.2826  -18.2232  -49.3276 H         1 UNK         0.1150 
    139 H139        4.8129  -21.1185  -50.2597 H         1 UNK         0.0800 
    140 H140        4.7348  -20.0382  -48.8893 H         1 UNK         0.0800 
    141 H141        2.6407  -20.4520  -47.2214 H         1 UNK         0.0800 
    142 H142        3.5846  -21.4152  -46.1242 H         1 UNK         0.0800 
    143 H143        1.9596  -23.3820  -46.6918 H         1 UNK         0.0600 
    144 H144        1.6535  -21.3232  -44.7571 H         1 UNK         0.3000 
    145 H145       -1.0202  -22.8527  -42.9559 H         1 UNK         0.0600 
    146 H146        0.6169  -22.6379  -41.1052 H         1 UNK         0.0600 
    147 H147        1.9430  -22.5012  -42.2570 H         1 UNK         0.0600 
    148 H148        1.0333  -24.0016  -42.1329 H         1 UNK         0.0600 
    149 H149        0.4576  -20.4864  -42.4396 H         1 UNK         0.3000 
    150 H150       -1.5408  -18.2686  -44.4529 H         1 UNK         0.0600 
    151 H151       -2.6693  -18.4117  -42.2992 H         1 UNK         0.0600 
    152 H152       -1.4403  -17.1656  -42.1415 H         1 UNK         0.0600 
    153 H153       -1.1750  -18.7565  -41.4479 H         1 UNK         0.0600 
    154 H154        0.7816  -17.7127  -42.9500 H         1 UNK         0.3000 
    155 H155        3.2251  -18.5496  -45.4459 H         1 UNK         0.0600 
    156 H156        2.5136  -16.2290  -45.9581 H         1 UNK         0.0600 
    157 H157        3.9392  -16.2370  -44.9334 H         1 UNK         0.0600 
    158 H158        2.3594  -15.8710  -44.2458 H         1 UNK         0.0600 
    159 H159        3.3258  -17.5775  -42.7245 H         1 UNK         0.3000 
    160 H160        3.6554  -20.7816  -41.1962 H         1 UNK         0.0600 
    161 H161        5.7054  -18.5432  -41.6497 H         1 UNK         0.0600 
    162 H162        5.9482  -20.2433  -42.0337 H         1 UNK         0.0600 
    163 H163        5.7500  -19.7466  -40.3608 H         1 UNK         0.0600 
    164 H164        3.7540  -18.0970  -40.1933 H         1 UNK         0.3000 
    165 H165        0.2669  -17.6110  -39.7490 H         1 UNK         0.0600 
    166 H166        0.9278  -17.2855  -37.3805 H         1 UNK         0.0600 
    167 H167        0.8780  -18.9984  -37.7646 H         1 UNK         0.0600 
    168 H168        2.4282  -18.1744  -37.6466 H         1 UNK         0.0600 
    169 H169        2.5675  -16.0915  -38.9806 H         1 UNK         0.3000 
    170 H170        2.8611  -14.0296  -40.0857 H         1 UNK         0.0600 
    171 H171        4.3796  -15.5416  -42.3071 H         1 UNK         0.0600 
    172 H172        5.0176  -14.2109  -41.3486 H         1 UNK         0.0600 
    173 H173        4.6798  -15.7480  -40.5852 H         1 UNK         0.0600 
    174 H174        1.6341  -14.1141  -42.6457 H         1 UNK         0.3000 
    175 H175        2.3573  -10.6760  -43.4210 H         1 UNK         0.0600 
    176 H176        2.6671  -13.2672  -45.0239 H         1 UNK         0.0600 
    177 H177        2.2858  -11.6906  -45.7151 H         1 UNK         0.0600 
    178 H178        3.8282  -11.9545  -44.9134 H         1 UNK         0.0600 
    179 H179        0.3360  -12.5091  -44.3075 H         1 UNK         0.3000 
    180 H180       -2.0961  -11.7570  -41.9170 H         1 UNK         0.0600 
    181 H181       -3.3996  -10.5161  -43.6451 H         1 UNK         0.0600 
    182 H182       -1.9097  -10.1230  -44.5027 H         1 UNK         0.0600 
    183 H183       -2.1941   -9.4862  -42.8898 H         1 UNK         0.0600 
    184 H184       -2.0220  -12.5933  -44.7340 H         1 UNK         0.3000 
    185 H185       -1.4313  -15.9295  -44.0953 H         1 UNK         0.0600 
    186 H186       -4.3036  -14.9633  -44.5637 H         1 UNK         0.0600 
    187 H187       -3.6689  -16.5623  -44.9588 H         1 UNK         0.0600 
    188 H188       -3.7967  -16.0573  -43.2821 H         1 UNK         0.0600 
    189 H189       -2.6241  -14.6363  -46.3542 H         1 UNK         0.3000 
    190 H190        0.0235  -20.3428  -46.7339 H         1 UNK         0.3000 
    191 H191       -1.1954  -20.6985  -49.2506 H         1 UNK         0.0600 
    192 H192       -1.2303  -18.5629  -48.0170 H         1 UNK         0.0600 
    193 H193       -2.2445  -19.2617  -46.7591 H         1 UNK         0.0600 
    194 H194       -2.8721  -19.0621  -48.3906 H         1 UNK         0.0600 
    195 H195       -2.2459  -21.8405  -46.0290 H         1 UNK         0.3000 
    196 H196       -4.7163  -22.9339  -46.7118 H         1 UNK         0.0600 
    197 H197       -3.9654  -22.5670  -44.3859 H         1 UNK         0.0600 
    198 H198       -2.7512  -23.8358  -44.5465 H         1 UNK         0.0600 
    199 H199       -4.4619  -24.2370  -44.6001 H         1 UNK         0.0600 
    200 H200       -1.5632  -24.2595  -47.4870 H         1 UNK         0.3000 
    201 H201       -2.3801  -26.9779  -47.9597 H         1 UNK         0.0600 
    202 H202        0.0127  -26.2271  -47.6344 H         1 UNK         0.0600 
    203 H203       -0.0499  -25.4358  -49.2104 H         1 UNK         0.0600 
    204 H204       -0.2228  -27.1785  -49.0939 H         1 UNK         0.0600 
    205 H205       -2.8906  -24.0127  -49.7162 H         1 UNK         0.3000 
    206 H206       -3.9478  -25.4729  -52.1020 H         1 UNK         0.0600 
    207 H207       -2.9855  -22.5783  -51.8364 H         1 UNK         0.0600 
    208 H208       -2.1000  -23.8773  -52.6327 H         1 UNK         0.0600 
    209 H209       -3.6248  -23.3241  -53.2994 H         1 UNK         0.0600 
    210 H210       -5.1095  -24.9699  -49.3233 H         1 UNK         0.3000 
    211 H211       -7.0057  -24.5094  -48.3166 H         1 UNK         0.0600 
    212 H212       -8.2323  -24.5301  -51.1330 H         1 UNK         0.0600 
    213 H213       -9.1426  -24.5700  -49.6256 H         1 UNK         0.0600 
    214 H214       -8.0696  -25.8944  -50.0379 H         1 UNK         0.0600 
    215 H215       -8.3929  -22.5418  -50.8239 H         1 UNK         0.3000 
    216 H216       -8.2791  -20.1242  -49.1865 H         1 UNK         0.0600 
    217 H217       -9.6634  -19.1920  -51.0401 H         1 UNK         0.0600 
    218 H218      -10.3182  -20.7236  -50.4855 H         1 UNK         0.0600 
    219 H219       -9.4055  -20.6477  -51.9931 H         1 UNK         0.0600 
    220 H220       -6.2296  -21.5565  -51.5445 H         1 UNK         0.3000 
    221 H221       -4.4973  -20.9767  -52.7528 H         1 UNK         0.0600 
    222 H222       -4.2667  -18.4221  -51.0813 H         1 UNK         0.0600 
    223 H223       -3.5975  -19.9933  -50.6429 H         1 UNK         0.0600 
    224 H224       -3.0031  -19.1502  -52.0607 H         1 UNK         0.0600 
    225 H225       -7.1568  -20.2675  -53.6208 H         1 UNK         0.3000 
    226 H226       -6.9023  -17.9139  -55.3462 H         1 UNK         0.0600 
    227 H227       -9.0793  -18.5254  -54.2957 H         1 UNK         0.0600 
    228 H228       -9.1966  -18.5794  -56.0473 H         1 UNK         0.0600 
    229 H229       -9.0675  -20.0776  -55.1336 H         1 UNK         0.0600 
    230 H230       -5.9270  -21.1864  -55.5192 H         1 UNK         0.3000 
    231 H231       -5.4605  -21.0590  -58.4475 H         1 UNK         0.0600 
    232 H232       -5.9115  -23.5184  -58.5306 H         1 UNK         0.0600 
    233 H233       -7.3542  -22.6622  -58.0102 H         1 UNK         0.0600 
    234 H234       -6.3637  -23.5182  -56.8296 H         1 UNK         0.0600 
    235 H235       -3.5977  -22.3593  -59.0421 H         1 UNK         0.3000 
    236 H236       -1.4331  -22.8155  -58.9946 H         1 UNK         0.0600 
    237 H237       -1.9329  -23.8722  -56.1501 H         1 UNK         0.0600 
    238 H238       -2.0856  -24.7850  -57.6439 H         1 UNK         0.0600 
    239 H239       -0.5121  -24.2004  -57.1388 H         1 UNK         0.0600 
    240 H240       -0.5645  -22.3955  -55.7340 H         1 UNK         0.3000 
    241 H241        0.6863  -19.8128  -56.1846 H         1 UNK         0.0600 
    242 H242       -2.8840  -19.0378  -54.5248 H         1 UNK         0.3800 
    243 H243       -2.5542  -20.5823  -55.2721 H         1 UNK         0.3800 
    244 H244        1.4990  -20.0977  -53.7984 H         1 UNK         0.0800 
    245 H245        2.0159  -21.2884  -54.9389 H         1 UNK         0.0800 
    246 H246       -0.5431  -22.1827  -51.2247 H         1 UNK         0.0800 
    247 H247       -1.0652  -20.8760  -52.2570 H         1 UNK         0.0800 
@<TRIPOS>BOND
     1    1    2 1    
     2    1  127 1    
     3    1  128 1    
     4    1  129 1    
     5    2    3 2    
     6    2    4 am   BACKBONE|DICT|INTERRES
     7    4    5 1    
     8    4  130 1    
     9    5    6 1    
    10    5   65 1    
    11    5  131 1    
    12    6    7 1    
    13    6  132 1    
    14    6  133 1    
    15    7    8 1    
    16    8    9 1    
    17    8  134 1    
    18    8  135 1    
    19    9   10 ar   
    20    9   14 ar   
    21   10   11 ar   
    22   10  136 1    
    23   11   12 ar   
    24   11  126 1    
    25   12   13 ar   
    26   12  137 1    
    27   13   14 ar   
    28   13   15 1    
    29   14  138 1    
    30   15   16 1    
    31   15  139 1    
    32   15  140 1    
    33   16   17 1    
    34   17   18 1    
    35   17  141 1    
    36   17  142 1    
    37   18   19 1    
    38   18   67 1    
    39   18  143 1    
    40   19   20 am   BACKBONE|DICT|INTERRES
    41   19  144 1    
    42   20   21 2    
    43   20   22 1    
    44   22   23 1    
    45   22   24 1    
    46   22  145 1    
    47   23  146 1    
    48   23  147 1    
    49   23  148 1    
    50   24   25 am   BACKBONE|DICT|INTERRES
    51   24  149 1    
    52   25   26 2    
    53   25   27 1    
    54   27   28 1    
    55   27   29 1    
    56   27  150 1    
    57   28  151 1    
    58   28  152 1    
    59   28  153 1    
    60   29   30 am   BACKBONE|DICT|INTERRES
    61   29  154 1    
    62   30   31 2    
    63   30   32 1    
    64   32   33 1    
    65   32   34 1    
    66   32  155 1    
    67   33  156 1    
    68   33  157 1    
    69   33  158 1    
    70   34   35 am   BACKBONE|DICT|INTERRES
    71   34  159 1    
    72   35   36 2    
    73   35   37 1    
    74   37   38 1    
    75   37   39 1    
    76   37  160 1    
    77   38  161 1    
    78   38  162 1    
    79   38  163 1    
    80   39   40 am   BACKBONE|DICT|INTERRES
    81   39  164 1    
    82   40   41 2    
    83   40   42 1    
    84   42   43 1    
    85   42   44 1    
    86   42  165 1    
    87   43  166 1    
    88   43  167 1    
    89   43  168 1    
    90   44   45 am   BACKBONE|DICT|INTERRES
    91   44  169 1    
    92   45   46 2    
    93   45   47 1    
    94   47   48 1    
    95   47   49 1    
    96   47  170 1    
    97   48  171 1    
    98   48  172 1    
    99   48  173 1    
   100   49   50 am   BACKBONE|DICT|INTERRES
   101   49  174 1    
   102   50   51 2    
   103   50   52 1    
   104   52   53 1    
   105   52   54 1    
   106   52  175 1    
   107   53  176 1    
   108   53  177 1    
   109   53  178 1    
   110   54   55 am   BACKBONE|DICT|INTERRES
   111   54  179 1    
   112   55   56 2    
   113   55   57 1    
   114   57   58 1    
   115   57   59 1    
   116   57  180 1    
   117   58  181 1    
   118   58  182 1    
   119   58  183 1    
   120   59   60 am   BACKBONE|DICT|INTERRES
   121   59  184 1    
   122   60   61 2    
   123   60   62 1    
   124   62   63 1    
   125   62   64 1    
   126   62  185 1    
   127   63  186 1    
   128   63  187 1    
   129   63  188 1    
   130   64   65 am   BACKBONE|DICT|INTERRES
   131   64  189 1    
   132   65   66 2    
   133   67   68 2    
   134   67   69 am   BACKBONE|DICT|INTERRES
   135   69   70 1    
   136   69  190 1    
   137   70   71 1    
   138   70   72 1    
   139   70  191 1    
   140   71  192 1    
   141   71  193 1    
   142   71  194 1    
   143   72   73 2    
   144   72   74 am   BACKBONE|DICT|INTERRES
   145   74   75 1    
   146   74  195 1    
   147   75   76 1    
   148   75   77 1    
   149   75  196 1    
   150   76  197 1    
   151   76  198 1    
   152   76  199 1    
   153   77   78 2    
   154   77   79 am   BACKBONE|DICT|INTERRES
   155   79   80 1    
   156   79  200 1    
   157   80   81 1    
   158   80   82 1    
   159   80  201 1    
   160   81  202 1    
   161   81  203 1    
   162   81  204 1    
   163   82   83 2    
   164   82   84 am   BACKBONE|DICT|INTERRES
   165   84   85 1    
   166   84  205 1    
   167   85   86 1    
   168   85   87 1    
   169   85  206 1    
   170   86  207 1    
   171   86  208 1    
   172   86  209 1    
   173   87   88 2    
   174   87   89 am   BACKBONE|DICT|INTERRES
   175   89   90 1    
   176   89  210 1    
   177   90   91 1    
   178   90   92 1    
   179   90  211 1    
   180   91  212 1    
   181   91  213 1    
   182   91  214 1    
   183   92   93 2    
   184   92   94 am   BACKBONE|DICT|INTERRES
   185   94   95 1    
   186   94  215 1    
   187   95   96 1    
   188   95   97 1    
   189   95  216 1    
   190   96  217 1    
   191   96  218 1    
   192   96  219 1    
   193   97   98 2    
   194   97   99 am   BACKBONE|DICT|INTERRES
   195   99  100 1    
   196   99  220 1    
   197  100  101 1    
   198  100  102 1    
   199  100  221 1    
   200  101  222 1    
   201  101  223 1    
   202  101  224 1    
   203  102  103 2    
   204  102  104 am   BACKBONE|DICT|INTERRES
   205  104  105 1    
   206  104  225 1    
   207  105  106 1    
   208  105  107 1    
   209  105  226 1    
   210  106  227 1    
   211  106  228 1    
   212  106  229 1    
   213  107  108 2    
   214  107  109 am   BACKBONE|DICT|INTERRES
   215  109  110 1    
   216  109  230 1    
   217  110  111 1    
   218  110  112 1    
   219  110  231 1    
   220  111  232 1    
   221  111  233 1    
   222  111  234 1    
   223  112  113 2    
   224  112  114 am   BACKBONE|DICT|INTERRES
   225  114  115 1    
   226  114  235 1    
   227  115  116 1    
   228  115  117 1    
   229  115  236 1    
   230  116  237 1    
   231  116  238 1    
   232  116  239 1    
   233  117  118 2    
   234  117  119 am   BACKBONE|DICT|INTERRES
   235  119  120 1    
   236  119  240 1    
   237  120  121 1    
   238  120  124 1    
   239  120  241 1    
   240  121  122 am   BACKBONE|DICT|INTERRES
   241  121  123 2    
   242  122  242 1    
   243  122  243 1    
   244  124  125 1    
   245  124  244 1    
   246  124  245 1    
   247  125  126 1    
   248  126  246 1    
   249  126  247 1    
@<TRIPOS>SUBSTRUCTURE
     1 UNK         1 GROUP             0       ****    0 ROOT    
