@<TRIPOS>MOLECULE
3R540
247   249    1
SMALL
USER_CHARGES


@<TRIPOS>ATOM
      1 CA         -2.2763  -11.8031  -52.7180 C.3       0 UNK        -0.1800 
      2 C          -1.4179  -11.9261  -51.4668 C.2       0 UNK         0.5000 
      3 O          -0.3796  -11.2713  -51.3693 O.2       0 UNK        -0.5000 
      4 N          -1.8435  -12.7649  -50.5151 N.am      1 UNK        -0.5000 
      5 CA         -1.1833  -12.9726  -49.2242 C.3       1 UNK         0.1400 
      6 C6         -1.6934  -14.2649  -48.5400 C.3       23 UNK        -0.0398 
      7 S7         -0.4637  -15.0157  -47.4148 S.3       23 UNK        -0.2404 
      8 C8          0.6554  -15.9175  -48.5408 C.3       23 UNK        -0.0205 
      9 C9         -0.0873  -16.7605  -49.5674 C.ar      23 UNK        -0.0193 
     10 C10        -0.1130  -16.3659  -50.9099 C.ar      23 UNK        -0.1150 
     11 C11        -0.8296  -17.1065  -51.8534 C.ar      23 UNK        -0.0193 
     12 C12        -1.5062  -18.2575  -51.4459 C.ar      23 UNK        -0.1150 
     13 C13        -1.5090  -18.6499  -50.1072 C.ar      23 UNK        -0.0193 
     14 C14        -0.7850  -17.9061  -49.1714 C.ar      23 UNK        -0.1150 
     15 C15        -2.3491  -19.8425  -49.6839 C.3       23 UNK        -0.0205 
     16 S16        -1.3828  -21.3804  -49.6181 S.3       23 UNK        -0.2404 
     17 C17        -0.6935  -21.2785  -47.9341 C.3       23 UNK        -0.0398 
     18 CA         -0.7639  -22.6038  -47.1412 C.3       11 UNK         0.1400 
     19 N           0.0078  -22.4959  -45.9024 N.am      11 UNK        -0.5000 
     20 C           0.3198  -23.5140  -45.0917 C.2       10 UNK         0.5000 
     21 O           0.0033  -24.6821  -45.3077 O.2       10 UNK        -0.5000 
     22 CA          1.0687  -23.1596  -43.7957 C.3       10 UNK         0.1400 
     23 CB          2.5554  -22.8983  -44.0775 C.3       10 UNK        -0.1800 
     24 N           0.4816  -22.0085  -43.1081 N.am      10 UNK        -0.5000 
     25 C          -0.7623  -21.9850  -42.6076 C.2       9 UNK         0.5000 
     26 O          -1.5310  -22.9460  -42.6445 O.2       9 UNK        -0.5000 
     27 CA         -1.2453  -20.6576  -41.9973 C.3       9 UNK         0.1400 
     28 CB         -0.6836  -20.4735  -40.5798 C.3       9 UNK        -0.1800 
     29 N          -0.9046  -19.4939  -42.8159 N.am      9 UNK        -0.5000 
     30 C          -1.3500  -19.2761  -44.0620 C.2       8 UNK         0.5000 
     31 O          -2.1117  -20.0323  -44.6629 O.2       8 UNK        -0.5000 
     32 CA         -0.8033  -18.0304  -44.7810 C.3       8 UNK         0.1400 
     33 CB         -1.4487  -16.7508  -44.2264 C.3       8 UNK        -0.1800 
     34 N           0.6537  -17.9380  -44.6892 N.am      8 UNK        -0.5000 
     35 C           1.5086  -18.8679  -45.1407 C.2       7 UNK         0.5000 
     36 O           1.1660  -19.8832  -45.7446 O.2       7 UNK        -0.5000 
     37 CA          2.9938  -18.6584  -44.8103 C.3       7 UNK         0.1400 
     38 CB          3.6481  -17.7064  -45.8223 C.3       7 UNK        -0.1800 
     39 N           3.1761  -18.1561  -43.4478 N.am      7 UNK        -0.5000 
     40 C           2.9443  -18.8806  -42.3427 C.2       6 UNK         0.5000 
     41 O           2.5944  -20.0607  -42.3596 O.2       6 UNK        -0.5000 
     42 CA          3.0850  -18.1518  -40.9936 C.3       6 UNK         0.1400 
     43 CB          4.5569  -18.0910  -40.5592 C.3       6 UNK        -0.1800 
     44 N           2.5311  -16.7977  -41.0293 N.am      6 UNK        -0.5000 
     45 C           1.2286  -16.5181  -41.1789 C.2       5 UNK         0.5000 
     46 O           0.3510  -17.3781  -41.2439 O.2       5 UNK        -0.5000 
     47 CA          0.8473  -15.0321  -41.3272 C.3       5 UNK         0.1400 
     48 CB          0.5666  -14.4071  -39.9531 C.3       5 UNK        -0.1800 
     49 N           1.8563  -14.2299  -42.0253 N.am      5 UNK        -0.5000 
     50 C           2.2891  -14.4458  -43.2737 C.2       4 UNK         0.5000 
     51 O           1.8791  -15.3672  -43.9812 O.2       4 UNK        -0.5000 
     52 CA          3.3574  -13.4692  -43.8030 C.3       4 UNK         0.1400 
     53 CB          3.9943  -13.9466  -45.1197 C.3       4 UNK        -0.1800 
     54 N           2.8082  -12.1330  -44.0131 N.am      4 UNK        -0.5000 
     55 C           2.5375  -11.2232  -43.0726 C.2       3 UNK         0.5000 
     56 O           2.7142  -11.4229  -41.8695 O.2       3 UNK        -0.5000 
     57 CA          1.9756   -9.8640  -43.5415 C.3       3 UNK         0.1400 
     58 CB          3.1156   -8.9219  -43.9731 C.3       3 UNK        -0.1800 
     59 N           0.9244   -9.9268  -44.5712 N.am      3 UNK        -0.5000 
     60 C           0.9984  -10.3656  -45.8355 C.2       2 UNK         0.5000 
     61 O           2.0096  -10.8553  -46.3466 O.2       2 UNK        -0.5000 
     62 CA         -0.2748  -10.2269  -46.6783 C.3       2 UNK         0.1400 
     63 CB         -0.3123   -8.8626  -47.3914 C.3       2 UNK        -0.1800 
     64 N          -0.2964  -11.3118  -47.6522 N.am      2 UNK        -0.5000 
     65 C          -1.3748  -11.7440  -48.3109 C.2       1 UNK         0.5000 
     66 O          -2.4938  -11.2352  -48.2024 O.2       1 UNK        -0.5000 
     67 C          -2.2124  -23.0765  -46.8786 C.2       11 UNK         0.5000 
     68 O          -2.7123  -23.9389  -47.6045 O.2       11 UNK        -0.5000 
     69 N          -2.8485  -22.5496  -45.8223 N.am      12 UNK        -0.5000 
     70 CA         -4.1716  -22.9707  -45.3592 C.3       12 UNK         0.1400 
     71 CB         -4.6612  -22.0335  -44.2461 C.3       12 UNK        -0.1800 
     72 C          -4.2115  -24.4390  -44.9011 C.2       12 UNK         0.5000 
     73 O          -5.1788  -25.1376  -45.2013 O.2       12 UNK        -0.5000 
     74 N          -3.1591  -24.8850  -44.2052 N.am      13 UNK        -0.5000 
     75 CA         -3.0109  -26.2596  -43.7366 C.3       13 UNK         0.1400 
     76 CB         -1.9346  -26.3118  -42.6403 C.3       13 UNK        -0.1800 
     77 C          -2.6849  -27.2451  -44.8736 C.2       13 UNK         0.5000 
     78 O          -3.3498  -28.2751  -44.9926 O.2       13 UNK        -0.5000 
     79 N          -1.6517  -26.9326  -45.6661 N.am      14 UNK        -0.5000 
     80 CA         -1.0632  -27.8551  -46.6368 C.3       14 UNK         0.1400 
     81 CB          0.4113  -27.4825  -46.8572 C.3       14 UNK        -0.1800 
     82 C          -1.7990  -27.8990  -47.9850 C.2       14 UNK         0.5000 
     83 O          -1.8592  -28.9685  -48.5935 O.2       14 UNK        -0.5000 
     84 N          -2.3096  -26.7504  -48.4465 N.am      15 UNK        -0.5000 
     85 CA         -2.8474  -26.5748  -49.7989 C.3       15 UNK         0.1400 
     86 CB         -1.9358  -25.6011  -50.5664 C.3       15 UNK        -0.1800 
     87 C          -4.3048  -26.0857  -49.8017 C.2       15 UNK         0.5000 
     88 O          -4.7995  -25.6893  -50.8573 O.2       15 UNK        -0.5000 
     89 N          -4.9634  -26.0778  -48.6317 N.am      16 UNK        -0.5000 
     90 CA         -6.3357  -25.5979  -48.4036 C.3       16 UNK         0.1400 
     91 CB         -7.3550  -26.5314  -49.0901 C.3       16 UNK        -0.1800 
     92 C          -6.5385  -24.1139  -48.7904 C.2       16 UNK         0.5000 
     93 O          -7.6525  -23.7122  -49.1293 O.2       16 UNK        -0.5000 
     94 N          -5.4432  -23.3397  -48.7554 N.am      17 UNK        -0.5000 
     95 CA         -5.3079  -21.9486  -49.1923 C.3       17 UNK         0.1400 
     96 CB         -6.1791  -21.0015  -48.3402 C.3       17 UNK        -0.1800 
     97 C          -5.5068  -21.7377  -50.7119 C.2       17 UNK         0.5000 
     98 O          -5.7546  -20.6074  -51.1337 O.2       17 UNK        -0.5000 
     99 N          -5.3786  -22.8042  -51.5120 N.am      18 UNK        -0.5000 
    100 CA        -5.5491  -22.7949  -52.9617 C.3       18 UNK         0.1400 
    101 CB        -6.6750  -23.7792  -53.3276 C.3       18 UNK        -0.1800 
    102 C         -4.2102  -23.1564  -53.6234 C.2       18 UNK         0.5000 
    103 O         -4.0081  -24.3013  -54.0331 O.2       18 UNK        -0.5000 
    104 N         -3.3052  -22.1755  -53.6984 N.am      19 UNK        -0.5000 
    105 CA        -1.9829  -22.3006  -54.3050 C.3       19 UNK         0.1400 
    106 CB        -1.0013  -22.9238  -53.2957 C.3       19 UNK        -0.1800 
    107 C         -1.4887  -20.9246  -54.7723 C.2       19 UNK         0.5000 
    108 O         -2.0886  -19.9031  -54.4275 O.2       19 UNK        -0.5000 
    109 N         -0.3941  -20.9356  -55.5483 N.am      20 UNK        -0.5000 
    110 CA         0.4077  -19.7838  -55.9874 C.3       20 UNK         0.1400 
    111 CB         1.2776  -19.2779  -54.8172 C.3       20 UNK        -0.1800 
    112 C         -0.3881  -18.6659  -56.7006 C.2       20 UNK         0.5000 
    113 O         -0.0319  -17.4913  -56.6020 O.2       20 UNK        -0.5000 
    114 N         -1.4520  -19.0686  -57.4107 N.am      21 UNK        -0.5000 
    115 CA        -2.3850  -18.2461  -58.1899 C.3       21 UNK         0.1400 
    116 CB        -1.6542  -17.5213  -59.3404 C.3       21 UNK        -0.1800 
    117 C         -3.2704  -17.2876  -57.3605 C.2       21 UNK         0.5000 
    118 O         -3.9420  -16.4394  -57.9515 O.2       21 UNK        -0.5000 
    119 N         -3.3009  -17.4426  -56.0302 N.am      22 UNK        -0.5000 
    120 CA        -4.2383  -16.7310  -55.1465 C.3       22 UNK         0.1400 
    121 C         -5.6338  -17.4146  -55.1385 C.2       22 UNK         0.5000 
    122 N         -6.7028  -16.6489  -54.9667 N.am      22 UNK        -0.7600 
    123 O         -5.7585  -18.6324  -55.2528 O.2       22 UNK        -0.5000 
    124 C124       -3.6918  -16.5921  -53.7048 C.3       23 UNK        -0.0398 
    125 S125       -2.2425  -15.4831  -53.6057 S.3       23 UNK        -0.2404 
    126 C126       -0.8859  -16.6562  -53.3057 C.3       23 UNK        -0.0205 
    127 H127       -3.1706  -12.4241  -52.6587 H         1 UNK         0.0600 
    128 H128       -1.7070  -12.1130  -53.5945 H         1 UNK         0.0600 
    129 H129       -2.5889  -10.7685  -52.8599 H         1 UNK         0.0600 
    130 H130       -2.7183  -13.2518  -50.6447 H         1 UNK         0.3000 
    131 H131       -0.1177  -13.0898  -49.4335 H         1 UNK         0.0600 
    132 H132       -1.9861  -15.0044  -49.2843 H         1 UNK         0.0800 
    133 H133       -2.6074  -14.0778  -47.9730 H         1 UNK         0.0800 
    134 H134        1.3119  -15.2005  -49.0357 H         1 UNK         0.0800 
    135 H135        1.3039  -16.5629  -47.9465 H         1 UNK         0.0800 
    136 H136        0.4045  -15.4685  -51.2188 H         1 UNK         0.1150 
    137 H137       -2.0583  -18.8417  -52.1650 H         1 UNK         0.1150 
    138 H138       -0.7848  -18.1989  -48.1323 H         1 UNK         0.1150 
    139 H139       -2.8335  -19.6458  -48.7263 H         1 UNK         0.0800 
    140 H140       -3.1574  -19.9787  -50.4022 H         1 UNK         0.0800 
    141 H141       -1.1789  -20.4821  -47.3682 H         1 UNK         0.0800 
    142 H142        0.3474  -20.9716  -48.0436 H         1 UNK         0.0800 
    143 H143       -0.2836  -23.3767  -47.7453 H         1 UNK         0.0600 
    144 H144        0.3341  -21.5628  -45.6611 H         1 UNK         0.3000 
    145 H145        0.9970  -24.0195  -43.1265 H         1 UNK         0.0600 
    146 H146        3.1078  -22.7326  -43.1524 H         1 UNK         0.0600 
    147 H147        3.0133  -23.7502  -44.5816 H         1 UNK         0.0600 
    148 H148        2.6982  -22.0239  -44.7128 H         1 UNK         0.0600 
    149 H149        1.0733  -21.1903  -43.0013 H         1 UNK         0.3000 
    150 H150       -2.3338  -20.7036  -41.9266 H         1 UNK         0.0600 
    151 H151       -0.9322  -21.3258  -39.9463 H         1 UNK         0.0600 
    152 H152       -1.0978  -19.5837  -40.1053 H         1 UNK         0.0600 
    153 H153        0.4022  -20.3728  -40.5864 H         1 UNK         0.0600 
    154 H154       -0.3039  -18.7978  -42.3830 H         1 UNK         0.3000 
    155 H155       -1.0603  -18.1088  -45.8381 H         1 UNK         0.0600 
    156 H156       -1.0039  -15.8564  -44.6608 H         1 UNK         0.0600 
    157 H157       -1.3455  -16.6767  -43.1448 H         1 UNK         0.0600 
    158 H158       -2.5152  -16.7287  -44.4524 H         1 UNK         0.0600 
    159 H159        1.0351  -17.1027  -44.2547 H         1 UNK         0.3000 
    160 H160        3.4959  -19.6253  -44.8843 H         1 UNK         0.0600 
    161 H161        4.6960  -17.5284  -45.5810 H         1 UNK         0.0600 
    162 H162        3.1399  -16.7433  -45.8612 H         1 UNK         0.0600 
    163 H163        3.6126  -18.1294  -46.8269 H         1 UNK         0.0600 
    164 H164        3.3902  -17.1747  -43.3519 H         1 UNK         0.3000 
    165 H165        2.5323  -18.7254  -40.2464 H         1 UNK         0.0600 
    166 H166        4.6574  -17.6453  -39.5694 H         1 UNK         0.0600 
    167 H167        4.9899  -19.0910  -40.5096 H         1 UNK         0.0600 
    168 H168        5.1604  -17.5059  -41.2542 H         1 UNK         0.0600 
    169 H169        3.1852  -16.0309  -40.9781 H         1 UNK         0.3000 
    170 H170       -0.0707  -14.9864  -41.9158 H         1 UNK         0.0600 
    171 H171       -0.2009  -14.9681  -39.4180 H         1 UNK         0.0600 
    172 H172        1.4599  -14.3923  -39.3276 H         1 UNK         0.0600 
    173 H173        0.2090  -13.3819  -40.0520 H         1 UNK         0.0600 
    174 H174        2.2061  -13.4090  -41.5431 H         1 UNK         0.3000 
    175 H175        4.1496  -13.4082  -43.0540 H         1 UNK         0.0600 
    176 H176        3.2533  -14.0494  -45.9140 H         1 UNK         0.0600 
    177 H177        4.7571  -13.2481  -45.4642 H         1 UNK         0.0600 
    178 H178        4.4798  -14.9137  -44.9886 H         1 UNK         0.0600 
    179 H179        2.6137  -11.8664  -44.9758 H         1 UNK         0.3000 
    180 H180        1.4996   -9.4142  -42.6687 H         1 UNK         0.0600 
    181 H181        2.7354   -7.9305  -44.2194 H         1 UNK         0.0600 
    182 H182        3.6515   -9.3013  -44.8436 H         1 UNK         0.0600 
    183 H183        3.8444   -8.8000  -43.1708 H         1 UNK         0.0600 
    184 H184        0.0292   -9.5734  -44.2618 H         1 UNK         0.3000 
    185 H185       -1.1421  -10.3216  -46.0213 H         1 UNK         0.0600 
    186 H186       -1.2319   -8.7357  -47.9628 H         1 UNK         0.0600 
    187 H187       -0.2635   -8.0435  -46.6729 H         1 UNK         0.0600 
    188 H188        0.5266   -8.7478  -48.0790 H         1 UNK         0.0600 
    189 H189        0.5945  -11.7809  -47.7624 H         1 UNK         0.3000 
    190 H190       -2.4031  -21.8022  -45.2958 H         1 UNK         0.3000 
    191 H191       -4.8629  -22.8762  -46.1945 H         1 UNK         0.0600 
    192 H192       -5.6524  -22.3253  -43.8971 H         1 UNK         0.0600 
    193 H193       -4.7321  -21.0053  -44.6012 H         1 UNK         0.0600 
    194 H194       -3.9928  -22.0452  -43.3853 H         1 UNK         0.0600 
    195 H195       -2.4256  -24.2314  -43.9507 H         1 UNK         0.3000 
    196 H196       -3.9563  -26.5717  -43.2875 H         1 UNK         0.0600 
    197 H197       -0.9665  -25.9673  -43.0056 H         1 UNK         0.0600 
    198 H198       -2.2097  -25.6864  -41.7908 H         1 UNK         0.0600 
    199 H199       -1.8038  -27.3284  -42.2677 H         1 UNK         0.0600 
    200 H200       -1.1440  -26.0640  -45.5034 H         1 UNK         0.3000 
    201 H201       -1.0868  -28.8630  -46.2163 H         1 UNK         0.0600 
    202 H202        0.5140  -26.4905  -47.2992 H         1 UNK         0.0600 
    203 H203        0.8982  -28.1918  -47.5275 H         1 UNK         0.0600 
    204 H204        0.9650  -27.4893  -45.9181 H         1 UNK         0.0600 
    205 H205       -2.2463  -25.9071  -47.8849 H         1 UNK         0.3000 
    206 H206       -2.8507  -27.5222  -50.3408 H         1 UNK         0.0600 
    207 H207       -0.9025  -25.9481  -50.5741 H         1 UNK         0.0600 
    208 H208       -2.2542  -25.5128  -51.6053 H         1 UNK         0.0600 
    209 H209       -1.9512  -24.6012  -50.1313 H         1 UNK         0.0600 
    210 H210       -4.4676  -26.3990  -47.8119 H         1 UNK         0.3000 
    211 H211       -6.5147  -25.6596  -47.3310 H         1 UNK         0.0600 
    212 H212       -8.3755  -26.2759  -48.8028 H         1 UNK         0.0600 
    213 H213       -7.1911  -27.5708  -48.8061 H         1 UNK         0.0600 
    214 H214       -7.2967  -26.4668  -50.1771 H         1 UNK         0.0600 
    215 H215       -4.5753  -23.7774  -48.4612 H         1 UNK         0.3000 
    216 H216       -4.2697  -21.6968  -48.9880 H         1 UNK         0.0600 
    217 H217       -5.9471  -19.9581  -48.5566 H         1 UNK         0.0600 
    218 H218       -7.2423  -21.1439  -48.5344 H         1 UNK         0.0600 
    219 H219       -6.0097  -21.1499  -47.2746 H         1 UNK         0.0600 
    220 H220       -5.1477  -23.7079  -51.1097 H         1 UNK         0.3000 
    221 H221       -5.8408  -21.8064  -53.3229 H         1 UNK         0.0600 
    222 H222       -7.6226  -23.4713  -52.8853 H         1 UNK         0.0600 
    223 H223       -6.4592  -24.7900  -52.9787 H         1 UNK         0.0600 
    224 H224       -6.8183  -23.8253  -54.4078 H         1 UNK         0.0600 
    225 H225       -3.5370  -21.2400  -53.3881 H         1 UNK         0.3000 
    226 H226       -2.0519  -22.9412  -55.1868 H         1 UNK         0.0600 
    227 H227       -0.9192  -22.3181  -52.3936 H         1 UNK         0.0600 
    228 H228       -1.3192  -23.9225  -53.0023 H         1 UNK         0.0600 
    229 H229       -0.0005  -23.0205  -53.7175 H         1 UNK         0.0600 
    230 H230       -0.0104  -21.8356  -55.8017 H         1 UNK         0.3000 
    231 H231        1.0910  -20.1655  -56.7473 H         1 UNK         0.0600 
    232 H232        0.6788  -19.0051  -53.9499 H         1 UNK         0.0600 
    233 H233        1.8726  -18.4088  -55.0998 H         1 UNK         0.0600 
    234 H234        1.9765  -20.0500  -54.4958 H         1 UNK         0.0600 
    235 H235       -1.6595  -20.0572  -57.3989 H         1 UNK         0.3000 
    236 H236       -3.0788  -18.9527  -58.6473 H         1 UNK         0.0600 
    237 H237       -2.3643  -17.0570  -60.0256 H         1 UNK         0.0600 
    238 H238       -0.9975  -16.7330  -58.9716 H         1 UNK         0.0600 
    239 H239       -1.0510  -18.2157  -59.9252 H         1 UNK         0.0600 
    240 H240       -2.7688  -18.1942  -55.6083 H         1 UNK         0.3000 
    241 H241       -4.3761  -15.7207  -55.5377 H         1 UNK         0.0600 
    242 H242       -7.6141  -17.0800  -54.9473 H         1 UNK         0.3800 
    243 H243       -6.6290  -15.6478  -54.8681 H         1 UNK         0.3800 
    244 H244       -3.4601  -17.5745  -53.2981 H         1 UNK         0.0800 
    245 H245       -4.4533  -16.1699  -53.0467 H         1 UNK         0.0800 
    246 H246        0.0588  -16.1886  -53.5864 H         1 UNK         0.0800 
    247 H247       -1.0122  -17.5108  -53.9677 H         1 UNK         0.0800 
@<TRIPOS>BOND
     1    1    2 1    
     2    1  127 1    
     3    1  128 1    
     4    1  129 1    
     5    2    3 2    
     6    2    4 am   BACKBONE|DICT|INTERRES
     7    4    5 1    
     8    4  130 1    
     9    5    6 1    
    10    5   65 1    
    11    5  131 1    
    12    6    7 1    
    13    6  132 1    
    14    6  133 1    
    15    7    8 1    
    16    8    9 1    
    17    8  134 1    
    18    8  135 1    
    19    9   10 ar   
    20    9   14 ar   
    21   10   11 ar   
    22   10  136 1    
    23   11   12 ar   
    24   11  126 1    
    25   12   13 ar   
    26   12  137 1    
    27   13   14 ar   
    28   13   15 1    
    29   14  138 1    
    30   15   16 1    
    31   15  139 1    
    32   15  140 1    
    33   16   17 1    
    34   17   18 1    
    35   17  141 1    
    36   17  142 1    
    37   18   19 1    
    38   18   67 1    
    39   18  143 1    
    40   19   20 am   BACKBONE|DICT|INTERRES
    41   19  144 1    
    42   20   21 2    
    43   20   22 1    
    44   22   23 1    
    45   22   24 1    
    46   22  145 1    
    47   23  146 1    
    48   23  147 1    
    49   23  148 1    
    50   24   25 am   BACKBONE|DICT|INTERRES
    51   24  149 1    
    52   25   26 2    
    53   25   27 1    
    54   27   28 1    
    55   27   29 1    
    56   27  150 1    
    57   28  151 1    
    58   28  152 1    
    59   28  153 1    
    60   29   30 am   BACKBONE|DICT|INTERRES
    61   29  154 1    
    62   30   31 2    
    63   30   32 1    
    64   32   33 1    
    65   32   34 1    
    66   32  155 1    
    67   33  156 1    
    68   33  157 1    
    69   33  158 1    
    70   34   35 am   BACKBONE|DICT|INTERRES
    71   34  159 1    
    72   35   36 2    
    73   35   37 1    
    74   37   38 1    
    75   37   39 1    
    76   37  160 1    
    77   38  161 1    
    78   38  162 1    
    79   38  163 1    
    80   39   40 am   BACKBONE|DICT|INTERRES
    81   39  164 1    
    82   40   41 2    
    83   40   42 1    
    84   42   43 1    
    85   42   44 1    
    86   42  165 1    
    87   43  166 1    
    88   43  167 1    
    89   43  168 1    
    90   44   45 am   BACKBONE|DICT|INTERRES
    91   44  169 1    
    92   45   46 2    
    93   45   47 1    
    94   47   48 1    
    95   47   49 1    
    96   47  170 1    
    97   48  171 1    
    98   48  172 1    
    99   48  173 1    
   100   49   50 am   BACKBONE|DICT|INTERRES
   101   49  174 1    
   102   50   51 2    
   103   50   52 1    
   104   52   53 1    
   105   52   54 1    
   106   52  175 1    
   107   53  176 1    
   108   53  177 1    
   109   53  178 1    
   110   54   55 am   BACKBONE|DICT|INTERRES
   111   54  179 1    
   112   55   56 2    
   113   55   57 1    
   114   57   58 1    
   115   57   59 1    
   116   57  180 1    
   117   58  181 1    
   118   58  182 1    
   119   58  183 1    
   120   59   60 am   BACKBONE|DICT|INTERRES
   121   59  184 1    
   122   60   61 2    
   123   60   62 1    
   124   62   63 1    
   125   62   64 1    
   126   62  185 1    
   127   63  186 1    
   128   63  187 1    
   129   63  188 1    
   130   64   65 am   BACKBONE|DICT|INTERRES
   131   64  189 1    
   132   65   66 2    
   133   67   68 2    
   134   67   69 am   BACKBONE|DICT|INTERRES
   135   69   70 1    
   136   69  190 1    
   137   70   71 1    
   138   70   72 1    
   139   70  191 1    
   140   71  192 1    
   141   71  193 1    
   142   71  194 1    
   143   72   73 2    
   144   72   74 am   BACKBONE|DICT|INTERRES
   145   74   75 1    
   146   74  195 1    
   147   75   76 1    
   148   75   77 1    
   149   75  196 1    
   150   76  197 1    
   151   76  198 1    
   152   76  199 1    
   153   77   78 2    
   154   77   79 am   BACKBONE|DICT|INTERRES
   155   79   80 1    
   156   79  200 1    
   157   80   81 1    
   158   80   82 1    
   159   80  201 1    
   160   81  202 1    
   161   81  203 1    
   162   81  204 1    
   163   82   83 2    
   164   82   84 am   BACKBONE|DICT|INTERRES
   165   84   85 1    
   166   84  205 1    
   167   85   86 1    
   168   85   87 1    
   169   85  206 1    
   170   86  207 1    
   171   86  208 1    
   172   86  209 1    
   173   87   88 2    
   174   87   89 am   BACKBONE|DICT|INTERRES
   175   89   90 1    
   176   89  210 1    
   177   90   91 1    
   178   90   92 1    
   179   90  211 1    
   180   91  212 1    
   181   91  213 1    
   182   91  214 1    
   183   92   93 2    
   184   92   94 am   BACKBONE|DICT|INTERRES
   185   94   95 1    
   186   94  215 1    
   187   95   96 1    
   188   95   97 1    
   189   95  216 1    
   190   96  217 1    
   191   96  218 1    
   192   96  219 1    
   193   97   98 2    
   194   97   99 am   BACKBONE|DICT|INTERRES
   195   99  100 1    
   196   99  220 1    
   197  100  101 1    
   198  100  102 1    
   199  100  221 1    
   200  101  222 1    
   201  101  223 1    
   202  101  224 1    
   203  102  103 2    
   204  102  104 am   BACKBONE|DICT|INTERRES
   205  104  105 1    
   206  104  225 1    
   207  105  106 1    
   208  105  107 1    
   209  105  226 1    
   210  106  227 1    
   211  106  228 1    
   212  106  229 1    
   213  107  108 2    
   214  107  109 am   BACKBONE|DICT|INTERRES
   215  109  110 1    
   216  109  230 1    
   217  110  111 1    
   218  110  112 1    
   219  110  231 1    
   220  111  232 1    
   221  111  233 1    
   222  111  234 1    
   223  112  113 2    
   224  112  114 am   BACKBONE|DICT|INTERRES
   225  114  115 1    
   226  114  235 1    
   227  115  116 1    
   228  115  117 1    
   229  115  236 1    
   230  116  237 1    
   231  116  238 1    
   232  116  239 1    
   233  117  118 2    
   234  117  119 am   BACKBONE|DICT|INTERRES
   235  119  120 1    
   236  119  240 1    
   237  120  121 1    
   238  120  124 1    
   239  120  241 1    
   240  121  122 am   BACKBONE|DICT|INTERRES
   241  121  123 2    
   242  122  242 1    
   243  122  243 1    
   244  124  125 1    
   245  124  244 1    
   246  124  245 1    
   247  125  126 1    
   248  126  246 1    
   249  126  247 1    
@<TRIPOS>SUBSTRUCTURE
     1 UNK         1 GROUP             0       ****    0 ROOT    
