@<TRIPOS>MOLECULE
3R540
247   249    1
SMALL
USER_CHARGES


@<TRIPOS>ATOM
      1 CA         -0.1574  -11.9607  -41.9037 C.3       0 UNK        -0.1800 
      2 C          -0.9440  -12.0439  -43.2046 C.2       0 UNK         0.5000 
      3 O          -2.1641  -11.8796  -43.1908 O.2       0 UNK        -0.5000 
      4 N          -0.2513  -12.2980  -44.3184 N.am      1 UNK        -0.5000 
      5 CA         -0.8162  -12.4093  -45.6622 C.3       1 UNK         0.1400 
      6 C6         -0.5066  -13.7786  -46.3160 C.3       23 UNK        -0.0398 
      7 S7         -1.2866  -15.1725  -45.4380 S.3       23 UNK        -0.2404 
      8 C8         -2.3293  -15.9113  -46.7348 C.3       23 UNK        -0.0205 
      9 C9         -1.5197  -16.4474  -47.9087 C.ar      23 UNK        -0.0193 
     10 C10        -1.6827  -15.8962  -49.1820 C.ar      23 UNK        -0.1150 
     11 C11        -0.9849  -16.4114  -50.2802 C.ar      23 UNK        -0.0193 
     12 C12        -0.0941  -17.4715  -50.0836 C.ar      23 UNK        -0.1150 
     13 C13         0.0982  -18.0180  -48.8111 C.ar      23 UNK        -0.0193 
     14 C14        -0.6250  -17.5060  -47.7305 C.ar      23 UNK        -0.1150 
     15 C15         1.1106  -19.1364  -48.6075 C.3       23 UNK        -0.0205 
     16 S16         0.3416  -20.7865  -48.6706 S.3       23 UNK        -0.2404 
     17 C17        -0.0035  -21.0947  -46.9070 C.3       23 UNK        -0.0398 
     18 CA         -0.3952  -22.5667  -46.6174 C.3       11 UNK         0.1400 
     19 N           0.1859  -23.0553  -45.3583 N.am      11 UNK        -0.5000 
     20 C           0.2759  -24.3528  -45.0329 C.2       10 UNK         0.5000 
     21 O          -0.1688  -25.2605  -45.7330 O.2       10 UNK        -0.5000 
     22 CA          0.9314  -24.7021  -43.6864 C.3       10 UNK         0.1400 
     23 CB          2.4615  -24.6470  -43.8057 C.3       10 UNK        -0.1800 
     24 N           0.5123  -23.8606  -42.5667 N.am      10 UNK        -0.5000 
     25 C          -0.7363  -23.5790  -42.1758 C.2       9 UNK         0.5000 
     26 O          -1.7403  -23.9598  -42.7777 O.2       9 UNK        -0.5000 
     27 CA         -0.9000  -22.6974  -40.9189 C.3       9 UNK         0.1400 
     28 CB         -0.8867  -23.5498  -39.6367 C.3       9 UNK        -0.1800 
     29 N           0.0516  -21.5783  -40.8437 N.am      9 UNK        -0.5000 
     30 C           1.3873  -21.6044  -40.7073 C.2       8 UNK         0.5000 
     31 O           2.0309  -22.6282  -40.4711 O.2       8 UNK        -0.5000 
     32 CA          2.1229  -20.2701  -40.9693 C.3       8 UNK         0.1400 
     33 CB          3.6063  -20.4755  -41.3393 C.3       8 UNK        -0.1800 
     34 N           1.4648  -19.4357  -41.9862 N.am      8 UNK        -0.5000 
     35 C           1.1363  -19.7875  -43.2413 C.2       7 UNK         0.5000 
     36 O           1.3396  -20.8990  -43.7328 O.2       7 UNK        -0.5000 
     37 CA          0.4103  -18.7262  -44.0808 C.3       7 UNK         0.1400 
     38 CB         -1.1118  -18.8957  -43.9460 C.3       7 UNK        -0.1800 
     39 N           0.7839  -17.3566  -43.7274 N.am      7 UNK        -0.5000 
     40 C           1.9228  -16.7745  -44.1208 C.2       6 UNK         0.5000 
     41 O           2.7801  -17.3332  -44.8110 O.2       6 UNK        -0.5000 
     42 CA          2.1441  -15.3263  -43.6675 C.3       6 UNK         0.1400 
     43 CB          2.7510  -15.2768  -42.2536 C.3       6 UNK        -0.1800 
     44 N           3.0337  -14.6850  -44.6289 N.am      6 UNK        -0.5000 
     45 C           3.1906  -13.3678  -44.7926 C.2       5 UNK         0.5000 
     46 O           2.6080  -12.5213  -44.1154 O.2       5 UNK        -0.5000 
     47 CA          4.0942  -12.9285  -45.9498 C.3       5 UNK         0.1400 
     48 CB          5.5355  -13.4461  -45.7972 C.3       5 UNK        -0.1800 
     49 N           3.5123  -13.4012  -47.2031 N.am      5 UNK        -0.5000 
     50 C           3.4691  -12.6970  -48.3390 C.2       4 UNK         0.5000 
     51 O           4.0304  -11.6109  -48.4949 O.2       4 UNK        -0.5000 
     52 CA          2.6454  -13.2813  -49.4972 C.3       4 UNK         0.1400 
     53 CB          2.1838  -14.7412  -49.2951 C.3       4 UNK        -0.1800 
     54 N           1.4859  -12.4206  -49.7119 N.am      4 UNK        -0.5000 
     55 C           0.9117  -12.1878  -50.8993 C.2       3 UNK         0.5000 
     56 O           1.3158  -12.6839  -51.9520 O.2       3 UNK        -0.5000 
     57 CA         -0.3291  -11.2691  -50.9394 C.3       3 UNK         0.1400 
     58 CB         -1.5590  -12.0393  -51.4452 C.3       3 UNK        -0.1800 
     59 N          -0.6649  -10.6804  -49.6429 N.am      3 UNK        -0.5000 
     60 C          -0.1399   -9.5553  -49.1411 C.2       2 UNK         0.5000 
     61 O           0.6811   -8.8571  -49.7362 O.2       2 UNK        -0.5000 
     62 CA         -0.6013   -9.1547  -47.7233 C.3       2 UNK         0.1400 
     63 CB         -1.7492   -8.1364  -47.7993 C.3       2 UNK        -0.1800 
     64 N          -1.0237  -10.2926  -46.8957 N.am      2 UNK        -0.5000 
     65 C          -0.2070  -11.2775  -46.4997 C.2       1 UNK         0.5000 
     66 O           0.9867  -11.3257  -46.7956 O.2       1 UNK        -0.5000 
     67 C          -1.9238  -22.7899  -46.7087 C.2       11 UNK         0.5000 
     68 O          -2.4643  -22.8313  -47.8138 O.2       11 UNK        -0.5000 
     69 N          -2.5958  -22.9573  -45.5615 N.am      12 UNK        -0.5000 
     70 CA         -3.9954  -23.3717  -45.4955 C.3       12 UNK         0.1400 
     71 CB         -4.6657  -22.7326  -44.2693 C.3       12 UNK        -0.1800 
     72 C          -4.1008  -24.9058  -45.4503 C.2       12 UNK         0.5000 
     73 O          -4.8870  -25.4849  -46.2012 O.2       12 UNK        -0.5000 
     74 N          -3.2951  -25.5327  -44.5805 N.am      13 UNK        -0.5000 
     75 CA         -3.2907  -26.9711  -44.3077 C.3       13 UNK         0.1400 
     76 CB         -2.3449  -27.2611  -43.1333 C.3       13 UNK        -0.1800 
     77 C          -2.9282  -27.8473  -45.5201 C.2       13 UNK         0.5000 
     78 O          -3.4904  -28.9342  -45.6638 O.2       13 UNK        -0.5000 
     79 N          -2.0318  -27.3616  -46.3898 N.am      14 UNK        -0.5000 
     80 CA         -1.5992  -28.0151  -47.6290 C.3       14 UNK         0.1400 
     81 CB         -0.2382  -27.4322  -48.0511 C.3       14 UNK        -0.1800 
     82 C          -2.6550  -27.9246  -48.7543 C.2       14 UNK         0.5000 
     83 O          -2.3405  -27.4870  -49.8616 O.2       14 UNK        -0.5000 
     84 N          -3.8924  -28.3352  -48.4424 N.am      15 UNK        -0.5000 
     85 CA         -5.0730  -28.3802  -49.3116 C.3       15 UNK         0.1400 
     86 CB         -4.9116  -29.4899  -50.3718 C.3       15 UNK        -0.1800 
     87 C          -5.4344  -27.0091  -49.9231 C.2       15 UNK         0.5000 
     88 O          -5.7798  -26.9348  -51.1039 O.2       15 UNK        -0.5000 
     89 N          -5.3425  -25.9523  -49.1002 N.am      16 UNK        -0.5000 
     90 CA         -5.5687  -24.5460  -49.4449 C.3       16 UNK         0.1400 
     91 CB         -7.0568  -24.2864  -49.7580 C.3       16 UNK        -0.1800 
     92 C          -4.6179  -24.0493  -50.5525 C.2       16 UNK         0.5000 
     93 O          -5.0624  -23.4847  -51.5538 O.2       16 UNK        -0.5000 
     94 N          -3.3103  -24.2474  -50.3372 N.am      17 UNK        -0.5000 
     95 CA         -2.2312  -23.7650  -51.2034 C.3       17 UNK         0.1400 
     96 CB         -0.8765  -24.2296  -50.6487 C.3       17 UNK        -0.1800 
     97 C          -2.2446  -22.2363  -51.3984 C.2       17 UNK         0.5000 
     98 O          -1.9243  -21.7677  -52.4885 O.2       17 UNK        -0.5000 
     99 N          -2.6779  -21.4945  -50.3698 N.am      18 UNK        -0.5000 
    100 CA        -2.9090  -20.0500  -50.4103 C.3       18 UNK         0.1400 
    101 CB        -3.3265  -19.5656  -49.0134 C.3       18 UNK        -0.1800 
    102 C         -3.9617  -19.6403  -51.4580 C.2       18 UNK         0.5000 
    103 O         -3.7532  -18.6727  -52.1885 O.2       18 UNK        -0.5000 
    104 N         -5.0553  -20.4113  -51.5500 N.am      19 UNK        -0.5000 
    105 CA        -6.1258  -20.1969  -52.5247 C.3       19 UNK         0.1400 
    106 CB        -7.3626  -21.0212  -52.1372 C.3       19 UNK        -0.1800 
    107 C         -5.6779  -20.5130  -53.9625 C.2       19 UNK         0.5000 
    108 O         -6.1058  -19.8285  -54.8913 O.2       19 UNK        -0.5000 
    109 N         -4.7931  -21.5054  -54.1241 N.am      20 UNK        -0.5000 
    110 CA        -4.1458  -21.8135  -55.3995 C.3       20 UNK         0.1400 
    111 CB        -3.4806  -23.1963  -55.3183 C.3       20 UNK        -0.1800 
    112 C         -3.1294  -20.7303  -55.8154 C.2       20 UNK         0.5000 
    113 O         -3.0481  -20.3966  -56.9981 O.2       20 UNK        -0.5000 
    114 N         -2.3791  -20.2033  -54.8385 N.am      21 UNK        -0.5000 
    115 CA        -1.3418  -19.1918  -55.0269 C.3       21 UNK         0.1400 
    116 CB        -0.4530  -19.1336  -53.7744 C.3       21 UNK        -0.1800 
    117 C         -1.8877  -17.7937  -55.3686 C.2       21 UNK         0.5000 
    118 O         -1.3144  -17.1292  -56.2336 O.2       21 UNK        -0.5000 
    119 N         -2.9554  -17.3584  -54.6876 N.am      22 UNK        -0.5000 
    120 CA        -3.4882  -15.9876  -54.7929 C.3       22 UNK         0.1400 
    121 C         -5.0367  -15.8696  -54.6993 C.2       22 UNK         0.5000 
    122 N         -5.8021  -16.9509  -54.7374 N.am      22 UNK        -0.7600 
    123 O         -5.5697  -14.7652  -54.6276 O.2       22 UNK        -0.5000 
    124 C124       -2.7394  -14.9960  -53.8590 C.3       23 UNK        -0.0398 
    125 S125       -2.8820  -15.4175  -52.0877 S.3       23 UNK        -0.2404 
    126 C126       -1.1514  -15.8143  -51.6741 C.3       23 UNK        -0.0205 
    127 H127       -0.2435  -10.9620  -41.4761 H         1 UNK         0.0600 
    128 H128        0.9004  -12.1771  -42.0529 H         1 UNK         0.0600 
    129 H129       -0.5495  -12.6775  -41.1822 H         1 UNK         0.0600 
    130 H130        0.7648  -12.3522  -44.2708 H         1 UNK         0.3000 
    131 H131       -1.9005  -12.2812  -45.6434 H         1 UNK         0.0600 
    132 H132       -0.8337  -13.7801  -47.3567 H         1 UNK         0.0800 
    133 H133        0.5676  -13.9643  -46.3378 H         1 UNK         0.0800 
    134 H134       -2.9032  -16.7309  -46.3007 H         1 UNK         0.0800 
    135 H135       -3.0591  -15.1718  -47.0679 H         1 UNK         0.0800 
    136 H136       -2.3660  -15.0709  -49.3214 H         1 UNK         0.1150 
    137 H137        0.4629  -17.8662  -50.9215 H         1 UNK         0.1150 
    138 H138       -0.4909  -17.9241  -46.7466 H         1 UNK         0.1150 
    139 H139        1.8734  -19.0848  -49.3857 H         1 UNK         0.0800 
    140 H140        1.6408  -18.9953  -47.6645 H         1 UNK         0.0800 
    141 H141       -0.7585  -20.3921  -46.5524 H         1 UNK         0.0800 
    142 H142        0.9164  -20.8530  -46.3751 H         1 UNK         0.0800 
    143 H143        0.0446  -23.1889  -47.4000 H         1 UNK         0.0600 
    144 H144        0.5796  -22.3625  -44.7257 H         1 UNK         0.3000 
    145 H145        0.6506  -25.7269  -43.4405 H         1 UNK         0.0600 
    146 H146        2.9410  -25.0044  -42.8942 H         1 UNK         0.0600 
    147 H147        2.8146  -25.2736  -44.6259 H         1 UNK         0.0600 
    148 H148        2.8125  -23.6307  -43.9911 H         1 UNK         0.0600 
    149 H149        1.2572  -23.4885  -41.9856 H         1 UNK         0.3000 
    150 H150       -1.8868  -22.2378  -40.9928 H         1 UNK         0.0600 
    151 H151       -1.6804  -24.2975  -39.6621 H         1 UNK         0.0600 
    152 H152       -1.0483  -22.9338  -38.7522 H         1 UNK         0.0600 
    153 H153        0.0551  -24.0835  -39.5073 H         1 UNK         0.0600 
    154 H154       -0.3523  -20.6766  -41.0527 H         1 UNK         0.3000 
    155 H155        2.0861  -19.7117  -40.0329 H         1 UNK         0.0600 
    156 H156        3.7164  -21.0764  -42.2428 H         1 UNK         0.0600 
    157 H157        4.1451  -20.9839  -40.5389 H         1 UNK         0.0600 
    158 H158        4.1053  -19.5214  -41.5094 H         1 UNK         0.0600 
    159 H159        1.2333  -18.4975  -41.6934 H         1 UNK         0.3000 
    160 H160        0.6874  -18.8984  -45.1204 H         1 UNK         0.0600 
    161 H161       -1.4512  -18.6947  -42.9293 H         1 UNK         0.0600 
    162 H162       -1.4205  -19.9113  -44.1978 H         1 UNK         0.0600 
    163 H163       -1.6462  -18.2208  -44.6139 H         1 UNK         0.0600 
    164 H164        0.1141  -16.8255  -43.1894 H         1 UNK         0.3000 
    165 H165        1.1828  -14.8093  -43.6698 H         1 UNK         0.0600 
    166 H166        2.8836  -14.2499  -41.9130 H         1 UNK         0.0600 
    167 H167        2.1033  -15.7737  -41.5306 H         1 UNK         0.0600 
    168 H168        3.7236  -15.7693  -42.2183 H         1 UNK         0.0600 
    169 H169        3.5338  -15.3415  -45.2159 H         1 UNK         0.3000 
    170 H170        4.1160  -11.8363  -45.9379 H         1 UNK         0.0600 
    171 H171        5.9578  -13.1469  -44.8371 H         1 UNK         0.0600 
    172 H172        5.5887  -14.5335  -45.8579 H         1 UNK         0.0600 
    173 H173        6.1797  -13.0389  -46.5765 H         1 UNK         0.0600 
    174 H174        2.9959  -14.2671  -47.1559 H         1 UNK         0.3000 
    175 H175        3.2948  -13.2479  -50.3746 H         1 UNK         0.0600 
    176 H176        1.4569  -14.8382  -48.4884 H         1 UNK         0.0600 
    177 H177        1.7146  -15.1218  -50.2020 H         1 UNK         0.0600 
    178 H178        3.0249  -15.4002  -49.0766 H         1 UNK         0.0600 
    179 H179        1.1602  -11.9176  -48.8946 H         1 UNK         0.3000 
    180 H180       -0.1150  -10.4697  -51.6519 H         1 UNK         0.0600 
    181 H181       -2.4224  -11.3819  -51.5477 H         1 UNK         0.0600 
    182 H182       -1.8319  -12.8470  -50.7654 H         1 UNK         0.0600 
    183 H183       -1.3736  -12.4812  -52.4249 H         1 UNK         0.0600 
    184 H184       -1.3414  -11.1792  -49.0848 H         1 UNK         0.3000 
    185 H185        0.2467   -8.6766  -47.2281 H         1 UNK         0.0600 
    186 H186       -2.0277   -7.7804  -46.8073 H         1 UNK         0.0600 
    187 H187       -1.4593   -7.2637  -48.3862 H         1 UNK         0.0600 
    188 H188       -2.6374   -8.5649  -48.2654 H         1 UNK         0.0600 
    189 H189       -1.9915  -10.3044  -46.6060 H         1 UNK         0.3000 
    190 H190       -2.0800  -22.9680  -44.6909 H         1 UNK         0.3000 
    191 H191       -4.5308  -23.0214  -46.3803 H         1 UNK         0.0600 
    192 H192       -5.7181  -23.0134  -44.2120 H         1 UNK         0.0600 
    193 H193       -4.6220  -21.6446  -44.3219 H         1 UNK         0.0600 
    194 H194       -4.1939  -23.0404  -43.3360 H         1 UNK         0.0600 
    195 H195       -2.6887  -24.9685  -43.9901 H         1 UNK         0.3000 
    196 H196       -4.3025  -27.2443  -44.0013 H         1 UNK         0.0600 
    197 H197       -1.3156  -26.9997  -43.3766 H         1 UNK         0.0600 
    198 H198       -2.6329  -26.6990  -42.2447 H         1 UNK         0.0600 
    199 H199       -2.3617  -28.3192  -42.8691 H         1 UNK         0.0600 
    200 H200       -1.5811  -26.4756  -46.1756 H         1 UNK         0.3000 
    201 H201       -1.4493  -29.0768  -47.4228 H         1 UNK         0.0600 
    202 H202       -0.3107  -26.3672  -48.2753 H         1 UNK         0.0600 
    203 H203        0.1467  -27.9317  -48.9409 H         1 UNK         0.0600 
    204 H204        0.5052  -27.5577  -47.2638 H         1 UNK         0.0600 
    205 H205       -4.0319  -28.6590  -47.4892 H         1 UNK         0.3000 
    206 H206       -5.9127  -28.6560  -48.6723 H         1 UNK         0.0600 
    207 H207       -4.6847  -30.4492  -49.9068 H         1 UNK         0.0600 
    208 H208       -5.8290  -29.6192  -50.9472 H         1 UNK         0.0600 
    209 H209       -4.1117  -29.2615  -51.0769 H         1 UNK         0.0600 
    210 H210       -5.0645  -26.1133  -48.1370 H         1 UNK         0.3000 
    211 H211       -5.3204  -23.9691  -48.5535 H         1 UNK         0.0600 
    212 H212       -7.2464  -23.2202  -49.8856 H         1 UNK         0.0600 
    213 H213       -7.6962  -24.6335  -48.9464 H         1 UNK         0.0600 
    214 H214       -7.3746  -24.7860  -50.6736 H         1 UNK         0.0600 
    215 H215       -3.0254  -24.7047  -49.4835 H         1 UNK         0.3000 
    216 H216       -2.3725  -24.2215  -52.1849 H         1 UNK         0.0600 
    217 H217       -0.6981  -23.8446  -49.6451 H         1 UNK         0.0600 
    218 H218       -0.0573  -23.8853  -51.2812 H         1 UNK         0.0600 
    219 H219       -0.8187  -25.3170  -50.6074 H         1 UNK         0.0600 
    220 H220       -2.8349  -21.9632  -49.4817 H         1 UNK         0.3000 
    221 H221       -1.9662  -19.5695  -50.6757 H         1 UNK         0.0600 
    222 H222       -2.5535  -19.7761  -48.2754 H         1 UNK         0.0600 
    223 H223       -4.2473  -20.0436  -48.6774 H         1 UNK         0.0600 
    224 H224       -3.4919  -18.4875  -49.0099 H         1 UNK         0.0600 
    225 H225       -5.1164  -21.2460  -50.9841 H         1 UNK         0.3000 
    226 H226       -6.4033  -19.1411  -52.4895 H         1 UNK         0.0600 
    227 H227       -7.1762  -22.0927  -52.2060 H         1 UNK         0.0600 
    228 H228       -7.6846  -20.7989  -51.1199 H         1 UNK         0.0600 
    229 H229       -8.1993  -20.7956  -52.7995 H         1 UNK         0.0600 
    230 H230       -4.5043  -22.0362  -53.3123 H         1 UNK         0.3000 
    231 H231       -4.9176  -21.8593  -56.1708 H         1 UNK         0.0600 
    232 H232       -2.6810  -23.2205  -54.5785 H         1 UNK         0.0600 
    233 H233       -3.0447  -23.4737  -56.2787 H         1 UNK         0.0600 
    234 H234       -4.2045  -23.9674  -55.0540 H         1 UNK         0.0600 
    235 H235       -2.4580  -20.5949  -53.9043 H         1 UNK         0.3000 
    236 H236       -0.7150  -19.5103  -55.8625 H         1 UNK         0.0600 
    237 H237        0.0426  -20.0885  -53.5988 H         1 UNK         0.0600 
    238 H238        0.3263  -18.3777  -53.8787 H         1 UNK         0.0600 
    239 H239       -1.0321  -18.8917  -52.8831 H         1 UNK         0.0600 
    240 H240       -3.3333  -17.9227  -53.9302 H         1 UNK         0.3000 
    241 H241       -3.2986  -15.6451  -55.8117 H         1 UNK         0.0600 
    242 H242       -6.8014  -16.8340  -54.6923 H         1 UNK         0.3800 
    243 H243       -5.4265  -17.8828  -54.8531 H         1 UNK         0.3800 
    244 H244       -3.1100  -13.9795  -53.9993 H         1 UNK         0.0800 
    245 H245       -1.6863  -14.9560  -54.1397 H         1 UNK         0.0800 
    246 H246       -0.7683  -16.5049  -52.4253 H         1 UNK         0.0800 
    247 H247       -0.5460  -14.9104  -51.7440 H         1 UNK         0.0800 
@<TRIPOS>BOND
     1    1    2 1    
     2    1  127 1    
     3    1  128 1    
     4    1  129 1    
     5    2    3 2    
     6    2    4 am   BACKBONE|DICT|INTERRES
     7    4    5 1    
     8    4  130 1    
     9    5    6 1    
    10    5   65 1    
    11    5  131 1    
    12    6    7 1    
    13    6  132 1    
    14    6  133 1    
    15    7    8 1    
    16    8    9 1    
    17    8  134 1    
    18    8  135 1    
    19    9   10 ar   
    20    9   14 ar   
    21   10   11 ar   
    22   10  136 1    
    23   11   12 ar   
    24   11  126 1    
    25   12   13 ar   
    26   12  137 1    
    27   13   14 ar   
    28   13   15 1    
    29   14  138 1    
    30   15   16 1    
    31   15  139 1    
    32   15  140 1    
    33   16   17 1    
    34   17   18 1    
    35   17  141 1    
    36   17  142 1    
    37   18   19 1    
    38   18   67 1    
    39   18  143 1    
    40   19   20 am   BACKBONE|DICT|INTERRES
    41   19  144 1    
    42   20   21 2    
    43   20   22 1    
    44   22   23 1    
    45   22   24 1    
    46   22  145 1    
    47   23  146 1    
    48   23  147 1    
    49   23  148 1    
    50   24   25 am   BACKBONE|DICT|INTERRES
    51   24  149 1    
    52   25   26 2    
    53   25   27 1    
    54   27   28 1    
    55   27   29 1    
    56   27  150 1    
    57   28  151 1    
    58   28  152 1    
    59   28  153 1    
    60   29   30 am   BACKBONE|DICT|INTERRES
    61   29  154 1    
    62   30   31 2    
    63   30   32 1    
    64   32   33 1    
    65   32   34 1    
    66   32  155 1    
    67   33  156 1    
    68   33  157 1    
    69   33  158 1    
    70   34   35 am   BACKBONE|DICT|INTERRES
    71   34  159 1    
    72   35   36 2    
    73   35   37 1    
    74   37   38 1    
    75   37   39 1    
    76   37  160 1    
    77   38  161 1    
    78   38  162 1    
    79   38  163 1    
    80   39   40 am   BACKBONE|DICT|INTERRES
    81   39  164 1    
    82   40   41 2    
    83   40   42 1    
    84   42   43 1    
    85   42   44 1    
    86   42  165 1    
    87   43  166 1    
    88   43  167 1    
    89   43  168 1    
    90   44   45 am   BACKBONE|DICT|INTERRES
    91   44  169 1    
    92   45   46 2    
    93   45   47 1    
    94   47   48 1    
    95   47   49 1    
    96   47  170 1    
    97   48  171 1    
    98   48  172 1    
    99   48  173 1    
   100   49   50 am   BACKBONE|DICT|INTERRES
   101   49  174 1    
   102   50   51 2    
   103   50   52 1    
   104   52   53 1    
   105   52   54 1    
   106   52  175 1    
   107   53  176 1    
   108   53  177 1    
   109   53  178 1    
   110   54   55 am   BACKBONE|DICT|INTERRES
   111   54  179 1    
   112   55   56 2    
   113   55   57 1    
   114   57   58 1    
   115   57   59 1    
   116   57  180 1    
   117   58  181 1    
   118   58  182 1    
   119   58  183 1    
   120   59   60 am   BACKBONE|DICT|INTERRES
   121   59  184 1    
   122   60   61 2    
   123   60   62 1    
   124   62   63 1    
   125   62   64 1    
   126   62  185 1    
   127   63  186 1    
   128   63  187 1    
   129   63  188 1    
   130   64   65 am   BACKBONE|DICT|INTERRES
   131   64  189 1    
   132   65   66 2    
   133   67   68 2    
   134   67   69 am   BACKBONE|DICT|INTERRES
   135   69   70 1    
   136   69  190 1    
   137   70   71 1    
   138   70   72 1    
   139   70  191 1    
   140   71  192 1    
   141   71  193 1    
   142   71  194 1    
   143   72   73 2    
   144   72   74 am   BACKBONE|DICT|INTERRES
   145   74   75 1    
   146   74  195 1    
   147   75   76 1    
   148   75   77 1    
   149   75  196 1    
   150   76  197 1    
   151   76  198 1    
   152   76  199 1    
   153   77   78 2    
   154   77   79 am   BACKBONE|DICT|INTERRES
   155   79   80 1    
   156   79  200 1    
   157   80   81 1    
   158   80   82 1    
   159   80  201 1    
   160   81  202 1    
   161   81  203 1    
   162   81  204 1    
   163   82   83 2    
   164   82   84 am   BACKBONE|DICT|INTERRES
   165   84   85 1    
   166   84  205 1    
   167   85   86 1    
   168   85   87 1    
   169   85  206 1    
   170   86  207 1    
   171   86  208 1    
   172   86  209 1    
   173   87   88 2    
   174   87   89 am   BACKBONE|DICT|INTERRES
   175   89   90 1    
   176   89  210 1    
   177   90   91 1    
   178   90   92 1    
   179   90  211 1    
   180   91  212 1    
   181   91  213 1    
   182   91  214 1    
   183   92   93 2    
   184   92   94 am   BACKBONE|DICT|INTERRES
   185   94   95 1    
   186   94  215 1    
   187   95   96 1    
   188   95   97 1    
   189   95  216 1    
   190   96  217 1    
   191   96  218 1    
   192   96  219 1    
   193   97   98 2    
   194   97   99 am   BACKBONE|DICT|INTERRES
   195   99  100 1    
   196   99  220 1    
   197  100  101 1    
   198  100  102 1    
   199  100  221 1    
   200  101  222 1    
   201  101  223 1    
   202  101  224 1    
   203  102  103 2    
   204  102  104 am   BACKBONE|DICT|INTERRES
   205  104  105 1    
   206  104  225 1    
   207  105  106 1    
   208  105  107 1    
   209  105  226 1    
   210  106  227 1    
   211  106  228 1    
   212  106  229 1    
   213  107  108 2    
   214  107  109 am   BACKBONE|DICT|INTERRES
   215  109  110 1    
   216  109  230 1    
   217  110  111 1    
   218  110  112 1    
   219  110  231 1    
   220  111  232 1    
   221  111  233 1    
   222  111  234 1    
   223  112  113 2    
   224  112  114 am   BACKBONE|DICT|INTERRES
   225  114  115 1    
   226  114  235 1    
   227  115  116 1    
   228  115  117 1    
   229  115  236 1    
   230  116  237 1    
   231  116  238 1    
   232  116  239 1    
   233  117  118 2    
   234  117  119 am   BACKBONE|DICT|INTERRES
   235  119  120 1    
   236  119  240 1    
   237  120  121 1    
   238  120  124 1    
   239  120  241 1    
   240  121  122 am   BACKBONE|DICT|INTERRES
   241  121  123 2    
   242  122  242 1    
   243  122  243 1    
   244  124  125 1    
   245  124  244 1    
   246  124  245 1    
   247  125  126 1    
   248  126  246 1    
   249  126  247 1    
@<TRIPOS>SUBSTRUCTURE
     1 UNK         1 GROUP             0       ****    0 ROOT    
