@<TRIPOS>MOLECULE
3R540
247   249    1
SMALL
USER_CHARGES


@<TRIPOS>ATOM
      1 CA          1.0633  -10.7257  -46.7566 C.3       0 UNK        -0.1800 
      2 C           0.5072  -11.9956  -46.1309 C.2       0 UNK         0.5000 
      3 O           0.6471  -12.1985  -44.9260 O.2       0 UNK        -0.5000 
      4 N          -0.1399  -12.8478  -46.9362 N.am      1 UNK        -0.5000 
      5 CA         -0.6881  -14.1488  -46.5231 C.3       1 UNK         0.1400 
      6 C6         -1.1718  -14.9890  -47.7272 C.3       23 UNK        -0.0398 
      7 S7          0.1019  -15.2455  -49.0124 S.3       23 UNK        -0.2404 
      8 C8         -0.9206  -15.6360  -50.4708 C.3       23 UNK        -0.0205 
      9 C9         -1.6062  -16.9879  -50.3358 C.ar      23 UNK        -0.0193 
     10 C10        -1.0320  -18.1382  -50.8852 C.ar      23 UNK        -0.1150 
     11 C11        -1.6546  -19.3820  -50.7358 C.ar      23 UNK        -0.0193 
     12 C12        -2.8619  -19.4682  -50.0354 C.ar      23 UNK        -0.1150 
     13 C13        -3.4207  -18.3309  -49.4482 C.ar      23 UNK        -0.0193 
     14 C14        -2.8093  -17.0913  -49.6354 C.ar      23 UNK        -0.1150 
     15 C15        -4.6570  -18.4297  -48.5695 C.3       23 UNK        -0.0205 
     16 S16        -4.3876  -19.2868  -46.9712 S.3       23 UNK        -0.2404 
     17 C17        -2.5829  -19.2800  -46.6288 C.3       23 UNK        -0.0398 
     18 CA         -1.8878  -20.6289  -46.9609 C.3       11 UNK         0.1400 
     19 N          -0.4275  -20.5540  -46.8562 N.am      11 UNK        -0.5000 
     20 C           0.4065  -21.4999  -47.3161 C.2       10 UNK         0.5000 
     21 O           0.0335  -22.5014  -47.9259 O.2       10 UNK        -0.5000 
     22 CA          1.9019  -21.3351  -46.9948 C.3       10 UNK         0.1400 
     23 CB          2.5738  -20.3887  -48.0007 C.3       10 UNK        -0.1800 
     24 N           2.1357  -20.8668  -45.6280 N.am      10 UNK        -0.5000 
     25 C           1.7961  -21.5482  -44.5236 C.2       9 UNK         0.5000 
     26 O           1.3095  -22.6769  -44.5438 O.2       9 UNK        -0.5000 
     27 CA          1.9720  -20.8346  -43.1707 C.3       9 UNK         0.1400 
     28 CB          3.4045  -21.0034  -42.6475 C.3       9 UNK        -0.1800 
     29 N           1.6240  -19.4142  -43.2314 N.am      9 UNK        -0.5000 
     30 C           0.4033  -18.9462  -43.5319 C.2       8 UNK         0.5000 
     31 O          -0.5719  -19.6676  -43.7469 O.2       8 UNK        -0.5000 
     32 CA          0.2613  -17.4209  -43.6670 C.3       8 UNK         0.1400 
     33 CB          0.0204  -16.7679  -42.3005 C.3       8 UNK        -0.1800 
     34 N           1.4313  -16.8190  -44.3084 N.am      8 UNK        -0.5000 
     35 C           1.7167  -16.9653  -45.6099 C.2       7 UNK         0.5000 
     36 O           0.9905  -17.5727  -46.3969 O.2       7 UNK        -0.5000 
     37 CA          3.0529  -16.3734  -46.0996 C.3       7 UNK         0.1400 
     38 CB          2.9612  -14.8543  -46.3043 C.3       7 UNK        -0.1800 
     39 N           4.1508  -16.6548  -45.1777 N.am      7 UNK        -0.5000 
     40 C           4.6524  -17.8744  -44.9465 C.2       6 UNK         0.5000 
     41 O           4.2565  -18.8930  -45.5099 O.2       6 UNK        -0.5000 
     42 CA          5.7623  -17.9804  -43.8852 C.3       6 UNK         0.1400 
     43 CB          7.1441  -17.8453  -44.5418 C.3       6 UNK        -0.1800 
     44 N           5.6490  -17.0029  -42.8003 N.am      6 UNK        -0.5000 
     45 C           4.6046  -16.8677  -41.9710 C.2       5 UNK         0.5000 
     46 O           3.5735  -17.5398  -42.0587 O.2       5 UNK        -0.5000 
     47 CA          4.7528  -15.8284  -40.8397 C.3       5 UNK         0.1400 
     48 CB          5.7530  -14.6940  -41.1623 C.3       5 UNK        -0.1800 
     49 N           3.4720  -15.2684  -40.4003 N.am      5 UNK        -0.5000 
     50 C           2.6162  -14.5261  -41.1163 C.2       4 UNK         0.5000 
     51 O           2.7596  -14.2634  -42.3140 O.2       4 UNK        -0.5000 
     52 CA          1.4025  -13.9757  -40.3444 C.3       4 UNK         0.1400 
     53 CB          1.8187  -13.3398  -38.9972 C.3       4 UNK        -0.1800 
     54 N           0.7028  -12.9872  -41.1622 N.am      4 UNK        -0.5000 
     55 C          -0.5277  -12.5180  -40.9257 C.2       3 UNK         0.5000 
     56 O          -1.2661  -12.9607  -40.0445 O.2       3 UNK        -0.5000 
     57 CA         -1.0078  -11.3367  -41.7875 C.3       3 UNK         0.1400 
     58 CB          0.1203  -10.3523  -42.1538 C.3       3 UNK        -0.1800 
     59 N          -1.6686  -11.8089  -43.0013 N.am      3 UNK        -0.5000 
     60 C          -2.9669  -12.1413  -43.0754 C.2       2 UNK         0.5000 
     61 O          -3.7370  -12.0897  -42.1154 O.2       2 UNK        -0.5000 
     62 CA         -3.5286  -12.5684  -44.4477 C.3       2 UNK         0.1400 
     63 CB         -4.4223  -11.4614  -45.0299 C.3       2 UNK        -0.1800 
     64 N          -2.4926  -12.8890  -45.4273 N.am      2 UNK        -0.5000 
     65 C          -1.8095  -14.0399  -45.4670 C.2       1 UNK         0.5000 
     66 O          -2.0248  -14.9849  -44.7090 O.2       1 UNK        -0.5000 
     67 C          -2.4543  -21.8174  -46.1566 C.2       11 UNK         0.5000 
     68 O          -3.2749  -22.5683  -46.6884 O.2       11 UNK        -0.5000 
     69 N          -1.9698  -22.0000  -44.9202 N.am      12 UNK        -0.5000 
     70 CA         -2.3310  -23.1204  -44.0513 C.3       12 UNK         0.1400 
     71 CB         -1.7216  -22.9109  -42.6570 C.3       12 UNK        -0.1800 
     72 C          -1.9257  -24.4871  -44.6370 C.2       12 UNK         0.5000 
     73 O          -2.7421  -25.4085  -44.6388 O.2       12 UNK        -0.5000 
     74 N          -0.6947  -24.5818  -45.1595 N.am      13 UNK        -0.5000 
     75 CA         -0.1426  -25.7765  -45.8025 C.3       13 UNK         0.1400 
     76 CB          1.3549  -25.5672  -46.0731 C.3       13 UNK        -0.1800 
     77 C          -0.8760  -26.1624  -47.0999 C.2       13 UNK         0.5000 
     78 O          -1.0992  -27.3495  -47.3400 O.2       13 UNK        -0.5000 
     79 N          -1.2603  -25.1573  -47.8983 N.am      14 UNK        -0.5000 
     80 CA         -2.0416  -25.3237  -49.1258 C.3       14 UNK         0.1400 
     81 CB         -1.8915  -24.0586  -49.9839 C.3       14 UNK        -0.1800 
     82 C          -3.5342  -25.6130  -48.8729 C.2       14 UNK         0.5000 
     83 O          -4.2376  -25.9687  -49.8177 O.2       14 UNK        -0.5000 
     84 N          -3.9967  -25.4219  -47.6281 N.am      15 UNK        -0.5000 
     85 CA         -5.3906  -25.4873  -47.1781 C.3       15 UNK         0.1400 
     86 CB         -5.9459  -26.9225  -47.2905 C.3       15 UNK        -0.1800 
     87 C          -6.2730  -24.4289  -47.8744 C.2       15 UNK         0.5000 
     88 O          -7.4068  -24.7177  -48.2615 O.2       15 UNK        -0.5000 
     89 N          -5.7136  -23.2182  -48.0167 N.am      16 UNK        -0.5000 
     90 CA         -6.3029  -22.0250  -48.6263 C.3       16 UNK         0.1400 
     91 CB         -7.4387  -21.4671  -47.7447 C.3       16 UNK        -0.1800 
     92 C          -6.7075  -22.2107  -50.1027 C.2       16 UNK         0.5000 
     93 O          -7.7856  -21.7737  -50.5093 O.2       16 UNK        -0.5000 
     94 N          -5.8231  -22.8471  -50.8854 N.am      17 UNK        -0.5000 
     95 CA         -6.0076  -23.0856  -52.3210 C.3       17 UNK         0.1400 
     96 CB         -4.9295  -24.0600  -52.8152 C.3       17 UNK        -0.1800 
     97 C          -6.0157  -21.7918  -53.1641 C.2       17 UNK         0.5000 
     98 O          -6.7113  -21.7450  -54.1788 O.2       17 UNK        -0.5000 
     99 N          -5.2676  -20.7750  -52.7048 N.am      18 UNK        -0.5000 
    100 CA        -5.2094  -19.3798  -53.1583 C.3       18 UNK         0.1400 
    101 CB        -6.3879  -18.5956  -52.5452 C.3       18 UNK        -0.1800 
    102 C         -5.1028  -19.2099  -54.6887 C.2       18 UNK         0.5000 
    103 O         -3.9973  -19.2445  -55.2329 O.2       18 UNK        -0.5000 
    104 N         -6.2580  -19.0580  -55.3544 N.am      19 UNK        -0.5000 
    105 CA        -6.4361  -18.9033  -56.8026 C.3       19 UNK         0.1400 
    106 CB        -7.9298  -18.6895  -57.0925 C.3       19 UNK        -0.1800 
    107 C         -5.8807  -20.0631  -57.6567 C.2       19 UNK         0.5000 
    108 O         -5.6857  -19.8846  -58.8594 O.2       19 UNK        -0.5000 
    109 N         -5.5923  -21.2092  -57.0239 N.am      20 UNK        -0.5000 
    110 CA        -4.8456  -22.3349  -57.5912 C.3       20 UNK         0.1400 
    111 CB        -4.9003  -23.5010  -56.5946 C.3       20 UNK        -0.1800 
    112 C         -3.3723  -22.0122  -57.9360 C.2       20 UNK         0.5000 
    113 O         -2.7347  -22.8185  -58.6141 O.2       20 UNK        -0.5000 
    114 N         -2.8616  -20.8631  -57.4636 N.am      21 UNK        -0.5000 
    115 CA        -1.4986  -20.3499  -57.6308 C.3       21 UNK         0.1400 
    116 CB        -1.1289  -20.1660  -59.1184 C.3       21 UNK        -0.1800 
    117 C         -0.4759  -21.1787  -56.8318 C.2       21 UNK         0.5000 
    118 O          0.5688  -21.5712  -57.3545 O.2       21 UNK        -0.5000 
    119 N         -0.8124  -21.4198  -55.5601 N.am      22 UNK        -0.5000 
    120 CA         0.0260  -22.0938  -54.5558 C.3       22 UNK         0.1400 
    121 C          1.2798  -21.2935  -54.0908 C.2       22 UNK         0.5000 
    122 N          1.3898  -19.9998  -54.3685 N.am      22 UNK        -0.7600 
    123 O          2.1735  -21.8623  -53.4703 O.2       22 UNK        -0.5000 
    124 C124       -0.8206  -22.5778  -53.3467 C.3       23 UNK        -0.0398 
    125 S125       -1.9526  -21.3030  -52.6880 S.3       23 UNK        -0.2404 
    126 C126       -1.0028  -20.6375  -51.2911 C.3       23 UNK        -0.0205 
    127 H127        2.1448  -10.6882  -46.6260 H         1 UNK         0.0600 
    128 H128        0.6297   -9.8496  -46.2742 H         1 UNK         0.0600 
    129 H129        0.8465  -10.6708  -47.8236 H         1 UNK         0.0600 
    130 H130       -0.2169  -12.6373  -47.9214 H         1 UNK         0.3000 
    131 H131        0.1196  -14.6929  -46.0369 H         1 UNK         0.0600 
    132 H132       -1.4962  -15.9738  -47.3856 H         1 UNK         0.0800 
    133 H133       -2.0389  -14.5103  -48.1851 H         1 UNK         0.0800 
    134 H134       -0.2839  -15.6296  -51.3567 H         1 UNK         0.0800 
    135 H135       -1.6616  -14.8502  -50.6249 H         1 UNK         0.0800 
    136 H136       -0.0934  -18.0662  -51.4165 H         1 UNK         0.1150 
    137 H137       -3.3375  -20.4293  -49.9033 H         1 UNK         0.1150 
    138 H138       -3.2538  -16.2084  -49.2007 H         1 UNK         0.1150 
    139 H139       -5.0476  -17.4340  -48.3542 H         1 UNK         0.0800 
    140 H140       -5.4475  -18.9413  -49.1188 H         1 UNK         0.0800 
    141 H141       -2.1024  -18.4639  -47.1679 H         1 UNK         0.0800 
    142 H142       -2.4485  -19.0412  -45.5732 H         1 UNK         0.0800 
    143 H143       -2.0955  -20.8631  -48.0023 H         1 UNK         0.0600 
    144 H144       -0.0388  -19.7572  -46.3688 H         1 UNK         0.3000 
    145 H145        2.3704  -22.3165  -47.0921 H         1 UNK         0.0600 
    146 H146        3.6493  -20.3340  -47.8323 H         1 UNK         0.0600 
    147 H147        2.4220  -20.7357  -49.0236 H         1 UNK         0.0600 
    148 H148        2.1732  -19.3772  -47.9361 H         1 UNK         0.0600 
    149 H149        2.6073  -19.9733  -45.5283 H         1 UNK         0.3000 
    150 H150        1.2946  -21.3045  -42.4549 H         1 UNK         0.0600 
    151 H151        3.6270  -22.0552  -42.4645 H         1 UNK         0.0600 
    152 H152        3.5525  -20.4695  -41.7085 H         1 UNK         0.0600 
    153 H153        4.1376  -20.6382  -43.3647 H         1 UNK         0.0600 
    154 H154        2.3611  -18.7491  -43.0159 H         1 UNK         0.3000 
    155 H155       -0.6122  -17.2261  -44.2924 H         1 UNK         0.0600 
    156 H156       -0.1291  -15.6929  -42.4037 H         1 UNK         0.0600 
    157 H157        0.8568  -16.9356  -41.6217 H         1 UNK         0.0600 
    158 H158       -0.8738  -17.1751  -41.8273 H         1 UNK         0.0600 
    159 H159        2.0881  -16.3367  -43.7088 H         1 UNK         0.3000 
    160 H160        3.2908  -16.8333  -47.0613 H         1 UNK         0.0600 
    161 H161        2.6539  -14.3392  -45.3928 H         1 UNK         0.0600 
    162 H162        2.2428  -14.6091  -47.0847 H         1 UNK         0.0600 
    163 H163        3.9195  -14.4387  -46.6160 H         1 UNK         0.0600 
    164 H164        4.5202  -15.8751  -44.6536 H         1 UNK         0.3000 
    165 H165        5.6992  -18.9724  -43.4367 H         1 UNK         0.0600 
    166 H166        7.2877  -16.8560  -44.9782 H         1 UNK         0.0600 
    167 H167        7.9433  -18.0140  -43.8197 H         1 UNK         0.0600 
    168 H168        7.2704  -18.5779  -45.3402 H         1 UNK         0.0600 
    169 H169        6.4511  -16.4074  -42.6542 H         1 UNK         0.3000 
    170 H170        5.1463  -16.3780  -39.9837 H         1 UNK         0.0600 
    171 H171        6.7691  -15.0740  -41.2724 H         1 UNK         0.0600 
    172 H172        5.4912  -14.1692  -42.0821 H         1 UNK         0.0600 
    173 H173        5.7799  -13.9574  -40.3591 H         1 UNK         0.0600 
    174 H174        3.2342  -15.4620  -39.4382 H         1 UNK         0.3000 
    175 H175        0.7288  -14.8125  -40.1522 H         1 UNK         0.0600 
    176 H176        0.9630  -12.9263  -38.4638 H         1 UNK         0.0600 
    177 H177        2.2732  -14.0706  -38.3281 H         1 UNK         0.0600 
    178 H178        2.5380  -12.5330  -39.1435 H         1 UNK         0.0600 
    179 H179        1.2296  -12.6519  -41.9598 H         1 UNK         0.3000 
    180 H180       -1.7264  -10.7757  -41.1859 H         1 UNK         0.0600 
    181 H181       -0.2750   -9.4893  -42.6897 H         1 UNK         0.0600 
    182 H182        0.6125   -9.9764  -41.2560 H         1 UNK         0.0600 
    183 H183        0.8876  -10.8048  -42.7805 H         1 UNK         0.0600 
    184 H184       -1.0747  -11.9336  -43.8137 H         1 UNK         0.3000 
    185 H185       -4.1471  -13.4541  -44.2866 H         1 UNK         0.0600 
    186 H186       -4.8743  -11.7734  -45.9717 H         1 UNK         0.0600 
    187 H187       -5.2366  -11.2152  -44.3472 H         1 UNK         0.0600 
    188 H188       -3.8598  -10.5451  -45.2135 H         1 UNK         0.0600 
    189 H189       -2.2459  -12.1616  -46.0828 H         1 UNK         0.3000 
    190 H190       -1.3161  -21.3186  -44.5458 H         1 UNK         0.3000 
    191 H191       -3.4180  -23.1158  -43.9468 H         1 UNK         0.0600 
    192 H192       -2.0264  -23.7062  -41.9757 H         1 UNK         0.0600 
    193 H193       -2.0476  -21.9659  -42.2221 H         1 UNK         0.0600 
    194 H194       -0.6324  -22.9059  -42.6872 H         1 UNK         0.0600 
    195 H195       -0.0650  -23.7867  -45.0713 H         1 UNK         0.3000 
    196 H196       -0.2481  -26.6084  -45.1032 H         1 UNK         0.0600 
    197 H197        1.7960  -26.4484  -46.5404 H         1 UNK         0.0600 
    198 H198        1.9004  -25.3826  -45.1475 H         1 UNK         0.0600 
    199 H199        1.5278  -24.7200  -46.7377 H         1 UNK         0.0600 
    200 H200       -0.9828  -24.2083  -47.6651 H         1 UNK         0.3000 
    201 H201       -1.6340  -26.1668  -49.6873 H         1 UNK         0.0600 
    202 H202       -0.8440  -23.8631  -50.2128 H         1 UNK         0.0600 
    203 H203       -2.2951  -23.1811  -49.4770 H         1 UNK         0.0600 
    204 H204       -2.4149  -24.1615  -50.9346 H         1 UNK         0.0600 
    205 H205       -3.3342  -25.1085  -46.9304 H         1 UNK         0.3000 
    206 H206       -5.3780  -25.2227  -46.1197 H         1 UNK         0.0600 
    207 H207       -5.2949  -27.6363  -46.7856 H         1 UNK         0.0600 
    208 H208       -6.9298  -26.9963  -46.8262 H         1 UNK         0.0600 
    209 H209       -6.0512  -27.2394  -48.3283 H         1 UNK         0.0600 
    210 H210       -4.7834  -23.0847  -47.6228 H         1 UNK         0.3000 
    211 H211       -5.5038  -21.2876  -48.6426 H         1 UNK         0.0600 
    212 H212       -8.2922  -22.1445  -47.7071 H         1 UNK         0.0600 
    213 H213       -7.7947  -20.5091  -48.1253 H         1 UNK         0.0600 
    214 H214       -7.0960  -21.3000  -46.7235 H         1 UNK         0.0600 
    215 H215       -4.9886  -23.2276  -50.4646 H         1 UNK         0.3000 
    216 H216       -6.9792  -23.5670  -52.4505 H         1 UNK         0.0600 
    217 H217       -3.9372  -23.6098  -52.8037 H         1 UNK         0.0600 
    218 H218       -5.1385  -24.3818  -53.8344 H         1 UNK         0.0600 
    219 H219       -4.8988  -24.9607  -52.2032 H         1 UNK         0.0600 
    220 H220       -4.6819  -20.9780  -51.9091 H         1 UNK         0.3000 
    221 H221       -4.2901  -18.9610  -52.7453 H         1 UNK         0.0600 
    222 H222       -7.3526  -19.0347  -52.8020 H         1 UNK         0.0600 
    223 H223       -6.3172  -18.5799  -51.4578 H         1 UNK         0.0600 
    224 H224       -6.3906  -17.5578  -52.8812 H         1 UNK         0.0600 
    225 H225       -7.1091  -19.1039  -54.8133 H         1 UNK         0.3000 
    226 H226       -5.8963  -18.0026  -57.1009 H         1 UNK         0.0600 
    227 H227       -8.3123  -17.8117  -56.5713 H         1 UNK         0.0600 
    228 H228       -8.1050  -18.5339  -58.1579 H         1 UNK         0.0600 
    229 H229       -8.5244  -19.5505  -56.7841 H         1 UNK         0.0600 
    230 H230       -5.8383  -21.2801  -56.0423 H         1 UNK         0.3000 
    231 H231       -5.3433  -22.6397  -58.5137 H         1 UNK         0.0600 
    232 H232       -4.4462  -24.3993  -57.0147 H         1 UNK         0.0600 
    233 H233       -5.9272  -23.7498  -56.3255 H         1 UNK         0.0600 
    234 H234       -4.3583  -23.2561  -55.6809 H         1 UNK         0.0600 
    235 H235       -3.4552  -20.3007  -56.8616 H         1 UNK         0.3000 
    236 H236       -1.4994  -19.3571  -57.1782 H         1 UNK         0.0600 
    237 H237       -1.8831  -19.5784  -59.6419 H         1 UNK         0.0600 
    238 H238       -0.1795  -19.6389  -59.2181 H         1 UNK         0.0600 
    239 H239       -1.0247  -21.1187  -59.6377 H         1 UNK         0.0600 
    240 H240       -1.6870  -21.0521  -55.2113 H         1 UNK         0.3000 
    241 H241        0.4269  -22.9880  -55.0367 H         1 UNK         0.0600 
    242 H242        0.6606  -19.5180  -54.8678 H         1 UNK         0.3800 
    243 H243        2.2103  -19.4972  -54.0697 H         1 UNK         0.3800 
    244 H244       -0.1921  -22.9718  -52.5460 H         1 UNK         0.0800 
    245 H245       -1.4396  -23.4174  -53.6651 H         1 UNK         0.0800 
    246 H246        0.0178  -20.4238  -51.6098 H         1 UNK         0.0800 
    247 H247       -0.9270  -21.3861  -50.5025 H         1 UNK         0.0800 
@<TRIPOS>BOND
     1    1    2 1    
     2    1  127 1    
     3    1  128 1    
     4    1  129 1    
     5    2    3 2    
     6    2    4 am   BACKBONE|DICT|INTERRES
     7    4    5 1    
     8    4  130 1    
     9    5    6 1    
    10    5   65 1    
    11    5  131 1    
    12    6    7 1    
    13    6  132 1    
    14    6  133 1    
    15    7    8 1    
    16    8    9 1    
    17    8  134 1    
    18    8  135 1    
    19    9   10 ar   
    20    9   14 ar   
    21   10   11 ar   
    22   10  136 1    
    23   11   12 ar   
    24   11  126 1    
    25   12   13 ar   
    26   12  137 1    
    27   13   14 ar   
    28   13   15 1    
    29   14  138 1    
    30   15   16 1    
    31   15  139 1    
    32   15  140 1    
    33   16   17 1    
    34   17   18 1    
    35   17  141 1    
    36   17  142 1    
    37   18   19 1    
    38   18   67 1    
    39   18  143 1    
    40   19   20 am   BACKBONE|DICT|INTERRES
    41   19  144 1    
    42   20   21 2    
    43   20   22 1    
    44   22   23 1    
    45   22   24 1    
    46   22  145 1    
    47   23  146 1    
    48   23  147 1    
    49   23  148 1    
    50   24   25 am   BACKBONE|DICT|INTERRES
    51   24  149 1    
    52   25   26 2    
    53   25   27 1    
    54   27   28 1    
    55   27   29 1    
    56   27  150 1    
    57   28  151 1    
    58   28  152 1    
    59   28  153 1    
    60   29   30 am   BACKBONE|DICT|INTERRES
    61   29  154 1    
    62   30   31 2    
    63   30   32 1    
    64   32   33 1    
    65   32   34 1    
    66   32  155 1    
    67   33  156 1    
    68   33  157 1    
    69   33  158 1    
    70   34   35 am   BACKBONE|DICT|INTERRES
    71   34  159 1    
    72   35   36 2    
    73   35   37 1    
    74   37   38 1    
    75   37   39 1    
    76   37  160 1    
    77   38  161 1    
    78   38  162 1    
    79   38  163 1    
    80   39   40 am   BACKBONE|DICT|INTERRES
    81   39  164 1    
    82   40   41 2    
    83   40   42 1    
    84   42   43 1    
    85   42   44 1    
    86   42  165 1    
    87   43  166 1    
    88   43  167 1    
    89   43  168 1    
    90   44   45 am   BACKBONE|DICT|INTERRES
    91   44  169 1    
    92   45   46 2    
    93   45   47 1    
    94   47   48 1    
    95   47   49 1    
    96   47  170 1    
    97   48  171 1    
    98   48  172 1    
    99   48  173 1    
   100   49   50 am   BACKBONE|DICT|INTERRES
   101   49  174 1    
   102   50   51 2    
   103   50   52 1    
   104   52   53 1    
   105   52   54 1    
   106   52  175 1    
   107   53  176 1    
   108   53  177 1    
   109   53  178 1    
   110   54   55 am   BACKBONE|DICT|INTERRES
   111   54  179 1    
   112   55   56 2    
   113   55   57 1    
   114   57   58 1    
   115   57   59 1    
   116   57  180 1    
   117   58  181 1    
   118   58  182 1    
   119   58  183 1    
   120   59   60 am   BACKBONE|DICT|INTERRES
   121   59  184 1    
   122   60   61 2    
   123   60   62 1    
   124   62   63 1    
   125   62   64 1    
   126   62  185 1    
   127   63  186 1    
   128   63  187 1    
   129   63  188 1    
   130   64   65 am   BACKBONE|DICT|INTERRES
   131   64  189 1    
   132   65   66 2    
   133   67   68 2    
   134   67   69 am   BACKBONE|DICT|INTERRES
   135   69   70 1    
   136   69  190 1    
   137   70   71 1    
   138   70   72 1    
   139   70  191 1    
   140   71  192 1    
   141   71  193 1    
   142   71  194 1    
   143   72   73 2    
   144   72   74 am   BACKBONE|DICT|INTERRES
   145   74   75 1    
   146   74  195 1    
   147   75   76 1    
   148   75   77 1    
   149   75  196 1    
   150   76  197 1    
   151   76  198 1    
   152   76  199 1    
   153   77   78 2    
   154   77   79 am   BACKBONE|DICT|INTERRES
   155   79   80 1    
   156   79  200 1    
   157   80   81 1    
   158   80   82 1    
   159   80  201 1    
   160   81  202 1    
   161   81  203 1    
   162   81  204 1    
   163   82   83 2    
   164   82   84 am   BACKBONE|DICT|INTERRES
   165   84   85 1    
   166   84  205 1    
   167   85   86 1    
   168   85   87 1    
   169   85  206 1    
   170   86  207 1    
   171   86  208 1    
   172   86  209 1    
   173   87   88 2    
   174   87   89 am   BACKBONE|DICT|INTERRES
   175   89   90 1    
   176   89  210 1    
   177   90   91 1    
   178   90   92 1    
   179   90  211 1    
   180   91  212 1    
   181   91  213 1    
   182   91  214 1    
   183   92   93 2    
   184   92   94 am   BACKBONE|DICT|INTERRES
   185   94   95 1    
   186   94  215 1    
   187   95   96 1    
   188   95   97 1    
   189   95  216 1    
   190   96  217 1    
   191   96  218 1    
   192   96  219 1    
   193   97   98 2    
   194   97   99 am   BACKBONE|DICT|INTERRES
   195   99  100 1    
   196   99  220 1    
   197  100  101 1    
   198  100  102 1    
   199  100  221 1    
   200  101  222 1    
   201  101  223 1    
   202  101  224 1    
   203  102  103 2    
   204  102  104 am   BACKBONE|DICT|INTERRES
   205  104  105 1    
   206  104  225 1    
   207  105  106 1    
   208  105  107 1    
   209  105  226 1    
   210  106  227 1    
   211  106  228 1    
   212  106  229 1    
   213  107  108 2    
   214  107  109 am   BACKBONE|DICT|INTERRES
   215  109  110 1    
   216  109  230 1    
   217  110  111 1    
   218  110  112 1    
   219  110  231 1    
   220  111  232 1    
   221  111  233 1    
   222  111  234 1    
   223  112  113 2    
   224  112  114 am   BACKBONE|DICT|INTERRES
   225  114  115 1    
   226  114  235 1    
   227  115  116 1    
   228  115  117 1    
   229  115  236 1    
   230  116  237 1    
   231  116  238 1    
   232  116  239 1    
   233  117  118 2    
   234  117  119 am   BACKBONE|DICT|INTERRES
   235  119  120 1    
   236  119  240 1    
   237  120  121 1    
   238  120  124 1    
   239  120  241 1    
   240  121  122 am   BACKBONE|DICT|INTERRES
   241  121  123 2    
   242  122  242 1    
   243  122  243 1    
   244  124  125 1    
   245  124  244 1    
   246  124  245 1    
   247  125  126 1    
   248  126  246 1    
   249  126  247 1    
@<TRIPOS>SUBSTRUCTURE
     1 UNK         1 GROUP             0       ****    0 ROOT    
