@<TRIPOS>MOLECULE
3R540
247   249    1
SMALL
USER_CHARGES


@<TRIPOS>ATOM
      1 CA          2.3517  -14.4512  -51.9573 C.3       0 UNK        -0.1800 
      2 C           2.8264  -13.6721  -50.7391 C.2       0 UNK         0.5000 
      3 O           3.0562  -12.4660  -50.8298 O.2       0 UNK        -0.5000 
      4 N           2.9725  -14.3581  -49.6000 N.am      1 UNK        -0.5000 
      5 CA          3.2773  -13.7739  -48.2932 C.3       1 UNK         0.1400 
      6 C6          3.8627  -14.8107  -47.2915 C.3       23 UNK        -0.0398 
      7 S7          3.0901  -16.4726  -47.3404 S.3       23 UNK        -0.2404 
      8 C8          4.3421  -17.4173  -48.2724 C.3       23 UNK        -0.0205 
      9 C9          3.7097  -18.4595  -49.1831 C.ar      23 UNK        -0.0193 
     10 C10         3.0362  -18.0507  -50.3360 C.ar      23 UNK        -0.1150 
     11 C11         2.4494  -18.9832  -51.1934 C.ar      23 UNK        -0.0193 
     12 C12         2.5805  -20.3465  -50.9143 C.ar      23 UNK        -0.1150 
     13 C13         3.2776  -20.7743  -49.7782 C.ar      23 UNK        -0.0193 
     14 C14         3.8241  -19.8252  -48.9059 C.ar      23 UNK        -0.1150 
     15 C15         3.4801  -22.2619  -49.5200 C.3       23 UNK        -0.0205 
     16 S16         1.9233  -23.1313  -49.1604 S.3       23 UNK        -0.2404 
     17 C17         1.4566  -22.4034  -47.5543 C.3       23 UNK        -0.0398 
     18 CA          0.7654  -23.4129  -46.6065 C.3       11 UNK         0.1400 
     19 N           0.7948  -22.9273  -45.2234 N.am      11 UNK        -0.5000 
     20 C           0.3216  -23.5478  -44.1320 C.2       10 UNK         0.5000 
     21 O          -0.3143  -24.6014  -44.1716 O.2       10 UNK        -0.5000 
     22 CA          0.6266  -22.8931  -42.7669 C.3       10 UNK         0.1400 
     23 CB          1.2803  -23.9028  -41.8087 C.3       10 UNK        -0.1800 
     24 N           1.5152  -21.7336  -42.9012 N.am      10 UNK        -0.5000 
     25 C           1.1016  -20.4705  -43.0476 C.2       9 UNK         0.5000 
     26 O          -0.0773  -20.1183  -42.9645 O.2       9 UNK        -0.5000 
     27 CA          2.1924  -19.4413  -43.3768 C.3       9 UNK         0.1400 
     28 CB          2.7403  -19.6343  -44.8049 C.3       9 UNK        -0.1800 
     29 N           1.6153  -18.1124  -43.2601 N.am      9 UNK        -0.5000 
     30 C           2.2636  -16.9941  -42.9251 C.2       8 UNK         0.5000 
     31 O           3.4724  -16.9466  -42.6936 O.2       8 UNK        -0.5000 
     32 CA          1.4230  -15.7072  -42.8375 C.3       8 UNK         0.1400 
     33 CB          1.7177  -14.8015  -44.0393 C.3       8 UNK        -0.1800 
     34 N          -0.0172  -15.9630  -42.8072 N.am      8 UNK        -0.5000 
     35 C          -0.7131  -16.3508  -41.7310 C.2       7 UNK         0.5000 
     36 O          -0.2109  -16.5359  -40.6222 O.2       7 UNK        -0.5000 
     37 CA         -2.2171  -16.5862  -41.9352 C.3       7 UNK         0.1400 
     38 CB         -2.9743  -15.2480  -41.9573 C.3       7 UNK        -0.1800 
     39 N          -2.4687  -17.2971  -43.1894 N.am      7 UNK        -0.5000 
     40 C          -3.0665  -18.4932  -43.2906 C.2       6 UNK         0.5000 
     41 O          -3.4837  -19.1310  -42.3230 O.2       6 UNK        -0.5000 
     42 CA         -3.2667  -19.0752  -44.7044 C.3       6 UNK         0.1400 
     43 CB         -4.7462  -18.9705  -45.1131 C.3       6 UNK        -0.1800 
     44 N          -2.4660  -18.3798  -45.7080 N.am      6 UNK        -0.5000 
     45 C          -1.2785  -18.7759  -46.1809 C.2       5 UNK         0.5000 
     46 O          -0.7960  -19.8903  -45.9719 O.2       5 UNK        -0.5000 
     47 CA         -0.4879  -17.7465  -47.0223 C.3       5 UNK         0.1400 
     48 CB          0.0100  -18.3526  -48.3392 C.3       5 UNK        -0.1800 
     49 N          -1.2180  -16.5114  -47.3351 N.am      5 UNK        -0.5000 
     50 C          -1.5132  -15.5358  -46.4697 C.2       4 UNK         0.5000 
     51 O          -1.2645  -15.5936  -45.2628 O.2       4 UNK        -0.5000 
     52 CA         -2.3075  -14.3488  -47.0200 C.3       4 UNK         0.1400 
     53 CB         -3.8179  -14.6365  -46.9224 C.3       4 UNK        -0.1800 
     54 N          -1.9637  -13.1611  -46.2472 N.am      4 UNK        -0.5000 
     55 C          -2.2064  -11.9003  -46.6185 C.2       3 UNK         0.5000 
     56 O          -2.7968  -11.5919  -47.6536 O.2       3 UNK        -0.5000 
     57 CA         -1.6755  -10.7834  -45.6999 C.3       3 UNK         0.1400 
     58 CB         -2.7571  -10.3764  -44.6877 C.3       3 UNK        -0.1800 
     59 N          -0.4597  -11.1521  -44.9669 N.am      3 UNK        -0.5000 
     60 C           0.7941  -11.2314  -45.4390 C.2       2 UNK         0.5000 
     61 O           1.7352  -11.5085  -44.6952 O.2       2 UNK        -0.5000 
     62 CA          1.0994  -10.9083  -46.9192 C.3       2 UNK         0.1400 
     63 CB          1.5188   -9.4377  -47.0703 C.3       2 UNK        -0.1800 
     64 N           2.1719  -11.7588  -47.4341 N.am      2 UNK        -0.5000 
     65 C           2.0267  -13.0520  -47.7503 C.2       1 UNK         0.5000 
     66 O           0.9594  -13.6612  -47.6624 O.2       1 UNK        -0.5000 
     67 C          -0.6474  -23.7934  -47.0997 C.2       11 UNK         0.5000 
     68 O          -0.7854  -24.7675  -47.8392 O.2       11 UNK        -0.5000 
     69 N          -1.6758  -23.0707  -46.6337 N.am      12 UNK        -0.5000 
     70 CA         -3.0903  -23.3229  -46.9286 C.3       12 UNK         0.1400 
     71 CB         -3.9337  -22.2385  -46.2536 C.3       12 UNK        -0.1800 
     72 C          -3.6076  -24.7205  -46.5304 C.2       12 UNK         0.5000 
     73 O          -4.6066  -25.1720  -47.0906 O.2       12 UNK        -0.5000 
     74 N          -2.9291  -25.3886  -45.5862 N.am      13 UNK        -0.5000 
     75 CA         -3.2223  -26.7676  -45.1947 C.3       13 UNK         0.1400 
     76 CB         -2.5924  -27.0440  -43.8208 C.3       13 UNK        -0.1800 
     77 C          -2.7338  -27.8036  -46.2283 C.2       13 UNK         0.5000 
     78 O          -3.2242  -28.9335  -46.2156 O.2       13 UNK        -0.5000 
     79 N          -1.7781  -27.4177  -47.0850 N.am      14 UNK        -0.5000 
     80 CA         -1.1631  -28.2746  -48.0956 C.3       14 UNK         0.1400 
     81 CB          0.3662  -28.1802  -47.9667 C.3       14 UNK        -0.1800 
     82 C          -1.6072  -27.8867  -49.5146 C.2       14 UNK         0.5000 
     83 O          -1.9461  -28.7725  -50.3007 O.2       14 UNK        -0.5000 
     84 N          -1.5865  -26.5848  -49.8248 N.am      15 UNK        -0.5000 
     85 CA         -1.8716  -26.0378  -51.1463 C.3       15 UNK         0.1400 
     86 CB         -0.7196  -25.1046  -51.5548 C.3       15 UNK        -0.1800 
     87 C          -3.1978  -25.2684  -51.1275 C.2       15 UNK         0.5000 
     88 O          -3.3553  -24.3331  -50.3406 O.2       15 UNK        -0.5000 
     89 N          -4.1052  -25.6245  -52.0459 N.am      16 UNK        -0.5000 
     90 CA         -5.3802  -24.9329  -52.2620 C.3       16 UNK         0.1400 
     91 CB         -6.2499  -25.7604  -53.2197 C.3       16 UNK        -0.1800 
     92 C          -5.2042  -23.4971  -52.7947 C.2       16 UNK         0.5000 
     93 O          -6.0455  -22.6413  -52.5234 O.2       16 UNK        -0.5000 
     94 N          -4.0959  -23.2470  -53.5081 N.am      17 UNK        -0.5000 
     95 CA         -3.6923  -21.9218  -53.9770 C.3       17 UNK         0.1400 
     96 CB         -2.4751  -22.0511  -54.9046 C.3       17 UNK        -0.1800 
     97 C          -3.3863  -20.9620  -52.8152 C.2       17 UNK         0.5000 
     98 O          -3.8142  -19.8109  -52.8536 O.2       17 UNK        -0.5000 
     99 N          -2.6985  -21.4603  -51.7791 N.am      18 UNK        -0.5000 
    100 CA        -2.3718  -20.7004  -50.5722 C.3       18 UNK         0.1400 
    101 CB        -1.3109  -21.4521  -49.7642 C.3       18 UNK        -0.1800 
    102 C         -3.6060  -20.3824  -49.7119 C.2       18 UNK         0.5000 
    103 O         -3.6722  -19.3023  -49.1251 O.2       18 UNK        -0.5000 
    104 N         -4.5922  -21.2911  -49.7076 N.am      19 UNK        -0.5000 
    105 CA        -5.9088  -21.0778  -49.0989 C.3       19 UNK         0.1400 
    106 CB        -6.6710  -22.4103  -49.0506 C.3       19 UNK        -0.1800 
    107 C         -6.7341  -19.9909  -49.8200 C.2       19 UNK         0.5000 
    108 O         -7.5563  -19.3319  -49.1843 O.2       19 UNK        -0.5000 
    109 N         -6.4628  -19.7904  -51.1165 N.am      20 UNK        -0.5000 
    110 CA        -6.9956  -18.7129  -51.9516 C.3       20 UNK         0.1400 
    111 CB        -7.2115  -19.2578  -53.3745 C.3       20 UNK        -0.1800 
    112 C         -6.0875  -17.4605  -51.9507 C.2       20 UNK         0.5000 
    113 O         -6.2447  -16.6002  -52.8189 O.2       20 UNK        -0.5000 
    114 N         -5.1477  -17.3786  -50.9945 N.am      21 UNK        -0.5000 
    115 CA        -4.1897  -16.2900  -50.7679 C.3       21 UNK         0.1400 
    116 CB        -4.9193  -14.9904  -50.3682 C.3       21 UNK        -0.1800 
    117 C         -3.1842  -16.0840  -51.9216 C.2       21 UNK         0.5000 
    118 O         -2.6722  -14.9773  -52.0960 O.2       21 UNK        -0.5000 
    119 N         -2.9050  -17.1577  -52.6715 N.am      22 UNK        -0.5000 
    120 CA        -1.9485  -17.2332  -53.7900 C.3       22 UNK         0.1400 
    121 C         -2.4010  -16.4751  -55.0746 C.2       22 UNK         0.5000 
    122 N         -3.6630  -16.0798  -55.2000 N.am      22 UNK        -0.7600 
    123 O         -1.6079  -16.2684  -55.9893 O.2       22 UNK        -0.5000 
    124 C124       -0.4833  -16.9080  -53.3782 C.3       23 UNK        -0.0398 
    125 S125        0.0582  -17.8399  -51.9026 S.3       23 UNK        -0.2404 
    126 C126        1.6743  -18.4991  -52.4094 C.3       23 UNK        -0.0205 
    127 H127        1.7212  -15.2906  -51.6663 H         1 UNK         0.0600 
    128 H128        3.2039  -14.8339  -52.5186 H         1 UNK         0.0600 
    129 H129        1.7664  -13.8097  -52.6162 H         1 UNK         0.0600 
    130 H130        2.7189  -15.3344  -49.5645 H         1 UNK         0.3000 
    131 H131        4.0515  -13.0184  -48.4461 H         1 UNK         0.0600 
    132 H132        3.8031  -14.4343  -46.2692 H         1 UNK         0.0800 
    133 H133        4.9311  -14.9196  -47.4802 H         1 UNK         0.0800 
    134 H134        4.9408  -16.7463  -48.8900 H         1 UNK         0.0800 
    135 H135        5.0322  -17.8828  -47.5673 H         1 UNK         0.0800 
    136 H136        2.9505  -16.9998  -50.5606 H         1 UNK         0.1150 
    137 H137        2.1442  -21.0774  -51.5805 H         1 UNK         0.1150 
    138 H138        4.3605  -20.1490  -48.0251 H         1 UNK         0.1150 
    139 H139        3.9331  -22.7120  -50.4043 H         1 UNK         0.0800 
    140 H140        4.1840  -22.4267  -48.7028 H         1 UNK         0.0800 
    141 H141        0.8317  -21.5267  -47.7208 H         1 UNK         0.0800 
    142 H142        2.3670  -22.0300  -47.0838 H         1 UNK         0.0800 
    143 H143        1.3540  -24.3328  -46.6084 H         1 UNK         0.0600 
    144 H144        1.2495  -22.0393  -45.0799 H         1 UNK         0.3000 
    145 H145       -0.3280  -22.5857  -42.3349 H         1 UNK         0.0600 
    146 H146        1.4803  -23.4506  -40.8371 H         1 UNK         0.0600 
    147 H147        2.2238  -24.2812  -42.2040 H         1 UNK         0.0600 
    148 H148        0.6287  -24.7606  -41.6364 H         1 UNK         0.0600 
    149 H149        2.5029  -21.9380  -42.9642 H         1 UNK         0.3000 
    150 H150        2.9998  -19.5565  -42.6506 H         1 UNK         0.0600 
    151 H151        3.2157  -20.6084  -44.9214 H         1 UNK         0.0600 
    152 H152        3.4922  -18.8816  -45.0437 H         1 UNK         0.0600 
    153 H153        1.9512  -19.5581  -45.5541 H         1 UNK         0.0600 
    154 H154        0.6077  -18.0897  -43.3498 H         1 UNK         0.3000 
    155 H155        1.7077  -15.1782  -41.9257 H         1 UNK         0.0600 
    156 H156        2.7576  -14.4743  -44.0404 H         1 UNK         0.0600 
    157 H157        1.0923  -13.9114  -44.0111 H         1 UNK         0.0600 
    158 H158        1.5258  -15.3088  -44.9856 H         1 UNK         0.0600 
    159 H159       -0.5053  -15.8124  -43.6879 H         1 UNK         0.3000 
    160 H160       -2.5748  -17.1653  -41.0815 H         1 UNK         0.0600 
    161 H161       -2.6681  -14.6227  -42.7973 H         1 UNK         0.0600 
    162 H162       -2.7958  -14.6820  -41.0422 H         1 UNK         0.0600 
    163 H163       -4.0496  -15.4082  -42.0363 H         1 UNK         0.0600 
    164 H164       -2.1323  -16.8434  -44.0305 H         1 UNK         0.3000 
    165 H165       -2.9761  -20.1246  -44.6595 H         1 UNK         0.0600 
    166 H166       -4.9073  -19.3266  -46.1303 H         1 UNK         0.0600 
    167 H167       -5.3762  -19.5688  -44.4539 H         1 UNK         0.0600 
    168 H168       -5.1040  -17.9411  -45.0653 H         1 UNK         0.0600 
    169 H169       -2.7921  -17.4671  -45.9851 H         1 UNK         0.3000 
    170 H170        0.3861  -17.4751  -46.4271 H         1 UNK         0.0600 
    171 H171       -0.8190  -18.6430  -48.9827 H         1 UNK         0.0600 
    172 H172        0.6194  -17.6355  -48.8877 H         1 UNK         0.0600 
    173 H173        0.6318  -19.2310  -48.1684 H         1 UNK         0.0600 
    174 H174       -1.4780  -16.3958  -48.3029 H         1 UNK         0.3000 
    175 H175       -2.0243  -14.1902  -48.0630 H         1 UNK         0.0600 
    176 H176       -4.1370  -14.7511  -45.8855 H         1 UNK         0.0600 
    177 H177       -4.4070  -13.8333  -47.3647 H         1 UNK         0.0600 
    178 H178       -4.0800  -15.5547  -47.4495 H         1 UNK         0.0600 
    179 H179       -1.4341  -13.3471  -45.4056 H         1 UNK         0.3000 
    180 H180       -1.4614   -9.9116  -46.3207 H         1 UNK         0.0600 
    181 H181       -2.4293   -9.5355  -44.0762 H         1 UNK         0.0600 
    182 H182       -3.0138  -11.1989  -44.0186 H         1 UNK         0.0600 
    183 H183       -3.6724  -10.0692  -45.1956 H         1 UNK         0.0600 
    184 H184       -0.5981  -11.3492  -43.9872 H         1 UNK         0.3000 
    185 H185        0.2253  -11.0779  -47.5460 H         1 UNK         0.0600 
    186 H186        2.4159   -9.2129  -46.4918 H         1 UNK         0.0600 
    187 H187        1.7207   -9.1897  -48.1126 H         1 UNK         0.0600 
    188 H188        0.7311   -8.7672  -46.7249 H         1 UNK         0.0600 
    189 H189        3.0814  -11.3285  -47.5163 H         1 UNK         0.3000 
    190 H190       -1.4688  -22.2781  -46.0398 H         1 UNK         0.3000 
    191 H191       -3.2226  -23.2307  -48.0060 H         1 UNK         0.0600 
    192 H192       -3.6676  -21.2564  -46.6419 H         1 UNK         0.0600 
    193 H193       -3.7923  -22.2381  -45.1726 H         1 UNK         0.0600 
    194 H194       -4.9971  -22.3880  -46.4413 H         1 UNK         0.0600 
    195 H195       -2.1072  -24.9647  -45.1683 H         1 UNK         0.3000 
    196 H196       -4.3042  -26.8804  -45.0983 H         1 UNK         0.0600 
    197 H197       -2.9318  -26.3232  -43.0767 H         1 UNK         0.0600 
    198 H198       -1.5036  -26.9985  -43.8609 H         1 UNK         0.0600 
    199 H199       -2.8643  -28.0367  -43.4601 H         1 UNK         0.0600 
    200 H200       -1.4673  -26.4522  -47.0702 H         1 UNK         0.3000 
    201 H201       -1.4444  -29.3176  -47.9358 H         1 UNK         0.0600 
    202 H202        0.6983  -28.5163  -46.9844 H         1 UNK         0.0600 
    203 H203        0.7236  -27.1592  -48.1082 H         1 UNK         0.0600 
    204 H204        0.8605  -28.8075  -48.7096 H         1 UNK         0.0600 
    205 H205       -1.3317  -25.9029  -49.1120 H         1 UNK         0.3000 
    206 H206       -1.9335  -26.8348  -51.8900 H         1 UNK         0.0600 
    207 H207       -0.5749  -24.3002  -50.8330 H         1 UNK         0.0600 
    208 H208        0.2200  -25.6523  -51.6279 H         1 UNK         0.0600 
    209 H209       -0.9063  -24.6476  -52.5273 H         1 UNK         0.0600 
    210 H210       -3.9079  -26.4047  -52.6563 H         1 UNK         0.3000 
    211 H211       -5.8955  -24.8660  -51.3014 H         1 UNK         0.0600 
    212 H212       -5.7760  -25.8787  -54.1949 H         1 UNK         0.0600 
    213 H213       -7.2169  -25.2816  -53.3805 H         1 UNK         0.0600 
    214 H214       -6.4445  -26.7545  -52.8168 H         1 UNK         0.0600 
    215 H215       -3.4679  -24.0122  -53.7021 H         1 UNK         0.3000 
    216 H216       -4.5191  -21.4983  -54.5513 H         1 UNK         0.0600 
    217 H217       -2.1631  -21.0740  -55.2762 H         1 UNK         0.0600 
    218 H218       -2.7053  -22.6690  -55.7727 H         1 UNK         0.0600 
    219 H219       -1.6206  -22.4956  -54.3928 H         1 UNK         0.0600 
    220 H220       -2.4267  -22.4320  -51.7913 H         1 UNK         0.3000 
    221 H221       -1.9457  -19.7440  -50.8788 H         1 UNK         0.0600 
    222 H222       -1.5865  -22.4929  -49.6062 H         1 UNK         0.0600 
    223 H223       -0.3481  -21.4327  -50.2745 H         1 UNK         0.0600 
    224 H224       -1.1723  -21.0006  -48.7823 H         1 UNK         0.0600 
    225 H225       -4.4500  -22.1623  -50.2018 H         1 UNK         0.3000 
    226 H226       -5.7531  -20.7372  -48.0740 H         1 UNK         0.0600 
    227 H227       -6.0871  -23.1857  -48.5543 H         1 UNK         0.0600 
    228 H228       -7.6053  -22.3022  -48.4987 H         1 UNK         0.0600 
    229 H229       -6.9225  -22.7698  -50.0478 H         1 UNK         0.0600 
    230 H230       -5.7812  -20.3916  -51.5610 H         1 UNK         0.3000 
    231 H231       -7.9671  -18.4011  -51.5636 H         1 UNK         0.0600 
    232 H232       -7.7014  -18.5187  -54.0094 H         1 UNK         0.0600 
    233 H233       -7.8445  -20.1453  -53.3643 H         1 UNK         0.0600 
    234 H234       -6.2693  -19.5268  -53.8520 H         1 UNK         0.0600 
    235 H235       -5.0591  -18.1574  -50.3536 H         1 UNK         0.3000 
    236 H236       -3.5904  -16.6007  -49.9112 H         1 UNK         0.0600 
    237 H237       -5.4825  -14.5697  -51.2014 H         1 UNK         0.0600 
    238 H238       -5.6148  -15.1643  -49.5472 H         1 UNK         0.0600 
    239 H239       -4.2119  -14.2293  -50.0366 H         1 UNK         0.0600 
    240 H240       -3.3979  -18.0279  -52.4894 H         1 UNK         0.3000 
    241 H241       -1.9555  -18.2813  -54.0896 H         1 UNK         0.0600 
    242 H242       -3.9536  -15.5994  -56.0368 H         1 UNK         0.3800 
    243 H243       -4.3277  -16.2462  -54.4579 H         1 UNK         0.3800 
    244 H244       -0.3707  -15.8432  -53.1709 H         1 UNK         0.0800 
    245 H245        0.1950  -17.1285  -54.2037 H         1 UNK         0.0800 
    246 H246        1.5293  -19.3066  -53.1285 H         1 UNK         0.0800 
    247 H247        2.2478  -17.7221  -52.9171 H         1 UNK         0.0800 
@<TRIPOS>BOND
     1    1    2 1    
     2    1  127 1    
     3    1  128 1    
     4    1  129 1    
     5    2    3 2    
     6    2    4 am   BACKBONE|DICT|INTERRES
     7    4    5 1    
     8    4  130 1    
     9    5    6 1    
    10    5   65 1    
    11    5  131 1    
    12    6    7 1    
    13    6  132 1    
    14    6  133 1    
    15    7    8 1    
    16    8    9 1    
    17    8  134 1    
    18    8  135 1    
    19    9   10 ar   
    20    9   14 ar   
    21   10   11 ar   
    22   10  136 1    
    23   11   12 ar   
    24   11  126 1    
    25   12   13 ar   
    26   12  137 1    
    27   13   14 ar   
    28   13   15 1    
    29   14  138 1    
    30   15   16 1    
    31   15  139 1    
    32   15  140 1    
    33   16   17 1    
    34   17   18 1    
    35   17  141 1    
    36   17  142 1    
    37   18   19 1    
    38   18   67 1    
    39   18  143 1    
    40   19   20 am   BACKBONE|DICT|INTERRES
    41   19  144 1    
    42   20   21 2    
    43   20   22 1    
    44   22   23 1    
    45   22   24 1    
    46   22  145 1    
    47   23  146 1    
    48   23  147 1    
    49   23  148 1    
    50   24   25 am   BACKBONE|DICT|INTERRES
    51   24  149 1    
    52   25   26 2    
    53   25   27 1    
    54   27   28 1    
    55   27   29 1    
    56   27  150 1    
    57   28  151 1    
    58   28  152 1    
    59   28  153 1    
    60   29   30 am   BACKBONE|DICT|INTERRES
    61   29  154 1    
    62   30   31 2    
    63   30   32 1    
    64   32   33 1    
    65   32   34 1    
    66   32  155 1    
    67   33  156 1    
    68   33  157 1    
    69   33  158 1    
    70   34   35 am   BACKBONE|DICT|INTERRES
    71   34  159 1    
    72   35   36 2    
    73   35   37 1    
    74   37   38 1    
    75   37   39 1    
    76   37  160 1    
    77   38  161 1    
    78   38  162 1    
    79   38  163 1    
    80   39   40 am   BACKBONE|DICT|INTERRES
    81   39  164 1    
    82   40   41 2    
    83   40   42 1    
    84   42   43 1    
    85   42   44 1    
    86   42  165 1    
    87   43  166 1    
    88   43  167 1    
    89   43  168 1    
    90   44   45 am   BACKBONE|DICT|INTERRES
    91   44  169 1    
    92   45   46 2    
    93   45   47 1    
    94   47   48 1    
    95   47   49 1    
    96   47  170 1    
    97   48  171 1    
    98   48  172 1    
    99   48  173 1    
   100   49   50 am   BACKBONE|DICT|INTERRES
   101   49  174 1    
   102   50   51 2    
   103   50   52 1    
   104   52   53 1    
   105   52   54 1    
   106   52  175 1    
   107   53  176 1    
   108   53  177 1    
   109   53  178 1    
   110   54   55 am   BACKBONE|DICT|INTERRES
   111   54  179 1    
   112   55   56 2    
   113   55   57 1    
   114   57   58 1    
   115   57   59 1    
   116   57  180 1    
   117   58  181 1    
   118   58  182 1    
   119   58  183 1    
   120   59   60 am   BACKBONE|DICT|INTERRES
   121   59  184 1    
   122   60   61 2    
   123   60   62 1    
   124   62   63 1    
   125   62   64 1    
   126   62  185 1    
   127   63  186 1    
   128   63  187 1    
   129   63  188 1    
   130   64   65 am   BACKBONE|DICT|INTERRES
   131   64  189 1    
   132   65   66 2    
   133   67   68 2    
   134   67   69 am   BACKBONE|DICT|INTERRES
   135   69   70 1    
   136   69  190 1    
   137   70   71 1    
   138   70   72 1    
   139   70  191 1    
   140   71  192 1    
   141   71  193 1    
   142   71  194 1    
   143   72   73 2    
   144   72   74 am   BACKBONE|DICT|INTERRES
   145   74   75 1    
   146   74  195 1    
   147   75   76 1    
   148   75   77 1    
   149   75  196 1    
   150   76  197 1    
   151   76  198 1    
   152   76  199 1    
   153   77   78 2    
   154   77   79 am   BACKBONE|DICT|INTERRES
   155   79   80 1    
   156   79  200 1    
   157   80   81 1    
   158   80   82 1    
   159   80  201 1    
   160   81  202 1    
   161   81  203 1    
   162   81  204 1    
   163   82   83 2    
   164   82   84 am   BACKBONE|DICT|INTERRES
   165   84   85 1    
   166   84  205 1    
   167   85   86 1    
   168   85   87 1    
   169   85  206 1    
   170   86  207 1    
   171   86  208 1    
   172   86  209 1    
   173   87   88 2    
   174   87   89 am   BACKBONE|DICT|INTERRES
   175   89   90 1    
   176   89  210 1    
   177   90   91 1    
   178   90   92 1    
   179   90  211 1    
   180   91  212 1    
   181   91  213 1    
   182   91  214 1    
   183   92   93 2    
   184   92   94 am   BACKBONE|DICT|INTERRES
   185   94   95 1    
   186   94  215 1    
   187   95   96 1    
   188   95   97 1    
   189   95  216 1    
   190   96  217 1    
   191   96  218 1    
   192   96  219 1    
   193   97   98 2    
   194   97   99 am   BACKBONE|DICT|INTERRES
   195   99  100 1    
   196   99  220 1    
   197  100  101 1    
   198  100  102 1    
   199  100  221 1    
   200  101  222 1    
   201  101  223 1    
   202  101  224 1    
   203  102  103 2    
   204  102  104 am   BACKBONE|DICT|INTERRES
   205  104  105 1    
   206  104  225 1    
   207  105  106 1    
   208  105  107 1    
   209  105  226 1    
   210  106  227 1    
   211  106  228 1    
   212  106  229 1    
   213  107  108 2    
   214  107  109 am   BACKBONE|DICT|INTERRES
   215  109  110 1    
   216  109  230 1    
   217  110  111 1    
   218  110  112 1    
   219  110  231 1    
   220  111  232 1    
   221  111  233 1    
   222  111  234 1    
   223  112  113 2    
   224  112  114 am   BACKBONE|DICT|INTERRES
   225  114  115 1    
   226  114  235 1    
   227  115  116 1    
   228  115  117 1    
   229  115  236 1    
   230  116  237 1    
   231  116  238 1    
   232  116  239 1    
   233  117  118 2    
   234  117  119 am   BACKBONE|DICT|INTERRES
   235  119  120 1    
   236  119  240 1    
   237  120  121 1    
   238  120  124 1    
   239  120  241 1    
   240  121  122 am   BACKBONE|DICT|INTERRES
   241  121  123 2    
   242  122  242 1    
   243  122  243 1    
   244  124  125 1    
   245  124  244 1    
   246  124  245 1    
   247  125  126 1    
   248  126  246 1    
   249  126  247 1    
@<TRIPOS>SUBSTRUCTURE
     1 UNK         1 GROUP             0       ****    0 ROOT    
