@<TRIPOS>MOLECULE
3R540
247   249    1
SMALL
USER_CHARGES


@<TRIPOS>ATOM
      1 CA          7.0101  -15.6072  -46.3936 C.3       0 UNK        -0.1800 
      2 C           5.7400  -14.8483  -46.7499 C.2       0 UNK         0.5000 
      3 O           5.7356  -14.0883  -47.7162 O.2       0 UNK        -0.5000 
      4 N           4.6779  -15.0342  -45.9552 N.am      1 UNK        -0.5000 
      5 CA          3.3201  -14.4802  -46.0904 C.3       1 UNK         0.1400 
      6 C6          2.5767  -14.9591  -47.3767 C.3       23 UNK        -0.0398 
      7 S7          2.5020  -13.8053  -48.7981 S.3       23 UNK        -0.2404 
      8 C8          0.6973  -13.6418  -49.0378 C.3       23 UNK        -0.0205 
      9 C9          0.0078  -14.7944  -49.7757 C.ar      23 UNK        -0.0193 
     10 C10        -1.3279  -14.6234  -50.1584 C.ar      23 UNK        -0.1150 
     11 C11        -2.0116  -15.6275  -50.8499 C.ar      23 UNK        -0.0193 
     12 C12        -1.3437  -16.8066  -51.1798 C.ar      23 UNK        -0.1150 
     13 C13        -0.0260  -17.0167  -50.7703 C.ar      23 UNK        -0.0193 
     14 C14         0.6471  -16.0067  -50.0786 C.ar      23 UNK        -0.1150 
     15 C15         0.6522  -18.3517  -51.0478 C.3       23 UNK        -0.0205 
     16 S16         0.5622  -19.4698  -49.6090 S.3       23 UNK        -0.2404 
     17 C17        -1.2290  -19.4686  -49.2703 C.3       23 UNK        -0.0398 
     18 CA         -1.7479  -20.7644  -48.6185 C.3       11 UNK         0.1400 
     19 N          -1.1175  -21.0491  -47.3327 N.am      11 UNK        -0.5000 
     20 C          -1.0105  -22.2625  -46.7799 C.2       10 UNK         0.5000 
     21 O          -1.3976  -23.2949  -47.3333 O.2       10 UNK        -0.5000 
     22 CA         -0.3974  -22.3214  -45.3652 C.3       10 UNK         0.1400 
     23 CB          0.3323  -23.6505  -45.0863 C.3       10 UNK        -0.1800 
     24 N           0.4477  -21.1621  -45.0526 N.am      10 UNK        -0.5000 
     25 C           1.6230  -20.8218  -45.6073 C.2       9 UNK         0.5000 
     26 O           2.2149  -21.5064  -46.4395 O.2       9 UNK        -0.5000 
     27 CA          2.2423  -19.4759  -45.1760 C.3       9 UNK         0.1400 
     28 CB          2.1372  -18.4456  -46.3091 C.3       9 UNK        -0.1800 
     29 N           1.6235  -18.9077  -43.9787 N.am      9 UNK        -0.5000 
     30 C           1.8146  -19.3580  -42.7317 C.2       8 UNK         0.5000 
     31 O           2.5955  -20.2635  -42.4388 O.2       8 UNK        -0.5000 
     32 CA          0.9579  -18.7023  -41.6357 C.3       8 UNK         0.1400 
     33 CB          1.6814  -17.4816  -41.0572 C.3       8 UNK        -0.1800 
     34 N          -0.3612  -18.2964  -42.1287 N.am      8 UNK        -0.5000 
     35 C          -1.3403  -19.1548  -42.4484 C.2       7 UNK         0.5000 
     36 O          -1.2339  -20.3775  -42.3577 O.2       7 UNK        -0.5000 
     37 CA         -2.6377  -18.5520  -43.0107 C.3       7 UNK         0.1400 
     38 CB         -3.5291  -18.0145  -41.8818 C.3       7 UNK        -0.1800 
     39 N          -2.3851  -17.4860  -43.9796 N.am      7 UNK        -0.5000 
     40 C          -1.8633  -17.6695  -45.1997 C.2       6 UNK         0.5000 
     41 O          -1.6065  -18.7783  -45.6706 O.2       6 UNK        -0.5000 
     42 CA         -1.5872  -16.4120  -46.0454 C.3       6 UNK         0.1400 
     43 CB         -2.7252  -16.1927  -47.0520 C.3       6 UNK        -0.1800 
     44 N          -1.4195  -15.1857  -45.2624 N.am      6 UNK        -0.5000 
     45 C          -0.4494  -14.9478  -44.3703 C.2       5 UNK         0.5000 
     46 O           0.4306  -15.7652  -44.0851 O.2       5 UNK        -0.5000 
     47 CA         -0.5051  -13.5574  -43.7094 C.3       5 UNK         0.1400 
     48 CB         -1.7857  -13.3652  -42.8686 C.3       5 UNK        -0.1800 
     49 N           0.7036  -13.2279  -42.9514 N.am      5 UNK        -0.5000 
     50 C           1.0965  -13.6682  -41.7476 C.2       4 UNK         0.5000 
     51 O           0.4333  -14.4176  -41.0307 O.2       4 UNK        -0.5000 
     52 CA          2.4686  -13.1705  -41.2461 C.3       4 UNK         0.1400 
     53 CB          3.5594  -14.2162  -41.5240 C.3       4 UNK        -0.1800 
     54 N           2.8863  -11.9010  -41.8434 N.am      4 UNK        -0.5000 
     55 C           2.3480  -10.7003  -41.5992 C.2       3 UNK         0.5000 
     56 O           1.4234  -10.5217  -40.8057 O.2       3 UNK        -0.5000 
     57 CA          2.9171   -9.4924  -42.3772 C.3       3 UNK         0.1400 
     58 CB          4.0553   -8.8128  -41.5919 C.3       3 UNK        -0.1800 
     59 N           3.3164   -9.7817  -43.7649 N.am      3 UNK        -0.5000 
     60 C           4.3139  -10.5583  -44.2096 C.2       2 UNK         0.5000 
     61 O           5.1093  -11.1516  -43.4777 O.2       2 UNK        -0.5000 
     62 CA          4.3902  -10.7705  -45.7319 C.3       2 UNK         0.1400 
     63 CB          5.7114  -10.2309  -46.3001 C.3       2 UNK        -0.1800 
     64 N           4.2696  -12.1899  -46.0613 N.am      2 UNK        -0.5000 
     65 C           3.2089  -12.9637  -45.7981 C.2       1 UNK         0.5000 
     66 O           2.1680  -12.5262  -45.3075 O.2       1 UNK        -0.5000 
     67 C          -3.2728  -20.6795  -48.4473 C.2       11 UNK         0.5000 
     68 O          -4.0000  -21.2273  -49.2723 O.2       11 UNK        -0.5000 
     69 N          -3.7360  -20.0483  -47.3563 N.am      12 UNK        -0.5000 
     70 CA         -5.1607  -19.9563  -47.0091 C.3       12 UNK         0.1400 
     71 CB         -5.3661  -18.8893  -45.9256 C.3       12 UNK        -0.1800 
     72 C          -5.7484  -21.3093  -46.5609 C.2       12 UNK         0.5000 
     73 O          -6.9492  -21.5341  -46.7084 O.2       12 UNK        -0.5000 
     74 N          -4.8756  -22.2015  -46.0709 N.am      13 UNK        -0.5000 
     75 CA         -5.1636  -23.6117  -45.8001 C.3       13 UNK         0.1400 
     76 CB         -4.0929  -24.1510  -44.8368 C.3       13 UNK        -0.1800 
     77 C          -5.2163  -24.4704  -47.0839 C.2       13 UNK         0.5000 
     78 O          -5.5726  -25.6457  -47.0052 O.2       13 UNK        -0.5000 
     79 N          -4.8379  -23.8786  -48.2284 N.am      14 UNK        -0.5000 
     80 CA         -4.7795  -24.4383  -49.5813 C.3       14 UNK         0.1400 
     81 CB         -6.1525  -24.9815  -50.0206 C.3       14 UNK        -0.1800 
     82 C          -3.6436  -25.4568  -49.8023 C.2       14 UNK         0.5000 
     83 O          -3.5379  -26.0010  -50.9011 O.2       14 UNK        -0.5000 
     84 N          -2.7971  -25.6814  -48.7895 N.am      15 UNK        -0.5000 
     85 CA         -1.6967  -26.6411  -48.8213 C.3       15 UNK         0.1400 
     86 CB         -1.2436  -26.9480  -47.3851 C.3       15 UNK        -0.1800 
     87 C          -0.5297  -26.1336  -49.6804 C.2       15 UNK         0.5000 
     88 O          -0.1361  -26.8034  -50.6358 O.2       15 UNK        -0.5000 
     89 N          -0.0263  -24.9356  -49.3532 N.am      16 UNK        -0.5000 
     90 CA          1.0806  -24.2923  -50.0686 C.3       16 UNK         0.1400 
     91 CB          1.6916  -23.2016  -49.1814 C.3       16 UNK        -0.1800 
     92 C           0.6528  -23.7084  -51.4273 C.2       16 UNK         0.5000 
     93 O           1.4924  -23.5408  -52.3116 O.2       16 UNK        -0.5000 
     94 N          -0.6494  -23.4330  -51.5716 N.am      17 UNK        -0.5000 
     95 CA         -1.2752  -22.9367  -52.7961 C.3       17 UNK         0.1400 
     96 CB         -2.4776  -22.0691  -52.4048 C.3       17 UNK        -0.1800 
     97 C          -1.6969  -24.0632  -53.7634 C.2       17 UNK         0.5000 
     98 O          -2.2401  -23.7586  -54.8247 O.2       17 UNK        -0.5000 
     99 N          -1.4601  -25.3310  -53.3890 N.am      18 UNK        -0.5000 
    100 CA        -1.7176  -26.5478  -54.1680 C.3       18 UNK         0.1400 
    101 CB        -0.7461  -26.6343  -55.3635 C.3       18 UNK        -0.1800 
    102 C         -3.1977  -26.6976  -54.5796 C.2       18 UNK         0.5000 
    103 O         -3.5054  -26.8621  -55.7611 O.2       18 UNK        -0.5000 
    104 N         -4.0842  -26.6068  -53.5796 N.am      19 UNK        -0.5000 
    105 CA        -5.5460  -26.7352  -53.6297 C.3       19 UNK         0.1400 
    106 CB        -5.9816  -28.0614  -54.2863 C.3       19 UNK        -0.1800 
    107 C         -6.2919  -25.5264  -54.2332 C.2       19 UNK         0.5000 
    108 O         -7.5183  -25.4801  -54.1282 O.2       19 UNK        -0.5000 
    109 N         -5.5759  -24.5631  -54.8306 N.am      20 UNK        -0.5000 
    110 CA        -6.1648  -23.3706  -55.4479 C.3       20 UNK         0.1400 
    111 CB        -5.1675  -22.7809  -56.4564 C.3       20 UNK        -0.1800 
    112 C         -6.5834  -22.2986  -54.4231 C.2       20 UNK         0.5000 
    113 O         -7.5147  -21.5376  -54.6920 O.2       20 UNK        -0.5000 
    114 N         -5.8807  -22.2552  -53.2806 N.am      21 UNK        -0.5000 
    115 CA        -5.9828  -21.2471  -52.2176 C.3       21 UNK         0.1400 
    116 CB        -7.3326  -21.3711  -51.4770 C.3       21 UNK        -0.1800 
    117 C         -5.6752  -19.8192  -52.7304 C.2       21 UNK         0.5000 
    118 O         -4.9169  -19.6669  -53.6911 O.2       21 UNK        -0.5000 
    119 N         -6.2569  -18.8007  -52.0866 N.am      22 UNK        -0.5000 
    120 CA        -6.1928  -17.3910  -52.5157 C.3       22 UNK         0.1400 
    121 C         -7.3390  -16.9844  -53.4915 C.2       22 UNK         0.5000 
    122 N         -8.2025  -17.8925  -53.9312 N.am      22 UNK        -0.7600 
    123 O         -7.4413  -15.8218  -53.8736 O.2       22 UNK        -0.5000 
    124 C124       -6.0954  -16.4220  -51.3067 C.3       23 UNK        -0.0398 
    125 S125       -4.5454  -16.6407  -50.3702 S.3       23 UNK        -0.2404 
    126 C126       -3.4696  -15.4556  -51.2458 C.3       23 UNK        -0.0205 
    127 H127        6.8754  -16.2351  -45.5125 H         1 UNK         0.0600 
    128 H128        7.3093  -16.2469  -47.2239 H         1 UNK         0.0600 
    129 H129        7.8210  -14.9074  -46.1917 H         1 UNK         0.0600 
    130 H130        4.7949  -15.6433  -45.1576 H         1 UNK         0.3000 
    131 H131        2.7937  -14.9464  -45.2556 H         1 UNK         0.0600 
    132 H132        1.5543  -15.2213  -47.1014 H         1 UNK         0.0800 
    133 H133        3.0125  -15.8913  -47.7371 H         1 UNK         0.0800 
    134 H134        0.5281  -12.7249  -49.6043 H         1 UNK         0.0800 
    135 H135        0.2157  -13.4932  -48.0701 H         1 UNK         0.0800 
    136 H136       -1.8390  -13.7027  -49.9133 H         1 UNK         0.1150 
    137 H137       -1.8710  -17.5784  -51.7227 H         1 UNK         0.1150 
    138 H138        1.6679  -16.1867  -49.7788 H         1 UNK         0.1150 
    139 H139        0.1965  -18.8397  -51.9108 H         1 UNK         0.0800 
    140 H140        1.6992  -18.1881  -51.3066 H         1 UNK         0.0800 
    141 H141       -1.7557  -19.3172  -50.2127 H         1 UNK         0.0800 
    142 H142       -1.4469  -18.6010  -48.6467 H         1 UNK         0.0800 
    143 H143       -1.5362  -21.5901  -49.3012 H         1 UNK         0.0600 
    144 H144       -0.8340  -20.2453  -46.7834 H         1 UNK         0.3000 
    145 H145       -1.2396  -22.2632  -44.6745 H         1 UNK         0.0600 
    146 H146        0.7952  -23.6469  -44.0996 H         1 UNK         0.0600 
    147 H147       -0.3646  -24.4883  -45.1119 H         1 UNK         0.0600 
    148 H148        1.1104  -23.8509  -45.8231 H         1 UNK         0.0600 
    149 H149        0.0584  -20.5245  -44.3713 H         1 UNK         0.3000 
    150 H150        3.3002  -19.6513  -44.9702 H         1 UNK         0.0600 
    151 H151        2.6553  -18.7919  -47.2044 H         1 UNK         0.0600 
    152 H152        2.5911  -17.5012  -46.0135 H         1 UNK         0.0600 
    153 H153        1.1006  -18.2529  -46.5855 H         1 UNK         0.0600 
    154 H154        0.9928  -18.1285  -44.1140 H         1 UNK         0.3000 
    155 H155        0.8196  -19.4316  -40.8347 H         1 UNK         0.0600 
    156 H156        1.8349  -16.7195  -41.8214 H         1 UNK         0.0600 
    157 H157        2.6602  -17.7549  -40.6611 H         1 UNK         0.0600 
    158 H158        1.1130  -17.0331  -40.2423 H         1 UNK         0.0600 
    159 H159       -0.5041  -17.3063  -42.2731 H         1 UNK         0.3000 
    160 H160       -3.1740  -19.3584  -43.5128 H         1 UNK         0.0600 
    161 H161       -4.4864  -17.6656  -42.2696 H         1 UNK         0.0600 
    162 H162       -3.0577  -17.1844  -41.3541 H         1 UNK         0.0600 
    163 H163       -3.7413  -18.7929  -41.1476 H         1 UNK         0.0600 
    164 H164       -2.5845  -16.5428  -43.6823 H         1 UNK         0.3000 
    165 H165       -0.6647  -16.5867  -46.6021 H         1 UNK         0.0600 
    166 H166       -2.9018  -17.0802  -47.6594 H         1 UNK         0.0600 
    167 H167       -3.6626  -15.9467  -46.5524 H         1 UNK         0.0600 
    168 H168       -2.4934  -15.3770  -47.7351 H         1 UNK         0.0600 
    169 H169       -2.0986  -14.4593  -45.4384 H         1 UNK         0.3000 
    170 H170       -0.5338  -12.8302  -44.5222 H         1 UNK         0.0600 
    171 H171       -2.6763  -13.3781  -43.4973 H         1 UNK         0.0600 
    172 H172       -1.9081  -14.1506  -42.1223 H         1 UNK         0.0600 
    173 H173       -1.7756  -12.4071  -42.3486 H         1 UNK         0.0600 
    174 H174        1.3713  -12.6777  -43.4812 H         1 UNK         0.3000 
    175 H175        2.3965  -13.0273  -40.1661 H         1 UNK         0.0600 
    176 H176        4.5403  -13.8586  -41.2100 H         1 UNK         0.0600 
    177 H177        3.3649  -15.1360  -40.9735 H         1 UNK         0.0600 
    178 H178        3.6170  -14.4669  -42.5841 H         1 UNK         0.0600 
    179 H179        3.6802  -11.9274  -42.4761 H         1 UNK         0.3000 
    180 H180        2.1032   -8.7700  -42.4557 H         1 UNK         0.0600 
    181 H181        4.9001   -9.4829  -41.4315 H         1 UNK         0.0600 
    182 H182        3.7084   -8.4900  -40.6095 H         1 UNK         0.0600 
    183 H183        4.4215   -7.9286  -42.1135 H         1 UNK         0.0600 
    184 H184        2.6975   -9.3886  -44.4607 H         1 UNK         0.3000 
    185 H185        3.5657  -10.2410  -46.2137 H         1 UNK         0.0600 
    186 H186        6.5733  -10.7493  -45.8777 H         1 UNK         0.0600 
    187 H187        5.7503  -10.3454  -47.3836 H         1 UNK         0.0600 
    188 H188        5.8257   -9.1687  -46.0803 H         1 UNK         0.0600 
    189 H189        5.0644  -12.6301  -46.5105 H         1 UNK         0.3000 
    190 H190       -3.0718  -19.6313  -46.7124 H         1 UNK         0.3000 
    191 H191       -5.7069  -19.6402  -47.9007 H         1 UNK         0.0600 
    192 H192       -4.9954  -17.9186  -46.2508 H         1 UNK         0.0600 
    193 H193       -4.8616  -19.1538  -44.9985 H         1 UNK         0.0600 
    194 H194       -6.4254  -18.7683  -45.6958 H         1 UNK         0.0600 
    195 H195       -3.9137  -21.9147  -45.9780 H         1 UNK         0.3000 
    196 H196       -6.1376  -23.6853  -45.3121 H         1 UNK         0.0600 
    197 H197       -4.3117  -25.1793  -44.5464 H         1 UNK         0.0600 
    198 H198       -4.0492  -23.5600  -43.9217 H         1 UNK         0.0600 
    199 H199       -3.1012  -24.1454  -45.2894 H         1 UNK         0.0600 
    200 H200       -4.5668  -22.9041  -48.1831 H         1 UNK         0.3000 
    201 H201       -4.5527  -23.5960  -50.2319 H         1 UNK         0.0600 
    202 H202       -6.9573  -24.3042  -49.7356 H         1 UNK         0.0600 
    203 H203       -6.3638  -25.9570  -49.5814 H         1 UNK         0.0600 
    204 H204       -6.1963  -25.0885  -51.1030 H         1 UNK         0.0600 
    205 H205       -2.9044  -25.1396  -47.9439 H         1 UNK         0.3000 
    206 H206       -2.0609  -27.5705  -49.2647 H         1 UNK         0.0600 
    207 H207       -2.0574  -27.3776  -46.8006 H         1 UNK         0.0600 
    208 H208       -0.4238  -27.6672  -47.3795 H         1 UNK         0.0600 
    209 H209       -0.8990  -26.0528  -46.8677 H         1 UNK         0.0600 
    210 H210       -0.4349  -24.4256  -48.5743 H         1 UNK         0.3000 
    211 H211        1.8517  -25.0415  -50.2603 H         1 UNK         0.0600 
    212 H212        0.9745  -22.4114  -48.9630 H         1 UNK         0.0600 
    213 H213        2.5503  -22.7355  -49.6660 H         1 UNK         0.0600 
    214 H214        2.0375  -23.6127  -48.2333 H         1 UNK         0.0600 
    215 H215       -1.2592  -23.6270  -50.7921 H         1 UNK         0.3000 
    216 H216       -0.5658  -22.3031  -53.3325 H         1 UNK         0.0600 
    217 H217       -2.9629  -21.6495  -53.2867 H         1 UNK         0.0600 
    218 H218       -2.1751  -21.2311  -51.7778 H         1 UNK         0.0600 
    219 H219       -3.2180  -22.6499  -51.8586 H         1 UNK         0.0600 
    220 H220       -1.0398  -25.4837  -52.4824 H         1 UNK         0.3000 
    221 H221       -1.4983  -27.3870  -53.5061 H         1 UNK         0.0600 
    222 H222       -0.9171  -25.8346  -56.0850 H         1 UNK         0.0600 
    223 H223        0.2906  -26.5707  -55.0329 H         1 UNK         0.0600 
    224 H224       -0.8603  -27.5816  -55.8917 H         1 UNK         0.0600 
    225 H225       -3.7213  -26.4234  -52.6441 H         1 UNK         0.3000 
    226 H226       -5.8591  -26.7899  -52.5874 H         1 UNK         0.0600 
    227 H227       -5.4641  -28.9117  -53.8422 H         1 UNK         0.0600 
    228 H228       -5.7885  -28.0706  -55.3591 H         1 UNK         0.0600 
    229 H229       -7.0510  -28.2279  -54.1516 H         1 UNK         0.0600 
    230 H230       -4.5734  -24.6747  -54.9084 H         1 UNK         0.3000 
    231 H231       -7.0592  -23.6699  -55.9987 H         1 UNK         0.0600 
    232 H232       -4.8692  -23.5212  -57.1990 H         1 UNK         0.0600 
    233 H233       -4.2658  -22.4152  -55.9642 H         1 UNK         0.0600 
    234 H234       -5.6087  -21.9400  -56.9930 H         1 UNK         0.0600 
    235 H235       -5.1256  -22.9167  -53.1890 H         1 UNK         0.3000 
    236 H236       -5.1994  -21.4832  -51.5016 H         1 UNK         0.0600 
    237 H237       -7.3290  -20.8016  -50.5470 H         1 UNK         0.0600 
    238 H238       -8.1661  -21.0171  -52.0845 H         1 UNK         0.0600 
    239 H239       -7.5375  -22.4075  -51.2103 H         1 UNK         0.0600 
    240 H240       -6.8627  -18.9981  -51.3041 H         1 UNK         0.3000 
    241 H241       -5.2823  -17.2498  -53.1005 H         1 UNK         0.0600 
    242 H242       -8.1111  -18.8624  -53.6729 H         1 UNK         0.3800 
    243 H243       -8.9326  -17.6121  -54.5673 H         1 UNK         0.3800 
    244 H244       -6.1544  -15.3802  -51.6268 H         1 UNK         0.0800 
    245 H245       -6.9364  -16.5751  -50.6290 H         1 UNK         0.0800 
    246 H246       -3.8113  -14.4403  -51.0392 H         1 UNK         0.0800 
    247 H247       -3.5602  -15.6026  -52.3229 H         1 UNK         0.0800 
@<TRIPOS>BOND
     1    1    2 1    
     2    1  127 1    
     3    1  128 1    
     4    1  129 1    
     5    2    3 2    
     6    2    4 am   BACKBONE|DICT|INTERRES
     7    4    5 1    
     8    4  130 1    
     9    5    6 1    
    10    5   65 1    
    11    5  131 1    
    12    6    7 1    
    13    6  132 1    
    14    6  133 1    
    15    7    8 1    
    16    8    9 1    
    17    8  134 1    
    18    8  135 1    
    19    9   10 ar   
    20    9   14 ar   
    21   10   11 ar   
    22   10  136 1    
    23   11   12 ar   
    24   11  126 1    
    25   12   13 ar   
    26   12  137 1    
    27   13   14 ar   
    28   13   15 1    
    29   14  138 1    
    30   15   16 1    
    31   15  139 1    
    32   15  140 1    
    33   16   17 1    
    34   17   18 1    
    35   17  141 1    
    36   17  142 1    
    37   18   19 1    
    38   18   67 1    
    39   18  143 1    
    40   19   20 am   BACKBONE|DICT|INTERRES
    41   19  144 1    
    42   20   21 2    
    43   20   22 1    
    44   22   23 1    
    45   22   24 1    
    46   22  145 1    
    47   23  146 1    
    48   23  147 1    
    49   23  148 1    
    50   24   25 am   BACKBONE|DICT|INTERRES
    51   24  149 1    
    52   25   26 2    
    53   25   27 1    
    54   27   28 1    
    55   27   29 1    
    56   27  150 1    
    57   28  151 1    
    58   28  152 1    
    59   28  153 1    
    60   29   30 am   BACKBONE|DICT|INTERRES
    61   29  154 1    
    62   30   31 2    
    63   30   32 1    
    64   32   33 1    
    65   32   34 1    
    66   32  155 1    
    67   33  156 1    
    68   33  157 1    
    69   33  158 1    
    70   34   35 am   BACKBONE|DICT|INTERRES
    71   34  159 1    
    72   35   36 2    
    73   35   37 1    
    74   37   38 1    
    75   37   39 1    
    76   37  160 1    
    77   38  161 1    
    78   38  162 1    
    79   38  163 1    
    80   39   40 am   BACKBONE|DICT|INTERRES
    81   39  164 1    
    82   40   41 2    
    83   40   42 1    
    84   42   43 1    
    85   42   44 1    
    86   42  165 1    
    87   43  166 1    
    88   43  167 1    
    89   43  168 1    
    90   44   45 am   BACKBONE|DICT|INTERRES
    91   44  169 1    
    92   45   46 2    
    93   45   47 1    
    94   47   48 1    
    95   47   49 1    
    96   47  170 1    
    97   48  171 1    
    98   48  172 1    
    99   48  173 1    
   100   49   50 am   BACKBONE|DICT|INTERRES
   101   49  174 1    
   102   50   51 2    
   103   50   52 1    
   104   52   53 1    
   105   52   54 1    
   106   52  175 1    
   107   53  176 1    
   108   53  177 1    
   109   53  178 1    
   110   54   55 am   BACKBONE|DICT|INTERRES
   111   54  179 1    
   112   55   56 2    
   113   55   57 1    
   114   57   58 1    
   115   57   59 1    
   116   57  180 1    
   117   58  181 1    
   118   58  182 1    
   119   58  183 1    
   120   59   60 am   BACKBONE|DICT|INTERRES
   121   59  184 1    
   122   60   61 2    
   123   60   62 1    
   124   62   63 1    
   125   62   64 1    
   126   62  185 1    
   127   63  186 1    
   128   63  187 1    
   129   63  188 1    
   130   64   65 am   BACKBONE|DICT|INTERRES
   131   64  189 1    
   132   65   66 2    
   133   67   68 2    
   134   67   69 am   BACKBONE|DICT|INTERRES
   135   69   70 1    
   136   69  190 1    
   137   70   71 1    
   138   70   72 1    
   139   70  191 1    
   140   71  192 1    
   141   71  193 1    
   142   71  194 1    
   143   72   73 2    
   144   72   74 am   BACKBONE|DICT|INTERRES
   145   74   75 1    
   146   74  195 1    
   147   75   76 1    
   148   75   77 1    
   149   75  196 1    
   150   76  197 1    
   151   76  198 1    
   152   76  199 1    
   153   77   78 2    
   154   77   79 am   BACKBONE|DICT|INTERRES
   155   79   80 1    
   156   79  200 1    
   157   80   81 1    
   158   80   82 1    
   159   80  201 1    
   160   81  202 1    
   161   81  203 1    
   162   81  204 1    
   163   82   83 2    
   164   82   84 am   BACKBONE|DICT|INTERRES
   165   84   85 1    
   166   84  205 1    
   167   85   86 1    
   168   85   87 1    
   169   85  206 1    
   170   86  207 1    
   171   86  208 1    
   172   86  209 1    
   173   87   88 2    
   174   87   89 am   BACKBONE|DICT|INTERRES
   175   89   90 1    
   176   89  210 1    
   177   90   91 1    
   178   90   92 1    
   179   90  211 1    
   180   91  212 1    
   181   91  213 1    
   182   91  214 1    
   183   92   93 2    
   184   92   94 am   BACKBONE|DICT|INTERRES
   185   94   95 1    
   186   94  215 1    
   187   95   96 1    
   188   95   97 1    
   189   95  216 1    
   190   96  217 1    
   191   96  218 1    
   192   96  219 1    
   193   97   98 2    
   194   97   99 am   BACKBONE|DICT|INTERRES
   195   99  100 1    
   196   99  220 1    
   197  100  101 1    
   198  100  102 1    
   199  100  221 1    
   200  101  222 1    
   201  101  223 1    
   202  101  224 1    
   203  102  103 2    
   204  102  104 am   BACKBONE|DICT|INTERRES
   205  104  105 1    
   206  104  225 1    
   207  105  106 1    
   208  105  107 1    
   209  105  226 1    
   210  106  227 1    
   211  106  228 1    
   212  106  229 1    
   213  107  108 2    
   214  107  109 am   BACKBONE|DICT|INTERRES
   215  109  110 1    
   216  109  230 1    
   217  110  111 1    
   218  110  112 1    
   219  110  231 1    
   220  111  232 1    
   221  111  233 1    
   222  111  234 1    
   223  112  113 2    
   224  112  114 am   BACKBONE|DICT|INTERRES
   225  114  115 1    
   226  114  235 1    
   227  115  116 1    
   228  115  117 1    
   229  115  236 1    
   230  116  237 1    
   231  116  238 1    
   232  116  239 1    
   233  117  118 2    
   234  117  119 am   BACKBONE|DICT|INTERRES
   235  119  120 1    
   236  119  240 1    
   237  120  121 1    
   238  120  124 1    
   239  120  241 1    
   240  121  122 am   BACKBONE|DICT|INTERRES
   241  121  123 2    
   242  122  242 1    
   243  122  243 1    
   244  124  125 1    
   245  124  244 1    
   246  124  245 1    
   247  125  126 1    
   248  126  246 1    
   249  126  247 1    
@<TRIPOS>SUBSTRUCTURE
     1 UNK         1 GROUP             0       ****    0 ROOT    
