@<TRIPOS>MOLECULE
3R540
247   249    1
SMALL
USER_CHARGES


@<TRIPOS>ATOM
      1 CA         -5.5678  -16.5480  -45.8088 C.3       0 UNK        -0.1800 
      2 C          -5.6706  -15.1351  -46.3639 C.2       0 UNK         0.5000 
      3 O          -6.2451  -14.2607  -45.7154 O.2       0 UNK        -0.5000 
      4 N          -5.1185  -14.9096  -47.5635 N.am      1 UNK        -0.5000 
      5 CA         -5.1592  -13.6247  -48.2792 C.3       1 UNK         0.1400 
      6 C6         -4.8616  -13.7867  -49.7908 C.3       23 UNK        -0.0398 
      7 S7         -6.0579  -14.8962  -50.6114 S.3       23 UNK        -0.2404 
      8 C8         -5.1678  -15.3381  -52.1452 C.3       23 UNK        -0.0205 
      9 C9         -3.8647  -16.1111  -51.9425 C.ar      23 UNK        -0.0193 
     10 C10        -2.8495  -15.9931  -52.8980 C.ar      23 UNK        -0.1150 
     11 C11        -1.6457  -16.6888  -52.7520 C.ar      23 UNK        -0.0193 
     12 C12        -1.4517  -17.4960  -51.6295 C.ar      23 UNK        -0.1150 
     13 C13        -2.4639  -17.6451  -50.6803 C.ar      23 UNK        -0.0193 
     14 C14        -3.6690  -16.9592  -50.8454 C.ar      23 UNK        -0.1150 
     15 C15        -2.2729  -18.5754  -49.4974 C.3       23 UNK        -0.0205 
     16 S16        -1.2219  -17.8395  -48.2119 S.3       23 UNK        -0.2404 
     17 C17        -2.1665  -18.2685  -46.7145 C.3       23 UNK        -0.0398 
     18 CA         -2.2282  -19.7918  -46.4212 C.3       11 UNK         0.1400 
     19 N          -0.9027  -20.4234  -46.3179 N.am      11 UNK        -0.5000 
     20 C          -0.7016  -21.7450  -46.4268 C.2       10 UNK         0.5000 
     21 O          -1.6196  -22.5639  -46.3977 O.2       10 UNK        -0.5000 
     22 CA          0.7281  -22.2590  -46.6519 C.3       10 UNK         0.1400 
     23 CB          1.0219  -22.3083  -48.1636 C.3       10 UNK        -0.1800 
     24 N           1.7669  -21.4954  -45.9561 N.am      10 UNK        -0.5000 
     25 C           3.0114  -21.9590  -45.7613 C.2       9 UNK         0.5000 
     26 O           3.3866  -23.0794  -46.1110 O.2       9 UNK        -0.5000 
     27 CA          4.0159  -21.0309  -45.0544 C.3       9 UNK         0.1400 
     28 CB          4.5278  -19.9457  -46.0137 C.3       9 UNK        -0.1800 
     29 N           3.4666  -20.4125  -43.8512 N.am      9 UNK        -0.5000 
     30 C           3.1497  -21.0771  -42.7308 C.2       8 UNK         0.5000 
     31 O           3.3359  -22.2840  -42.5708 O.2       8 UNK        -0.5000 
     32 CA          2.5011  -20.2569  -41.6003 C.3       8 UNK         0.1400 
     33 CB          3.5716  -19.6493  -40.6807 C.3       8 UNK        -0.1800 
     34 N           1.6328  -19.1921  -42.1021 N.am      8 UNK        -0.5000 
     35 C           0.4916  -19.3999  -42.7713 C.2       7 UNK         0.5000 
     36 O           0.0330  -20.5120  -43.0313 O.2       7 UNK        -0.5000 
     37 CA         -0.2236  -18.1480  -43.2975 C.3       7 UNK         0.1400 
     38 CB         -0.9407  -17.3933  -42.1691 C.3       7 UNK        -0.1800 
     39 N           0.6888  -17.2500  -44.0059 N.am      7 UNK        -0.5000 
     40 C           1.3325  -17.5612  -45.1429 C.2       6 UNK         0.5000 
     41 O           1.1819  -18.6286  -45.7384 O.2       6 UNK        -0.5000 
     42 CA          2.3488  -16.5354  -45.6844 C.3       6 UNK         0.1400 
     43 CB          1.6471  -15.5363  -46.6159 C.3       6 UNK        -0.1800 
     44 N           3.0447  -15.7953  -44.6315 N.am      6 UNK        -0.5000 
     45 C           3.7514  -16.3366  -43.6286 C.2       5 UNK         0.5000 
     46 O           4.0056  -17.5380  -43.5476 O.2       5 UNK        -0.5000 
     47 CA          4.1947  -15.3920  -42.4911 C.3       5 UNK         0.1400 
     48 CB          5.6876  -15.0580  -42.6264 C.3       5 UNK        -0.1800 
     49 N           3.4315  -14.1392  -42.3925 N.am      5 UNK        -0.5000 
     50 C           2.1029  -14.0331  -42.2432 C.2       4 UNK         0.5000 
     51 O           1.3454  -15.0060  -42.1898 O.2       4 UNK        -0.5000 
     52 CA          1.5247  -12.6092  -42.1927 C.3       4 UNK         0.1400 
     53 CB          2.0723  -11.7126  -43.3228 C.3       4 UNK        -0.1800 
     54 N           0.0721  -12.6838  -42.3026 N.am      4 UNK        -0.5000 
     55 C          -0.7977  -11.7933  -41.8216 C.2       3 UNK         0.5000 
     56 O          -0.4707  -10.7886  -41.1866 O.2       3 UNK        -0.5000 
     57 CA         -2.2724  -12.0447  -42.1830 C.3       3 UNK         0.1400 
     58 CB         -3.2435  -11.1759  -41.3632 C.3       3 UNK        -0.1800 
     59 N          -2.4627  -11.7563  -43.6036 N.am      3 UNK        -0.5000 
     60 C          -2.3262  -12.6435  -44.5949 C.2       2 UNK         0.5000 
     61 O          -2.1021  -13.8443  -44.4220 O.2       2 UNK        -0.5000 
     62 CA         -2.4246  -12.0901  -46.0212 C.3       2 UNK         0.1400 
     63 CB         -1.0377  -12.0251  -46.6821 C.3       2 UNK        -0.1800 
     64 N          -3.2971  -12.9631  -46.7959 N.am      2 UNK        -0.5000 
     65 C          -4.2385  -12.5514  -47.6543 C.2       1 UNK         0.5000 
     66 O          -4.4085  -11.3693  -47.9575 O.2       1 UNK        -0.5000 
     67 C          -3.2049  -20.1035  -45.2641 C.2       11 UNK         0.5000 
     68 O          -4.3911  -19.8050  -45.4008 O.2       11 UNK        -0.5000 
     69 N          -2.7275  -20.7110  -44.1677 N.am      12 UNK        -0.5000 
     70 CA         -3.5760  -21.2417  -43.0979 C.3       12 UNK         0.1400 
     71 CB         -2.7263  -21.4943  -41.8434 C.3       12 UNK        -0.1800 
     72 C          -4.3324  -22.5252  -43.5018 C.2       12 UNK         0.5000 
     73 O          -5.3492  -22.8366  -42.8794 O.2       12 UNK        -0.5000 
     74 N          -3.8397  -23.2516  -44.5171 N.am      13 UNK        -0.5000 
     75 CA         -4.5044  -24.4260  -45.0809 C.3       13 UNK         0.1400 
     76 CB         -3.4925  -25.2407  -45.9025 C.3       13 UNK        -0.1800 
     77 C          -5.6907  -24.0091  -45.9659 C.2       13 UNK         0.5000 
     78 O          -5.6175  -22.9818  -46.6435 O.2       13 UNK        -0.5000 
     79 N          -6.7390  -24.8432  -45.9917 N.am      14 UNK        -0.5000 
     80 CA         -7.9715  -24.6249  -46.7603 C.3       14 UNK         0.1400 
     81 CB         -8.9919  -25.7110  -46.3864 C.3       14 UNK        -0.1800 
     82 C          -7.7667  -24.5811  -48.2889 C.2       14 UNK         0.5000 
     83 O          -8.5679  -23.9640  -48.9914 O.2       14 UNK        -0.5000 
     84 N          -6.6900  -25.2174  -48.7705 N.am      15 UNK        -0.5000 
     85 CA         -6.2373  -25.1738  -50.1613 C.3       15 UNK         0.1400 
     86 CB         -5.1750  -26.2644  -50.3623 C.3       15 UNK        -0.1800 
     87 C          -5.6873  -23.7950  -50.5810 C.2       15 UNK         0.5000 
     88 O          -5.7383  -23.4681  -51.7675 O.2       15 UNK        -0.5000 
     89 N          -5.1842  -23.0176  -49.6078 N.am      16 UNK        -0.5000 
     90 CA         -4.6653  -21.6531  -49.7231 C.3       16 UNK         0.1400 
     91 CB         -5.8414  -20.6539  -49.7771 C.3       16 UNK        -0.1800 
     92 C          -3.6528  -21.4925  -50.8758 C.2       16 UNK         0.5000 
     93 O          -2.5463  -22.0279  -50.7899 O.2       16 UNK        -0.5000 
     94 N          -4.0496  -20.7818  -51.9394 N.am      17 UNK        -0.5000 
     95 CA         -3.2543  -20.5269  -53.1406 C.3       17 UNK         0.1400 
     96 CB         -4.0503  -19.6112  -54.0812 C.3       17 UNK        -0.1800 
     97 C          -2.8024  -21.8022  -53.8783 C.2       17 UNK         0.5000 
     98 O          -1.7335  -21.7941  -54.4868 O.2       17 UNK        -0.5000 
     99 N          -3.5866  -22.8868  -53.7862 N.am      18 UNK        -0.5000 
    100 CA        -3.2420  -24.1858  -54.3677 C.3       18 UNK         0.1400 
    101 CB        -4.5029  -25.0556  -54.4794 C.3       18 UNK        -0.1800 
    102 C         -2.1322  -24.9172  -53.5871 C.2       18 UNK         0.5000 
    103 O         -1.4089  -25.7141  -54.1854 O.2       18 UNK        -0.5000 
    104 N         -1.9980  -24.6278  -52.2841 N.am      19 UNK        -0.5000 
    105 CA        -0.8984  -25.1163  -51.4506 C.3       19 UNK         0.1400 
    106 CB        -1.3417  -25.1883  -49.9800 C.3       19 UNK        -0.1800 
    107 C          0.3496  -24.2316  -51.6020 C.2       19 UNK         0.5000 
    108 O          1.4617  -24.7560  -51.6683 O.2       19 UNK        -0.5000 
    109 N          0.1419  -22.9088  -51.6564 N.am      20 UNK        -0.5000 
    110 CA         1.2032  -21.9096  -51.7809 C.3       20 UNK         0.1400 
    111 CB         0.6206  -20.5260  -51.4686 C.3       20 UNK        -0.1800 
    112 C          1.8747  -21.8845  -53.1648 C.2       20 UNK         0.5000 
    113 O          3.0489  -21.5268  -53.2548 O.2       20 UNK        -0.5000 
    114 N          1.1064  -22.1983  -54.2177 N.am      21 UNK        -0.5000 
    115 CA         1.4315  -22.1596  -55.6514 C.3       21 UNK         0.1400 
    116 CB         2.6456  -23.0471  -55.9863 C.3       21 UNK        -0.1800 
    117 C          1.5896  -20.7383  -56.2349 C.2       21 UNK         0.5000 
    118 O          1.3204  -20.5474  -57.4214 O.2       21 UNK        -0.5000 
    119 N          1.9918  -19.7716  -55.4002 N.am      22 UNK        -0.5000 
    120 CA         2.0982  -18.3289  -55.6847 C.3       22 UNK         0.1400 
    121 C          3.2520  -17.9359  -56.6580 C.2       22 UNK         0.5000 
    122 N          4.2128  -18.8094  -56.9334 N.am      22 UNK        -0.7600 
    123 O          3.3002  -16.8109  -57.1487 O.2       22 UNK        -0.5000 
    124 C124        0.7420  -17.6715  -56.0760 C.3       23 UNK        -0.0398 
    125 S125       -0.6143  -18.0423  -54.9096 S.3       23 UNK        -0.2404 
    126 C126       -0.5619  -16.5923  -53.8134 C.3       23 UNK        -0.0205 
    127 H127       -4.7075  -16.6321  -45.1447 H         1 UNK         0.0600 
    128 H128       -5.4667  -17.2835  -46.6069 H         1 UNK         0.0600 
    129 H129       -6.4631  -16.7983  -45.2396 H         1 UNK         0.0600 
    130 H130       -4.6705  -15.6669  -48.0573 H         1 UNK         0.3000 
    131 H131       -6.1761  -13.2358  -48.1903 H         1 UNK         0.0600 
    132 H132       -4.9063  -12.8217  -50.2991 H         1 UNK         0.0800 
    133 H133       -3.8483  -14.1639  -49.9374 H         1 UNK         0.0800 
    134 H134       -4.9739  -14.4202  -52.7025 H         1 UNK         0.0800 
    135 H135       -5.8296  -15.9426  -52.7664 H         1 UNK         0.0800 
    136 H136       -3.0004  -15.3658  -53.7655 H         1 UNK         0.1150 
    137 H137       -0.5187  -18.0241  -51.5055 H         1 UNK         0.1150 
    138 H138       -4.4546  -17.0910  -50.1163 H         1 UNK         0.1150 
    139 H139       -3.2458  -18.8428  -49.0854 H         1 UNK         0.0800 
    140 H140       -1.8150  -19.5058  -49.8291 H         1 UNK         0.0800 
    141 H141       -3.1696  -17.8620  -46.8410 H         1 UNK         0.0800 
    142 H142       -1.7316  -17.7181  -45.8830 H         1 UNK         0.0800 
    143 H143       -2.6999  -20.2544  -47.2890 H         1 UNK         0.0600 
    144 H144       -0.1094  -19.7867  -46.3182 H         1 UNK         0.3000 
    145 H145        0.7431  -23.2810  -46.2666 H         1 UNK         0.0600 
    146 H146        1.1922  -21.3081  -48.5612 H         1 UNK         0.0600 
    147 H147        1.9036  -22.9096  -48.3840 H         1 UNK         0.0600 
    148 H148        0.1906  -22.7475  -48.7165 H         1 UNK         0.0600 
    149 H149        1.5293  -20.5596  -45.6420 H         1 UNK         0.3000 
    150 H150        4.8730  -21.6359  -44.7512 H         1 UNK         0.0600 
    151 H151        5.0352  -20.3935  -46.8688 H         1 UNK         0.0600 
    152 H152        5.2404  -19.2838  -45.5212 H         1 UNK         0.0600 
    153 H153        3.7144  -19.3355  -46.4034 H         1 UNK         0.0600 
    154 H154        3.3558  -19.4040  -43.8619 H         1 UNK         0.3000 
    155 H155        1.8880  -20.9384  -41.0067 H         1 UNK         0.0600 
    156 H156        4.2134  -20.4267  -40.2642 H         1 UNK         0.0600 
    157 H157        4.2127  -18.9473  -41.2148 H         1 UNK         0.0600 
    158 H158        3.1180  -19.1196  -39.8428 H         1 UNK         0.0600 
    159 H159        1.9591  -18.2444  -41.9835 H         1 UNK         0.3000 
    160 H160       -0.9831  -18.4855  -43.9972 H         1 UNK         0.0600 
    161 H161       -1.4750  -16.5245  -42.5549 H         1 UNK         0.0600 
    162 H162       -0.2440  -17.0455  -41.4058 H         1 UNK         0.0600 
    163 H163       -1.6732  -18.0341  -41.6770 H         1 UNK         0.0600 
    164 H164        0.9004  -16.3707  -43.5439 H         1 UNK         0.3000 
    165 H165        3.0999  -17.0762  -46.2616 H         1 UNK         0.0600 
    166 H166        2.3571  -14.8322  -47.0500 H         1 UNK         0.0600 
    167 H167        1.1579  -16.0521  -47.4430 H         1 UNK         0.0600 
    168 H168        0.8831  -14.9634  -46.0887 H         1 UNK         0.0600 
    169 H169        2.8949  -14.7982  -44.6111 H         1 UNK         0.3000 
    170 H170        4.0497  -15.9350  -41.5550 H         1 UNK         0.0600 
    171 H171        6.2896  -15.9667  -42.6732 H         1 UNK         0.0600 
    172 H172        5.8901  -14.4831  -43.5309 H         1 UNK         0.0600 
    173 H173        6.0426  -14.4801  -41.7730 H         1 UNK         0.0600 
    174 H174        3.9766  -13.2903  -42.4369 H         1 UNK         0.3000 
    175 H175        1.7954  -12.1830  -41.2247 H         1 UNK         0.0600 
    176 H176        1.8749  -12.1419  -44.3060 H         1 UNK         0.0600 
    177 H177        1.6158  -10.7230  -43.2975 H         1 UNK         0.0600 
    178 H178        3.1487  -11.5636  -43.2344 H         1 UNK         0.0600 
    179 H179       -0.2760  -13.5105  -42.7738 H         1 UNK         0.3000 
    180 H180       -2.5010  -13.0922  -41.9738 H         1 UNK         0.0600 
    181 H181       -3.0846  -10.1110  -41.5382 H         1 UNK         0.0600 
    182 H182       -3.1204  -11.3564  -40.2947 H         1 UNK         0.0600 
    183 H183       -4.2798  -11.4039  -41.6134 H         1 UNK         0.0600 
    184 H184       -2.6109  -10.7847  -43.8367 H         1 UNK         0.3000 
    185 H185       -2.8415  -11.0816  -45.9750 H         1 UNK         0.0600 
    186 H186       -0.3568  -11.4001  -46.1028 H         1 UNK         0.0600 
    187 H187       -0.5857  -13.0140  -46.7670 H         1 UNK         0.0600 
    188 H188       -1.0996  -11.5994  -47.6837 H         1 UNK         0.0600 
    189 H189       -3.2492  -13.9435  -46.5530 H         1 UNK         0.3000 
    190 H190       -1.7341  -20.9023  -44.0957 H         1 UNK         0.3000 
    191 H191       -4.3255  -20.4883  -42.8466 H         1 UNK         0.0600 
    192 H192       -1.9314  -22.2160  -42.0354 H         1 UNK         0.0600 
    193 H193       -3.3363  -21.8866  -41.0287 H         1 UNK         0.0600 
    194 H194       -2.2669  -20.5730  -41.4860 H         1 UNK         0.0600 
    195 H195       -3.0344  -22.9067  -45.0303 H         1 UNK         0.3000 
    196 H196       -4.8680  -25.0496  -44.2614 H         1 UNK         0.0600 
    197 H197       -3.9333  -26.1765  -46.2479 H         1 UNK         0.0600 
    198 H198       -2.6138  -25.4948  -45.3095 H         1 UNK         0.0600 
    199 H199       -3.1543  -24.6957  -46.7849 H         1 UNK         0.0600 
    200 H200       -6.7142  -25.6753  -45.4196 H         1 UNK         0.3000 
    201 H201       -8.3789  -23.6565  -46.4623 H         1 UNK         0.0600 
    202 H202       -9.2176  -25.6912  -45.3200 H         1 UNK         0.0600 
    203 H203       -8.6272  -26.7084  -46.6354 H         1 UNK         0.0600 
    204 H204       -9.9329  -25.5636  -46.9182 H         1 UNK         0.0600 
    205 H205       -6.1041  -25.7160  -48.1178 H         1 UNK         0.3000 
    206 H206       -7.0870  -25.3972  -50.8098 H         1 UNK         0.0600 
    207 H207       -5.6055  -27.2581  -50.2376 H         1 UNK         0.0600 
    208 H208       -4.7397  -26.2232  -51.3608 H         1 UNK         0.0600 
    209 H209       -4.3625  -26.1622  -49.6440 H         1 UNK         0.0600 
    210 H210       -5.2260  -23.3646  -48.6567 H         1 UNK         0.3000 
    211 H211       -4.1104  -21.4607  -48.8044 H         1 UNK         0.0600 
    212 H212       -6.5022  -20.8423  -50.6240 H         1 UNK         0.0600 
    213 H213       -5.4901  -19.6237  -49.8460 H         1 UNK         0.0600 
    214 H214       -6.4447  -20.7242  -48.8715 H         1 UNK         0.0600 
    215 H215       -4.9868  -20.4074  -51.9383 H         1 UNK         0.3000 
    216 H216       -2.3552  -19.9927  -52.8320 H         1 UNK         0.0600 
    217 H217       -3.4771  -19.3826  -54.9805 H         1 UNK         0.0600 
    218 H218       -4.2854  -18.6618  -53.5999 H         1 UNK         0.0600 
    219 H219       -4.9871  -20.0726  -54.3957 H         1 UNK         0.0600 
    220 H220       -4.4319  -22.8465  -53.2251 H         1 UNK         0.3000 
    221 H221       -2.8686  -24.0164  -55.3801 H         1 UNK         0.0600 
    222 H222       -4.9259  -25.2859  -53.5030 H         1 UNK         0.0600 
    223 H223       -5.2734  -24.5591  -55.0692 H         1 UNK         0.0600 
    224 H224       -4.2790  -26.0040  -54.9694 H         1 UNK         0.0600 
    225 H225       -2.5938  -23.9186  -51.8769 H         1 UNK         0.3000 
    226 H226       -0.6273  -26.1273  -51.7625 H         1 UNK         0.0600 
    227 H227       -2.1080  -25.9486  -49.8430 H         1 UNK         0.0600 
    228 H228       -0.5064  -25.4585  -49.3326 H         1 UNK         0.0600 
    229 H229       -1.7386  -24.2392  -49.6197 H         1 UNK         0.0600 
    230 H230       -0.8035  -22.5608  -51.5302 H         1 UNK         0.3000 
    231 H231        1.9732  -22.1347  -51.0401 H         1 UNK         0.0600 
    232 H232        1.3993  -19.7623  -51.4720 H         1 UNK         0.0600 
    233 H233        0.1491  -20.5058  -50.4878 H         1 UNK         0.0600 
    234 H234       -0.1265  -20.2374  -52.2075 H         1 UNK         0.0600 
    235 H235        0.1208  -22.3581  -54.0340 H         1 UNK         0.3000 
    236 H236        0.5640  -22.5954  -56.1496 H         1 UNK         0.0600 
    237 H237        2.7829  -23.1223  -57.0656 H         1 UNK         0.0600 
    238 H238        2.5109  -24.0591  -55.6044 H         1 UNK         0.0600 
    239 H239        3.5717  -22.6504  -55.5704 H         1 UNK         0.0600 
    240 H240        2.2601  -20.0573  -54.4670 H         1 UNK         0.3000 
    241 H241        2.3936  -17.8839  -54.7342 H         1 UNK         0.0600 
    242 H242        4.1939  -19.7327  -56.5307 H         1 UNK         0.3800 
    243 H243        4.9620  -18.5464  -57.5546 H         1 UNK         0.3800 
    244 H244        0.4329  -18.0090  -57.0661 H         1 UNK         0.0800 
    245 H245        0.8484  -16.5883  -56.1525 H         1 UNK         0.0800 
    246 H246        0.4180  -16.5281  -53.3380 H         1 UNK         0.0800 
    247 H247       -0.6858  -15.6823  -54.4024 H         1 UNK         0.0800 
@<TRIPOS>BOND
     1    1    2 1    
     2    1  127 1    
     3    1  128 1    
     4    1  129 1    
     5    2    3 2    
     6    2    4 am   BACKBONE|DICT|INTERRES
     7    4    5 1    
     8    4  130 1    
     9    5    6 1    
    10    5   65 1    
    11    5  131 1    
    12    6    7 1    
    13    6  132 1    
    14    6  133 1    
    15    7    8 1    
    16    8    9 1    
    17    8  134 1    
    18    8  135 1    
    19    9   10 ar   
    20    9   14 ar   
    21   10   11 ar   
    22   10  136 1    
    23   11   12 ar   
    24   11  126 1    
    25   12   13 ar   
    26   12  137 1    
    27   13   14 ar   
    28   13   15 1    
    29   14  138 1    
    30   15   16 1    
    31   15  139 1    
    32   15  140 1    
    33   16   17 1    
    34   17   18 1    
    35   17  141 1    
    36   17  142 1    
    37   18   19 1    
    38   18   67 1    
    39   18  143 1    
    40   19   20 am   BACKBONE|DICT|INTERRES
    41   19  144 1    
    42   20   21 2    
    43   20   22 1    
    44   22   23 1    
    45   22   24 1    
    46   22  145 1    
    47   23  146 1    
    48   23  147 1    
    49   23  148 1    
    50   24   25 am   BACKBONE|DICT|INTERRES
    51   24  149 1    
    52   25   26 2    
    53   25   27 1    
    54   27   28 1    
    55   27   29 1    
    56   27  150 1    
    57   28  151 1    
    58   28  152 1    
    59   28  153 1    
    60   29   30 am   BACKBONE|DICT|INTERRES
    61   29  154 1    
    62   30   31 2    
    63   30   32 1    
    64   32   33 1    
    65   32   34 1    
    66   32  155 1    
    67   33  156 1    
    68   33  157 1    
    69   33  158 1    
    70   34   35 am   BACKBONE|DICT|INTERRES
    71   34  159 1    
    72   35   36 2    
    73   35   37 1    
    74   37   38 1    
    75   37   39 1    
    76   37  160 1    
    77   38  161 1    
    78   38  162 1    
    79   38  163 1    
    80   39   40 am   BACKBONE|DICT|INTERRES
    81   39  164 1    
    82   40   41 2    
    83   40   42 1    
    84   42   43 1    
    85   42   44 1    
    86   42  165 1    
    87   43  166 1    
    88   43  167 1    
    89   43  168 1    
    90   44   45 am   BACKBONE|DICT|INTERRES
    91   44  169 1    
    92   45   46 2    
    93   45   47 1    
    94   47   48 1    
    95   47   49 1    
    96   47  170 1    
    97   48  171 1    
    98   48  172 1    
    99   48  173 1    
   100   49   50 am   BACKBONE|DICT|INTERRES
   101   49  174 1    
   102   50   51 2    
   103   50   52 1    
   104   52   53 1    
   105   52   54 1    
   106   52  175 1    
   107   53  176 1    
   108   53  177 1    
   109   53  178 1    
   110   54   55 am   BACKBONE|DICT|INTERRES
   111   54  179 1    
   112   55   56 2    
   113   55   57 1    
   114   57   58 1    
   115   57   59 1    
   116   57  180 1    
   117   58  181 1    
   118   58  182 1    
   119   58  183 1    
   120   59   60 am   BACKBONE|DICT|INTERRES
   121   59  184 1    
   122   60   61 2    
   123   60   62 1    
   124   62   63 1    
   125   62   64 1    
   126   62  185 1    
   127   63  186 1    
   128   63  187 1    
   129   63  188 1    
   130   64   65 am   BACKBONE|DICT|INTERRES
   131   64  189 1    
   132   65   66 2    
   133   67   68 2    
   134   67   69 am   BACKBONE|DICT|INTERRES
   135   69   70 1    
   136   69  190 1    
   137   70   71 1    
   138   70   72 1    
   139   70  191 1    
   140   71  192 1    
   141   71  193 1    
   142   71  194 1    
   143   72   73 2    
   144   72   74 am   BACKBONE|DICT|INTERRES
   145   74   75 1    
   146   74  195 1    
   147   75   76 1    
   148   75   77 1    
   149   75  196 1    
   150   76  197 1    
   151   76  198 1    
   152   76  199 1    
   153   77   78 2    
   154   77   79 am   BACKBONE|DICT|INTERRES
   155   79   80 1    
   156   79  200 1    
   157   80   81 1    
   158   80   82 1    
   159   80  201 1    
   160   81  202 1    
   161   81  203 1    
   162   81  204 1    
   163   82   83 2    
   164   82   84 am   BACKBONE|DICT|INTERRES
   165   84   85 1    
   166   84  205 1    
   167   85   86 1    
   168   85   87 1    
   169   85  206 1    
   170   86  207 1    
   171   86  208 1    
   172   86  209 1    
   173   87   88 2    
   174   87   89 am   BACKBONE|DICT|INTERRES
   175   89   90 1    
   176   89  210 1    
   177   90   91 1    
   178   90   92 1    
   179   90  211 1    
   180   91  212 1    
   181   91  213 1    
   182   91  214 1    
   183   92   93 2    
   184   92   94 am   BACKBONE|DICT|INTERRES
   185   94   95 1    
   186   94  215 1    
   187   95   96 1    
   188   95   97 1    
   189   95  216 1    
   190   96  217 1    
   191   96  218 1    
   192   96  219 1    
   193   97   98 2    
   194   97   99 am   BACKBONE|DICT|INTERRES
   195   99  100 1    
   196   99  220 1    
   197  100  101 1    
   198  100  102 1    
   199  100  221 1    
   200  101  222 1    
   201  101  223 1    
   202  101  224 1    
   203  102  103 2    
   204  102  104 am   BACKBONE|DICT|INTERRES
   205  104  105 1    
   206  104  225 1    
   207  105  106 1    
   208  105  107 1    
   209  105  226 1    
   210  106  227 1    
   211  106  228 1    
   212  106  229 1    
   213  107  108 2    
   214  107  109 am   BACKBONE|DICT|INTERRES
   215  109  110 1    
   216  109  230 1    
   217  110  111 1    
   218  110  112 1    
   219  110  231 1    
   220  111  232 1    
   221  111  233 1    
   222  111  234 1    
   223  112  113 2    
   224  112  114 am   BACKBONE|DICT|INTERRES
   225  114  115 1    
   226  114  235 1    
   227  115  116 1    
   228  115  117 1    
   229  115  236 1    
   230  116  237 1    
   231  116  238 1    
   232  116  239 1    
   233  117  118 2    
   234  117  119 am   BACKBONE|DICT|INTERRES
   235  119  120 1    
   236  119  240 1    
   237  120  121 1    
   238  120  124 1    
   239  120  241 1    
   240  121  122 am   BACKBONE|DICT|INTERRES
   241  121  123 2    
   242  122  242 1    
   243  122  243 1    
   244  124  125 1    
   245  124  244 1    
   246  124  245 1    
   247  125  126 1    
   248  126  246 1    
   249  126  247 1    
@<TRIPOS>SUBSTRUCTURE
     1 UNK         1 GROUP             0       ****    0 ROOT    
