@<TRIPOS>MOLECULE
3R540
247   249    1
SMALL
USER_CHARGES


@<TRIPOS>ATOM
      1 CA          1.4673  -11.3390  -48.7792 C.3       0 UNK        -0.1800 
      2 C           1.4072  -11.7869  -47.3271 C.2       0 UNK         0.5000 
      3 O           2.3846  -11.6276  -46.5973 O.2       0 UNK        -0.5000 
      4 N           0.2588  -12.3242  -46.8965 N.am      1 UNK        -0.5000 
      5 CA          0.0243  -12.8901  -45.5584 C.3       1 UNK         0.1400 
      6 C6         -1.3080  -13.6743  -45.4858 C.3       23 UNK        -0.0398 
      7 S7         -1.3735  -15.0386  -46.6930 S.3       23 UNK        -0.2404 
      8 C8         -3.0507  -14.8510  -47.3709 C.3       23 UNK        -0.0205 
      9 C9         -3.3611  -15.9818  -48.3375 C.ar      23 UNK        -0.0193 
     10 C10        -3.2373  -15.7941  -49.7186 C.ar      23 UNK        -0.1150 
     11 C11        -3.4711  -16.8548  -50.6002 C.ar      23 UNK        -0.0193 
     12 C12        -3.8365  -18.1026  -50.0914 C.ar      23 UNK        -0.1150 
     13 C13        -3.9552  -18.3030  -48.7152 C.ar      23 UNK        -0.0193 
     14 C14        -3.7363  -17.2344  -47.8428 C.ar      23 UNK        -0.1150 
     15 C15        -4.2562  -19.6906  -48.1792 C.3       23 UNK        -0.0205 
     16 S16        -2.7080  -20.6236  -48.0065 S.3       23 UNK        -0.2404 
     17 C17        -3.3355  -22.3057  -47.7182 C.3       23 UNK        -0.0398 
     18 CA         -2.2621  -23.2120  -47.0679 C.3       11 UNK         0.1400 
     19 N          -1.8398  -22.6953  -45.7628 N.am      11 UNK        -0.5000 
     20 C          -0.6478  -22.8763  -45.1861 C.2       10 UNK         0.5000 
     21 O           0.2064  -23.6463  -45.6282 O.2       10 UNK        -0.5000 
     22 CA         -0.3776  -22.0347  -43.9168 C.3       10 UNK         0.1400 
     23 CB          0.9953  -22.3328  -43.2895 C.3       10 UNK        -0.1800 
     24 N          -0.4678  -20.5954  -44.1831 N.am      10 UNK        -0.5000 
     25 C          -1.5961  -19.9009  -44.3949 C.2       9 UNK         0.5000 
     26 O          -2.7174  -20.4063  -44.3139 O.2       9 UNK        -0.5000 
     27 CA         -1.4750  -18.4086  -44.7662 C.3       9 UNK         0.1400 
     28 CB         -2.2062  -17.5271  -43.7404 C.3       9 UNK        -0.1800 
     29 N          -0.0967  -17.9366  -44.8932 N.am      9 UNK        -0.5000 
     30 C           0.7090  -18.1478  -45.9438 C.2       8 UNK         0.5000 
     31 O           0.3814  -18.7897  -46.9403 O.2       8 UNK        -0.5000 
     32 CA          2.1352  -17.5670  -45.8519 C.3       8 UNK         0.1400 
     33 CB          2.2793  -16.3181  -46.7338 C.3       8 UNK        -0.1800 
     34 N           2.5332  -17.2383  -44.4796 N.am      8 UNK        -0.5000 
     35 C           2.8115  -18.1527  -43.5383 C.2       7 UNK         0.5000 
     36 O           2.8031  -19.3667  -43.7410 O.2       7 UNK        -0.5000 
     37 CA          3.0849  -17.6177  -42.1265 C.3       7 UNK         0.1400 
     38 CB          4.5291  -17.1074  -42.0057 C.3       7 UNK        -0.1800 
     39 N           2.1609  -16.5353  -41.7973 N.am      7 UNK        -0.5000 
     40 C           0.9356  -16.6912  -41.2823 C.2       6 UNK         0.5000 
     41 O           0.4467  -17.7947  -41.0384 O.2       6 UNK        -0.5000 
     42 CA          0.0995  -15.4146  -41.0218 C.3       6 UNK         0.1400 
     43 CB         -0.6544  -15.4815  -39.6785 C.3       6 UNK        -0.1800 
     44 N           0.8444  -14.1532  -41.1336 N.am      6 UNK        -0.5000 
     45 C           1.8953  -13.7434  -40.4088 C.2       5 UNK         0.5000 
     46 O           2.3919  -14.3819  -39.4789 O.2       5 UNK        -0.5000 
     47 CA          2.5127  -12.3984  -40.8386 C.3       5 UNK         0.1400 
     48 CB          3.1189  -11.6447  -39.6422 C.3       5 UNK        -0.1800 
     49 N           3.5316  -12.4788  -41.8929 N.am      5 UNK        -0.5000 
     50 C           3.6008  -13.2599  -42.9833 C.2       4 UNK         0.5000 
     51 O           2.8489  -14.2025  -43.2393 O.2       4 UNK        -0.5000 
     52 CA          4.6749  -12.8489  -44.0056 C.3       4 UNK         0.1400 
     53 CB          4.7918  -13.8389  -45.1779 C.3       4 UNK        -0.1800 
     54 N           4.3256  -11.5349  -44.5371 N.am      4 UNK        -0.5000 
     55 C           4.6573  -10.3609  -43.9868 C.2       3 UNK         0.5000 
     56 O           5.4110  -10.2475  -43.0195 O.2       3 UNK        -0.5000 
     57 CA          3.9600   -9.1230  -44.5685 C.3       3 UNK         0.1400 
     58 CB          4.4792   -8.7994  -45.9788 C.3       3 UNK        -0.1800 
     59 N           2.5117   -9.3278  -44.6116 N.am      3 UNK        -0.5000 
     60 C           1.6861   -9.1485  -43.5699 C.2       2 UNK         0.5000 
     61 O           2.0565   -8.7530  -42.4644 O.2       2 UNK        -0.5000 
     62 CA          0.1940   -9.4588  -43.7979 C.3       2 UNK         0.1400 
     63 CB         -0.5393   -8.2148  -44.3221 C.3       2 UNK        -0.1800 
     64 N          -0.0037  -10.5618  -44.7376 N.am      2 UNK        -0.5000 
     65 C           0.0960  -11.8578  -44.4130 C.2       1 UNK         0.5000 
     66 O           0.2379  -12.2605  -43.2582 O.2       1 UNK        -0.5000 
     67 C          -2.7287  -24.6815  -47.0300 C.2       11 UNK         0.5000 
     68 O          -3.1847  -25.1846  -48.0568 O.2       11 UNK        -0.5000 
     69 N          -2.6013  -25.3670  -45.8847 N.am      12 UNK        -0.5000 
     70 CA         -2.9566  -26.7795  -45.7031 C.3       12 UNK         0.1400 
     71 CB         -2.7122  -27.1783  -44.2405 C.3       12 UNK        -0.1800 
     72 C          -2.2075  -27.7311  -46.6587 C.2       12 UNK         0.5000 
     73 O          -2.7954  -28.7012  -47.1371 O.2       12 UNK        -0.5000 
     74 N          -0.9490  -27.3944  -46.9768 N.am      13 UNK        -0.5000 
     75 CA         -0.1127  -28.0893  -47.9610 C.3       13 UNK         0.1400 
     76 CB          1.3321  -27.5859  -47.8225 C.3       13 UNK        -0.1800 
     77 C          -0.6020  -27.9253  -49.4167 C.2       13 UNK         0.5000 
     78 O          -0.2654  -28.7519  -50.2648 O.2       13 UNK        -0.5000 
     79 N          -1.3945  -26.8771  -49.6733 N.am      14 UNK        -0.5000 
     80 CA         -2.0388  -26.5714  -50.9506 C.3       14 UNK         0.1400 
     81 CB         -1.8407  -25.0724  -51.2390 C.3       14 UNK        -0.1800 
     82 C          -3.5371  -26.9434  -50.9311 C.2       14 UNK         0.5000 
     83 O          -4.2796  -26.5074  -51.8111 O.2       14 UNK        -0.5000 
     84 N          -3.9706  -27.7047  -49.9115 N.am      15 UNK        -0.5000 
     85 CA         -5.3480  -28.1385  -49.6434 C.3       15 UNK         0.1400 
     86 CB         -5.8205  -29.1350  -50.7224 C.3       15 UNK        -0.1800 
     87 C          -6.3360  -26.9677  -49.4391 C.2       15 UNK         0.5000 
     88 O          -7.5269  -27.1126  -49.7192 O.2       15 UNK        -0.5000 
     89 N          -5.8139  -25.8247  -48.9679 N.am      16 UNK        -0.5000 
     90 CA         -6.4892  -24.5411  -48.7541 C.3       16 UNK         0.1400 
     91 CB         -7.5890  -24.6663  -47.6798 C.3       16 UNK        -0.1800 
     92 C          -6.9933  -23.8577  -50.0453 C.2       16 UNK         0.5000 
     93 O          -7.7661  -22.9021  -49.9550 O.2       16 UNK        -0.5000 
     94 N          -6.5504  -24.3270  -51.2202 N.am      17 UNK        -0.5000 
     95 CA         -6.9168  -23.7658  -52.5157 C.3       17 UNK         0.1400 
     96 CB         -6.8361  -24.8633  -53.5885 C.3       17 UNK        -0.1800 
     97 C          -5.9887  -22.5926  -52.8588 C.2       17 UNK         0.5000 
     98 O          -4.7858  -22.7990  -53.0336 O.2       17 UNK        -0.5000 
     99 N          -6.5587  -21.3875  -52.9925 N.am      18 UNK        -0.5000 
    100 CA        -5.8394  -20.1639  -53.3653 C.3       18 UNK         0.1400 
    101 CB        -6.7885  -18.9611  -53.2754 C.3       18 UNK        -0.1800 
    102 C         -5.1868  -20.2394  -54.7589 C.2       18 UNK         0.5000 
    103 O         -4.1212  -19.6584  -54.9656 O.2       18 UNK        -0.5000 
    104 N         -5.8066  -21.0012  -55.6705 N.am      19 UNK        -0.5000 
    105 CA        -5.2962  -21.2979  -57.0099 C.3       19 UNK         0.1400 
    106 CB        -6.4016  -21.9931  -57.8192 C.3       19 UNK        -0.1800 
    107 C         -4.0127  -22.1538  -57.0078 C.2       19 UNK         0.5000 
    108 O         -3.2417  -22.0749  -57.9646 O.2       19 UNK        -0.5000 
    109 N         -3.8033  -22.9426  -55.9450 N.am      20 UNK        -0.5000 
    110 CA        -2.5982  -23.7417  -55.7350 C.3       20 UNK         0.1400 
    111 CB        -2.9850  -25.0881  -55.1029 C.3       20 UNK        -0.1800 
    112 C         -1.5818  -22.9934  -54.8563 C.2       20 UNK         0.5000 
    113 O         -0.3862  -23.0377  -55.1479 O.2       20 UNK        -0.5000 
    114 N         -2.0684  -22.3271  -53.7989 N.am      21 UNK        -0.5000 
    115 CA        -1.2527  -21.5944  -52.8302 C.3       21 UNK         0.1400 
    116 CB        -2.1131  -21.2352  -51.6113 C.3       21 UNK        -0.1800 
    117 C         -0.5915  -20.3337  -53.4168 C.2       21 UNK         0.5000 
    118 O          0.5980  -20.1146  -53.1820 O.2       21 UNK        -0.5000 
    119 N         -1.3665  -19.5423  -54.1678 N.am      22 UNK        -0.5000 
    120 CA        -0.9163  -18.3177  -54.8497 C.3       22 UNK         0.1400 
    121 C         -1.0350  -18.4535  -56.3893 C.2       22 UNK         0.5000 
    122 N         -2.1095  -19.0370  -56.9050 N.am      22 UNK        -0.7600 
    123 O         -0.1440  -18.0325  -57.1218 O.2       22 UNK        -0.5000 
    124 C124       -1.6785  -17.0537  -54.3716 C.3       23 UNK        -0.0398 
    125 S125       -1.5466  -16.7770  -52.5719 S.3       23 UNK        -0.2404 
    126 C126       -3.3008  -16.6733  -52.0992 C.3       23 UNK        -0.0205 
    127 H127        2.2575  -11.8768  -49.3027 H         1 UNK         0.0600 
    128 H128        1.6854  -10.2725  -48.8336 H         1 UNK         0.0600 
    129 H129        0.5271  -11.5228  -49.2997 H         1 UNK         0.0600 
    130 H130       -0.5051  -12.4330  -47.5480 H         1 UNK         0.3000 
    131 H131        0.8360  -13.5932  -45.3637 H         1 UNK         0.0600 
    132 H132       -1.4449  -14.1098  -44.4943 H         1 UNK         0.0800 
    133 H133       -2.1531  -13.0021  -45.6440 H         1 UNK         0.0800 
    134 H134       -3.1395  -13.8846  -47.8695 H         1 UNK         0.0800 
    135 H135       -3.7771  -14.8532  -46.5567 H         1 UNK         0.0800 
    136 H136       -2.9339  -14.8323  -50.1076 H         1 UNK         0.1150 
    137 H137       -3.9983  -18.9306  -50.7640 H         1 UNK         0.1150 
    138 H138       -3.8199  -17.3853  -46.7762 H         1 UNK         0.1150 
    139 H139       -4.7592  -19.6308  -47.2127 H         1 UNK         0.0800 
    140 H140       -4.9316  -20.2149  -48.8574 H         1 UNK         0.0800 
    141 H141       -3.6471  -22.6976  -48.6881 H         1 UNK         0.0800 
    142 H142       -4.2283  -22.2574  -47.0922 H         1 UNK         0.0800 
    143 H143       -1.3904  -23.2034  -47.7261 H         1 UNK         0.0600 
    144 H144       -2.4554  -22.0086  -45.3354 H         1 UNK         0.3000 
    145 H145       -1.1419  -22.3001  -43.1837 H         1 UNK         0.0600 
    146 H146        1.1425  -21.7610  -42.3730 H         1 UNK         0.0600 
    147 H147        1.0885  -23.3886  -43.0319 H         1 UNK         0.0600 
    148 H148        1.8107  -22.0856  -43.9706 H         1 UNK         0.0600 
    149 H149        0.4121  -20.1082  -44.2814 H         1 UNK         0.3000 
    150 H150       -1.9637  -18.2843  -45.7334 H         1 UNK         0.0600 
    151 H151       -3.2626  -17.7917  -43.6805 H         1 UNK         0.0600 
    152 H152       -2.1552  -16.4738  -44.0139 H         1 UNK         0.0600 
    153 H153       -1.7845  -17.6387  -42.7413 H         1 UNK         0.0600 
    154 H154        0.2760  -17.4194  -44.1123 H         1 UNK         0.3000 
    155 H155        2.8173  -18.3290  -46.2349 H         1 UNK         0.0600 
    156 H156        1.6894  -15.4860  -46.3529 H         1 UNK         0.0600 
    157 H157        1.9456  -16.5156  -47.7534 H         1 UNK         0.0600 
    158 H158        3.3191  -15.9979  -46.7917 H         1 UNK         0.0600 
    159 H159        2.5606  -16.2573  -44.2294 H         1 UNK         0.3000 
    160 H160        2.9521  -18.4374  -41.4171 H         1 UNK         0.0600 
    161 H161        4.7318  -16.2916  -42.7002 H         1 UNK         0.0600 
    162 H162        5.2428  -17.9044  -42.2176 H         1 UNK         0.0600 
    163 H163        4.7340  -16.7457  -40.9978 H         1 UNK         0.0600 
    164 H164        2.4546  -15.5950  -42.0482 H         1 UNK         0.3000 
    165 H165       -0.6479  -15.3844  -41.8157 H         1 UNK         0.0600 
    166 H166        0.0298  -15.5744  -38.8347 H         1 UNK         0.0600 
    167 H167       -1.2614  -14.5897  -39.5223 H         1 UNK         0.0600 
    168 H168       -1.3279  -16.3388  -39.6480 H         1 UNK         0.0600 
    169 H169        0.5721  -13.5565  -41.9130 H         1 UNK         0.3000 
    170 H170        1.7061  -11.7735  -41.2227 H         1 UNK         0.0600 
    171 H171        3.9997  -12.1544  -39.2497 H         1 UNK         0.0600 
    172 H172        3.4138  -10.6331  -39.9227 H         1 UNK         0.0600 
    173 H173        2.3984  -11.5567  -38.8279 H         1 UNK         0.0600 
    174 H174        4.2235  -11.7412  -41.8511 H         1 UNK         0.3000 
    175 H175        5.6386  -12.8095  -43.4939 H         1 UNK         0.0600 
    176 H176        3.8637  -13.8935  -45.7475 H         1 UNK         0.0600 
    177 H177        5.5850  -13.5424  -45.8640 H         1 UNK         0.0600 
    178 H178        5.0247  -14.8440  -44.8244 H         1 UNK         0.0600 
    179 H179        3.6554  -11.5370  -45.3046 H         1 UNK         0.3000 
    180 H180        4.1850   -8.2707  -43.9236 H         1 UNK         0.0600 
    181 H181        4.0203   -7.8897  -46.3661 H         1 UNK         0.0600 
    182 H182        4.2729   -9.6037  -46.6858 H         1 UNK         0.0600 
    183 H183        5.5582   -8.6402  -45.9688 H         1 UNK         0.0600 
    184 H184        2.1435   -9.7352  -45.4602 H         1 UNK         0.3000 
    185 H185       -0.2433   -9.7278  -42.8337 H         1 UNK         0.0600 
    186 H186       -1.6072   -8.4043  -44.4320 H         1 UNK         0.0600 
    187 H187       -0.4281   -7.3771  -43.6324 H         1 UNK         0.0600 
    188 H188       -0.1530   -7.8959  -45.2910 H         1 UNK         0.0600 
    189 H189       -0.1471  -10.3207  -45.7073 H         1 UNK         0.3000 
    190 H190       -2.2135  -24.8873  -45.0861 H         1 UNK         0.3000 
    191 H191       -4.0237  -26.8799  -45.9126 H         1 UNK         0.0600 
    192 H192       -2.9852  -28.2204  -44.0688 H         1 UNK         0.0600 
    193 H193       -3.3103  -26.5712  -43.5608 H         1 UNK         0.0600 
    194 H194       -1.6641  -27.0627  -43.9612 H         1 UNK         0.0600 
    195 H195       -0.5493  -26.5741  -46.5430 H         1 UNK         0.3000 
    196 H196       -0.1289  -29.1561  -47.7282 H         1 UNK         0.0600 
    197 H197        1.4061  -26.5163  -48.0240 H         1 UNK         0.0600 
    198 H198        1.7184  -27.7663  -46.8191 H         1 UNK         0.0600 
    199 H199        1.9944  -28.0988  -48.5212 H         1 UNK         0.0600 
    200 H200       -1.6698  -26.2782  -48.9044 H         1 UNK         0.3000 
    201 H201       -1.5744  -27.1402  -51.7583 H         1 UNK         0.0600 
    202 H202       -2.2573  -24.7962  -52.2063 H         1 UNK         0.0600 
    203 H203       -2.3278  -24.4510  -50.4877 H         1 UNK         0.0600 
    204 H204       -0.7833  -24.8092  -51.2578 H         1 UNK         0.0600 
    205 H205       -3.2913  -27.9927  -49.2188 H         1 UNK         0.3000 
    206 H206       -5.3160  -28.6725  -48.6927 H         1 UNK         0.0600 
    207 H207       -5.1097  -29.9526  -50.8420 H         1 UNK         0.0600 
    208 H208       -6.7799  -29.5785  -50.4539 H         1 UNK         0.0600 
    209 H209       -5.9439  -28.6526  -51.6925 H         1 UNK         0.0600 
    210 H210       -4.8157  -25.8080  -48.7728 H         1 UNK         0.3000 
    211 H211       -5.7274  -23.8749  -48.3520 H         1 UNK         0.0600 
    212 H212       -7.9721  -23.6858  -47.3950 H         1 UNK         0.0600 
    213 H213       -7.2040  -25.1366  -46.7749 H         1 UNK         0.0600 
    214 H214       -8.4358  -25.2558  -48.0316 H         1 UNK         0.0600 
    215 H215       -5.8736  -25.0813  -51.2330 H         1 UNK         0.3000 
    216 H216       -7.9496  -23.4120  -52.4827 H         1 UNK         0.0600 
    217 H217       -5.8333  -25.2832  -53.6663 H         1 UNK         0.0600 
    218 H218       -7.1052  -24.4724  -54.5705 H         1 UNK         0.0600 
    219 H219       -7.5203  -25.6817  -53.3640 H         1 UNK         0.0600 
    220 H220       -7.5491  -21.2923  -52.8175 H         1 UNK         0.3000 
    221 H221       -5.0401  -20.0153  -52.6395 H         1 UNK         0.0600 
    222 H222       -7.1769  -18.8408  -52.2638 H         1 UNK         0.0600 
    223 H223       -7.6372  -19.0653  -53.9524 H         1 UNK         0.0600 
    224 H224       -6.2727  -18.0355  -53.5352 H         1 UNK         0.0600 
    225 H225       -6.6797  -21.4371  -55.4130 H         1 UNK         0.3000 
    226 H226       -5.0585  -20.3502  -57.4977 H         1 UNK         0.0600 
    227 H227       -6.6966  -22.9405  -57.3662 H         1 UNK         0.0600 
    228 H228       -7.2896  -21.3652  -57.8955 H         1 UNK         0.0600 
    229 H229       -6.0674  -22.2052  -58.8357 H         1 UNK         0.0600 
    230 H230       -4.4640  -22.9197  -55.1796 H         1 UNK         0.3000 
    231 H231       -2.1170  -23.9539  -56.6922 H         1 UNK         0.0600 
    232 H232       -3.5132  -24.9557  -54.1592 H         1 UNK         0.0600 
    233 H233       -2.1021  -25.6963  -54.9028 H         1 UNK         0.0600 
    234 H234       -3.6323  -25.6613  -55.7665 H         1 UNK         0.0600 
    235 H235       -3.0610  -22.3973  -53.5909 H         1 UNK         0.3000 
    236 H236       -0.4563  -22.2610  -52.4925 H         1 UNK         0.0600 
    237 H237       -2.5188  -22.1247  -51.1308 H         1 UNK         0.0600 
    238 H238       -1.5288  -20.6962  -50.8645 H         1 UNK         0.0600 
    239 H239       -2.9499  -20.6004  -51.8938 H         1 UNK         0.0600 
    240 H240       -2.3334  -19.8015  -54.3309 H         1 UNK         0.3000 
    241 H241        0.1418  -18.1504  -54.6398 H         1 UNK         0.0600 
    242 H242       -2.1854  -19.1480  -57.9033 H         1 UNK         0.3800 
    243 H243       -2.8698  -19.3320  -56.3002 H         1 UNK         0.3800 
    244 H244       -2.7298  -17.1159  -54.6579 H         1 UNK         0.0800 
    245 H245       -1.2842  -16.1660  -54.8693 H         1 UNK         0.0800 
    246 H246       -3.8695  -17.4379  -52.6311 H         1 UNK         0.0800 
    247 H247       -3.7069  -15.7096  -52.4098 H         1 UNK         0.0800 
@<TRIPOS>BOND
     1    1    2 1    
     2    1  127 1    
     3    1  128 1    
     4    1  129 1    
     5    2    3 2    
     6    2    4 am   BACKBONE|DICT|INTERRES
     7    4    5 1    
     8    4  130 1    
     9    5    6 1    
    10    5   65 1    
    11    5  131 1    
    12    6    7 1    
    13    6  132 1    
    14    6  133 1    
    15    7    8 1    
    16    8    9 1    
    17    8  134 1    
    18    8  135 1    
    19    9   10 ar   
    20    9   14 ar   
    21   10   11 ar   
    22   10  136 1    
    23   11   12 ar   
    24   11  126 1    
    25   12   13 ar   
    26   12  137 1    
    27   13   14 ar   
    28   13   15 1    
    29   14  138 1    
    30   15   16 1    
    31   15  139 1    
    32   15  140 1    
    33   16   17 1    
    34   17   18 1    
    35   17  141 1    
    36   17  142 1    
    37   18   19 1    
    38   18   67 1    
    39   18  143 1    
    40   19   20 am   BACKBONE|DICT|INTERRES
    41   19  144 1    
    42   20   21 2    
    43   20   22 1    
    44   22   23 1    
    45   22   24 1    
    46   22  145 1    
    47   23  146 1    
    48   23  147 1    
    49   23  148 1    
    50   24   25 am   BACKBONE|DICT|INTERRES
    51   24  149 1    
    52   25   26 2    
    53   25   27 1    
    54   27   28 1    
    55   27   29 1    
    56   27  150 1    
    57   28  151 1    
    58   28  152 1    
    59   28  153 1    
    60   29   30 am   BACKBONE|DICT|INTERRES
    61   29  154 1    
    62   30   31 2    
    63   30   32 1    
    64   32   33 1    
    65   32   34 1    
    66   32  155 1    
    67   33  156 1    
    68   33  157 1    
    69   33  158 1    
    70   34   35 am   BACKBONE|DICT|INTERRES
    71   34  159 1    
    72   35   36 2    
    73   35   37 1    
    74   37   38 1    
    75   37   39 1    
    76   37  160 1    
    77   38  161 1    
    78   38  162 1    
    79   38  163 1    
    80   39   40 am   BACKBONE|DICT|INTERRES
    81   39  164 1    
    82   40   41 2    
    83   40   42 1    
    84   42   43 1    
    85   42   44 1    
    86   42  165 1    
    87   43  166 1    
    88   43  167 1    
    89   43  168 1    
    90   44   45 am   BACKBONE|DICT|INTERRES
    91   44  169 1    
    92   45   46 2    
    93   45   47 1    
    94   47   48 1    
    95   47   49 1    
    96   47  170 1    
    97   48  171 1    
    98   48  172 1    
    99   48  173 1    
   100   49   50 am   BACKBONE|DICT|INTERRES
   101   49  174 1    
   102   50   51 2    
   103   50   52 1    
   104   52   53 1    
   105   52   54 1    
   106   52  175 1    
   107   53  176 1    
   108   53  177 1    
   109   53  178 1    
   110   54   55 am   BACKBONE|DICT|INTERRES
   111   54  179 1    
   112   55   56 2    
   113   55   57 1    
   114   57   58 1    
   115   57   59 1    
   116   57  180 1    
   117   58  181 1    
   118   58  182 1    
   119   58  183 1    
   120   59   60 am   BACKBONE|DICT|INTERRES
   121   59  184 1    
   122   60   61 2    
   123   60   62 1    
   124   62   63 1    
   125   62   64 1    
   126   62  185 1    
   127   63  186 1    
   128   63  187 1    
   129   63  188 1    
   130   64   65 am   BACKBONE|DICT|INTERRES
   131   64  189 1    
   132   65   66 2    
   133   67   68 2    
   134   67   69 am   BACKBONE|DICT|INTERRES
   135   69   70 1    
   136   69  190 1    
   137   70   71 1    
   138   70   72 1    
   139   70  191 1    
   140   71  192 1    
   141   71  193 1    
   142   71  194 1    
   143   72   73 2    
   144   72   74 am   BACKBONE|DICT|INTERRES
   145   74   75 1    
   146   74  195 1    
   147   75   76 1    
   148   75   77 1    
   149   75  196 1    
   150   76  197 1    
   151   76  198 1    
   152   76  199 1    
   153   77   78 2    
   154   77   79 am   BACKBONE|DICT|INTERRES
   155   79   80 1    
   156   79  200 1    
   157   80   81 1    
   158   80   82 1    
   159   80  201 1    
   160   81  202 1    
   161   81  203 1    
   162   81  204 1    
   163   82   83 2    
   164   82   84 am   BACKBONE|DICT|INTERRES
   165   84   85 1    
   166   84  205 1    
   167   85   86 1    
   168   85   87 1    
   169   85  206 1    
   170   86  207 1    
   171   86  208 1    
   172   86  209 1    
   173   87   88 2    
   174   87   89 am   BACKBONE|DICT|INTERRES
   175   89   90 1    
   176   89  210 1    
   177   90   91 1    
   178   90   92 1    
   179   90  211 1    
   180   91  212 1    
   181   91  213 1    
   182   91  214 1    
   183   92   93 2    
   184   92   94 am   BACKBONE|DICT|INTERRES
   185   94   95 1    
   186   94  215 1    
   187   95   96 1    
   188   95   97 1    
   189   95  216 1    
   190   96  217 1    
   191   96  218 1    
   192   96  219 1    
   193   97   98 2    
   194   97   99 am   BACKBONE|DICT|INTERRES
   195   99  100 1    
   196   99  220 1    
   197  100  101 1    
   198  100  102 1    
   199  100  221 1    
   200  101  222 1    
   201  101  223 1    
   202  101  224 1    
   203  102  103 2    
   204  102  104 am   BACKBONE|DICT|INTERRES
   205  104  105 1    
   206  104  225 1    
   207  105  106 1    
   208  105  107 1    
   209  105  226 1    
   210  106  227 1    
   211  106  228 1    
   212  106  229 1    
   213  107  108 2    
   214  107  109 am   BACKBONE|DICT|INTERRES
   215  109  110 1    
   216  109  230 1    
   217  110  111 1    
   218  110  112 1    
   219  110  231 1    
   220  111  232 1    
   221  111  233 1    
   222  111  234 1    
   223  112  113 2    
   224  112  114 am   BACKBONE|DICT|INTERRES
   225  114  115 1    
   226  114  235 1    
   227  115  116 1    
   228  115  117 1    
   229  115  236 1    
   230  116  237 1    
   231  116  238 1    
   232  116  239 1    
   233  117  118 2    
   234  117  119 am   BACKBONE|DICT|INTERRES
   235  119  120 1    
   236  119  240 1    
   237  120  121 1    
   238  120  124 1    
   239  120  241 1    
   240  121  122 am   BACKBONE|DICT|INTERRES
   241  121  123 2    
   242  122  242 1    
   243  122  243 1    
   244  124  125 1    
   245  124  244 1    
   246  124  245 1    
   247  125  126 1    
   248  126  246 1    
   249  126  247 1    
@<TRIPOS>SUBSTRUCTURE
     1 UNK         1 GROUP             0       ****    0 ROOT    
