@<TRIPOS>MOLECULE
3R540
247   249    1
SMALL
USER_CHARGES


@<TRIPOS>ATOM
      1 CA          2.5782  -16.0846  -47.7210 C.3       0 UNK        -0.1800 
      2 C           1.9863  -14.7457  -47.3064 C.2       0 UNK         0.5000 
      3 O           2.3348  -14.2199  -46.2514 O.2       0 UNK        -0.5000 
      4 N           1.1166  -14.1738  -48.1500 N.am      1 UNK        -0.5000 
      5 CA          0.3906  -12.9135  -47.9149 C.3       1 UNK         0.1400 
      6 C6         -0.7214  -12.6770  -48.9668 C.3       23 UNK        -0.0398 
      7 S7         -1.9218  -14.0496  -49.0418 S.3       23 UNK        -0.2404 
      8 C8         -1.4752  -14.8692  -50.6058 C.3       23 UNK        -0.0205 
      9 C9         -1.3638  -16.3743  -50.4250 C.ar      23 UNK        -0.0193 
     10 C10        -2.5153  -17.1401  -50.2306 C.ar      23 UNK        -0.1150 
     11 C11        -2.4243  -18.5232  -50.0716 C.ar      23 UNK        -0.0193 
     12 C12        -1.1755  -19.1430  -50.1206 C.ar      23 UNK        -0.1150 
     13 C13        -0.0086  -18.3936  -50.3164 C.ar      23 UNK        -0.0193 
     14 C14        -0.1170  -17.0071  -50.4694 C.ar      23 UNK        -0.1150 
     15 C15         1.3828  -19.0292  -50.3853 C.3       23 UNK        -0.0205 
     16 S16         1.5173  -20.7547  -49.7967 S.3       23 UNK        -0.2404 
     17 C17         1.1227  -20.5594  -48.0250 C.3       23 UNK        -0.0398 
     18 CA          0.7663  -21.8892  -47.3187 C.3       11 UNK         0.1400 
     19 N           0.7109  -21.7194  -45.8662 N.am      11 UNK        -0.5000 
     20 C           0.5954  -22.7144  -44.9761 C.2       10 UNK         0.5000 
     21 O           0.5861  -23.9071  -45.2775 O.2       10 UNK        -0.5000 
     22 CA          0.3990  -22.3038  -43.5064 C.3       10 UNK         0.1400 
     23 CB          1.7400  -21.9312  -42.8576 C.3       10 UNK        -0.1800 
     24 N          -0.5512  -21.1987  -43.3638 N.am      10 UNK        -0.5000 
     25 C          -1.8487  -21.2771  -43.6938 C.2       9 UNK         0.5000 
     26 O          -2.3877  -22.3133  -44.0836 O.2       9 UNK        -0.5000 
     27 CA         -2.6737  -19.9787  -43.6170 C.3       9 UNK         0.1400 
     28 CB         -3.1243  -19.7036  -42.1751 C.3       9 UNK        -0.1800 
     29 N          -1.9564  -18.8140  -44.1394 N.am      9 UNK        -0.5000 
     30 C          -1.5731  -18.6627  -45.4156 C.2       8 UNK         0.5000 
     31 O          -1.8195  -19.4777  -46.3020 O.2       8 UNK        -0.5000 
     32 CA         -0.7149  -17.4282  -45.7466 C.3       8 UNK         0.1400 
     33 CB         -1.5823  -16.1750  -45.9286 C.3       8 UNK        -0.1800 
     34 N           0.3082  -17.1848  -44.7287 N.am      8 UNK        -0.5000 
     35 C           1.3241  -18.0211  -44.4705 C.2       7 UNK         0.5000 
     36 O           1.5439  -19.0475  -45.1125 O.2       7 UNK        -0.5000 
     37 CA          2.2080  -17.6843  -43.2598 C.3       7 UNK         0.1400 
     38 CB          3.2965  -16.6710  -43.6419 C.3       7 UNK        -0.1800 
     39 N           1.4137  -17.1739  -42.1413 N.am      7 UNK        -0.5000 
     40 C           0.6163  -17.9422  -41.3830 C.2       6 UNK         0.5000 
     41 O           0.5021  -19.1574  -41.5364 O.2       6 UNK        -0.5000 
     42 CA         -0.2232  -17.2429  -40.2957 C.3       6 UNK         0.1400 
     43 CB          0.5699  -17.1474  -38.9840 C.3       6 UNK        -0.1800 
     44 N          -0.6720  -15.9063  -40.6825 N.am      6 UNK        -0.5000 
     45 C          -1.4863  -15.6367  -41.7125 C.2       5 UNK         0.5000 
     46 O          -2.0152  -16.5040  -42.4064 O.2       5 UNK        -0.5000 
     47 CA         -1.6982  -14.1492  -42.0621 C.3       5 UNK         0.1400 
     48 CB         -2.9874  -13.6244  -41.4138 C.3       5 UNK        -0.1800 
     49 N          -0.5766  -13.2804  -41.6814 N.am      5 UNK        -0.5000 
     50 C           0.6816  -13.4187  -42.1213 C.2       4 UNK         0.5000 
     51 O           1.0381  -14.3222  -42.8804 O.2       4 UNK        -0.5000 
     52 CA          1.7211  -12.4381  -41.5471 C.3       4 UNK         0.1400 
     53 CB          2.1859  -12.9151  -40.1616 C.3       4 UNK        -0.1800 
     54 N           2.8935  -12.3147  -42.4130 N.am      4 UNK        -0.5000 
     55 C           2.8971  -11.7176  -43.6110 C.2       3 UNK         0.5000 
     56 O           1.9232  -11.1093  -44.0624 O.2       3 UNK        -0.5000 
     57 CA          4.2095  -11.7840  -44.4200 C.3       3 UNK         0.1400 
     58 CB          5.0274  -13.0633  -44.1533 C.3       3 UNK        -0.1800 
     59 N           3.9029  -11.7223  -45.8454 N.am      3 UNK        -0.5000 
     60 C           4.1196  -10.6733  -46.6494 C.2       2 UNK         0.5000 
     61 O           4.6987   -9.6456  -46.2935 O.2       2 UNK        -0.5000 
     62 CA          3.6106  -10.7830  -48.1030 C.3       2 UNK         0.1400 
     63 CB          4.7700  -11.1172  -49.0547 C.3       2 UNK        -0.1800 
     64 N           2.5609  -11.7898  -48.2692 N.am      2 UNK        -0.5000 
     65 C           1.3034  -11.6683  -47.8206 C.2       1 UNK         0.5000 
     66 O           0.8541  -10.6265  -47.3418 O.2       1 UNK        -0.5000 
     67 C          -0.5250  -22.5413  -47.8647 C.2       11 UNK         0.5000 
     68 O          -0.4308  -23.4901  -48.6436 O.2       11 UNK        -0.5000 
     69 N          -1.6974  -22.0783  -47.3987 N.am      12 UNK        -0.5000 
     70 CA         -3.0108  -22.6488  -47.7140 C.3       12 UNK         0.1400 
     71 CB         -4.1310  -21.8554  -47.0139 C.3       12 UNK        -0.1800 
     72 C          -3.1151  -24.1331  -47.3304 C.2       12 UNK         0.5000 
     73 O          -3.5543  -24.9380  -48.1510 O.2       12 UNK        -0.5000 
     74 N          -2.6860  -24.4641  -46.1052 N.am      13 UNK        -0.5000 
     75 CA         -2.6634  -25.8243  -45.5712 C.3       13 UNK         0.1400 
     76 CB         -2.3288  -25.7782  -44.0725 C.3       13 UNK        -0.1800 
     77 C          -1.6887  -26.7479  -46.3237 C.2       13 UNK         0.5000 
     78 O          -2.0438  -27.8906  -46.6141 O.2       13 UNK        -0.5000 
     79 N          -0.4906  -26.2359  -46.6376 N.am      14 UNK        -0.5000 
     80 CA          0.5561  -26.9544  -47.3644 C.3       14 UNK         0.1400 
     81 CB          1.8702  -26.1615  -47.2904 C.3       14 UNK        -0.1800 
     82 C           0.1802  -27.2459  -48.8278 C.2       14 UNK         0.5000 
     83 O           0.3956  -28.3639  -49.2980 O.2       14 UNK        -0.5000 
     84 N          -0.3743  -26.2419  -49.5191 N.am      15 UNK        -0.5000 
     85 CA         -0.7856  -26.3403  -50.9203 C.3       15 UNK         0.1400 
     86 CB         -0.8725  -24.9258  -51.5106 C.3       15 UNK        -0.1800 
     87 C          -2.1246  -27.0751  -51.1163 C.2       15 UNK         0.5000 
     88 O          -2.3728  -27.5759  -52.2135 O.2       15 UNK        -0.5000 
     89 N          -2.9574  -27.1054  -50.0642 N.am      16 UNK        -0.5000 
     90 CA         -4.3712  -27.4958  -50.0596 C.3       16 UNK         0.1400 
     91 CB         -4.5613  -28.9770  -50.4496 C.3       16 UNK        -0.1800 
     92 C          -5.2064  -26.5113  -50.9056 C.2       16 UNK         0.5000 
     93 O          -5.9494  -26.9247  -51.7984 O.2       16 UNK        -0.5000 
     94 N          -5.0308  -25.2164  -50.5985 N.am      17 UNK        -0.5000 
     95 CA         -5.5526  -24.0379  -51.3002 C.3       17 UNK         0.1400 
     96 CB         -7.0966  -24.0220  -51.2605 C.3       17 UNK        -0.1800 
     97 C          -4.9783  -23.8885  -52.7290 C.2       17 UNK         0.5000 
     98 O          -3.9889  -24.5399  -53.0676 O.2       17 UNK        -0.5000 
     99 N          -5.5826  -22.9981  -53.5315 N.am      18 UNK        -0.5000 
    100 CA        -5.2941  -22.7330  -54.9499 C.3       18 UNK         0.1400 
    101 CB        -5.6135  -23.9791  -55.8025 C.3       18 UNK        -0.1800 
    102 C         -3.8885  -22.1650  -55.2599 C.2       18 UNK         0.5000 
    103 O         -3.5060  -22.1184  -56.4304 O.2       18 UNK        -0.5000 
    104 N         -3.1395  -21.7408  -54.2333 N.am      19 UNK        -0.5000 
    105 CA        -1.7598  -21.2674  -54.3632 C.3       19 UNK         0.1400 
    106 CB        -1.0638  -21.3696  -52.9996 C.3       19 UNK        -0.1800 
    107 C         -1.6550  -19.8332  -54.9110 C.2       19 UNK         0.5000 
    108 O         -0.7199  -19.5391  -55.6571 O.2       19 UNK        -0.5000 
    109 N         -2.6050  -18.9718  -54.5306 N.am      20 UNK        -0.5000 
    110 CA        -2.6580  -17.5589  -54.8960 C.3       20 UNK         0.1400 
    111 CB        -1.5683  -16.7628  -54.1447 C.3       20 UNK        -0.1800 
    112 C         -4.0884  -17.0562  -54.6512 C.2       20 UNK         0.5000 
    113 O         -4.9987  -17.4817  -55.3633 O.2       20 UNK        -0.5000 
    114 N         -4.2848  -16.1990  -53.6377 N.am      21 UNK        -0.5000 
    115 CA        -5.5813  -15.6285  -53.2429 C.3       21 UNK         0.1400 
    116 CB        -5.3569  -14.6035  -52.1203 C.3       21 UNK        -0.1800 
    117 C         -6.6222  -16.6844  -52.8139 C.2       21 UNK         0.5000 
    118 O         -7.8225  -16.4685  -52.9822 O.2       21 UNK        -0.5000 
    119 N         -6.1292  -17.8186  -52.3070 N.am      22 UNK        -0.5000 
    120 CA        -6.8726  -19.0593  -52.0474 C.3       22 UNK         0.1400 
    121 C         -7.2435  -19.8838  -53.3182 C.2       22 UNK         0.5000 
    122 N         -6.9043  -19.4639  -54.5306 N.am      22 UNK        -0.7600 
    123 O         -7.8491  -20.9453  -53.2022 O.2       22 UNK        -0.5000 
    124 C124       -6.1513  -19.9308  -50.9836 C.3       23 UNK        -0.0398 
    125 S125       -4.3537  -20.1149  -51.2896 S.3       23 UNK        -0.2404 
    126 C126       -3.6675  -19.3430  -49.7900 C.3       23 UNK        -0.0205 
    127 H127        2.0542  -16.9015  -47.2271 H         1 UNK         0.0600 
    128 H128        3.6300  -16.1354  -47.4395 H         1 UNK         0.0600 
    129 H129        2.5112  -16.2328  -48.7982 H         1 UNK         0.0600 
    130 H130        0.8602  -14.6620  -48.9946 H         1 UNK         0.3000 
    131 H131       -0.0913  -13.0073  -46.9392 H         1 UNK         0.0600 
    132 H132       -0.2925  -12.4930  -49.9530 H         1 UNK         0.0800 
    133 H133       -1.2864  -11.7766  -48.7185 H         1 UNK         0.0800 
    134 H134       -2.2388  -14.6456  -51.3515 H         1 UNK         0.0800 
    135 H135       -0.5409  -14.4720  -51.0037 H         1 UNK         0.0800 
    136 H136       -3.4796  -16.6553  -50.1824 H         1 UNK         0.1150 
    137 H137       -1.1282  -20.2145  -49.9964 H         1 UNK         0.1150 
    138 H138        0.7753  -16.4205  -50.6348 H         1 UNK         0.1150 
    139 H139        1.7167  -18.9996  -51.4231 H         1 UNK         0.0800 
    140 H140        2.0884  -18.4224  -49.8170 H         1 UNK         0.0800 
    141 H141        0.3194  -19.8345  -47.8965 H         1 UNK         0.0800 
    142 H142        2.0001  -20.1169  -47.5516 H         1 UNK         0.0800 
    143 H143        1.5813  -22.5894  -47.5142 H         1 UNK         0.0600 
    144 H144        0.7604  -20.7641  -45.5238 H         1 UNK         0.3000 
    145 H145       -0.0073  -23.1653  -42.9726 H         1 UNK         0.0600 
    146 H146        1.6175  -21.7180  -41.7957 H         1 UNK         0.0600 
    147 H147        2.4559  -22.7495  -42.9443 H         1 UNK         0.0600 
    148 H148        2.1858  -21.0537  -43.3258 H         1 UNK         0.0600 
    149 H149       -0.1883  -20.3311  -42.9818 H         1 UNK         0.3000 
    150 H150       -3.5667  -20.1185  -44.2296 H         1 UNK         0.0600 
    151 H151       -3.6975  -20.5426  -41.7789 H         1 UNK         0.0600 
    152 H152       -3.7608  -18.8201  -42.1225 H         1 UNK         0.0600 
    153 H153       -2.2747  -19.5438  -41.5114 H         1 UNK         0.0600 
    154 H154       -1.7675  -18.0625  -43.4817 H         1 UNK         0.3000 
    155 H155       -0.2087  -17.6227  -46.6943 H         1 UNK         0.0600 
    156 H156       -2.1444  -15.9326  -45.0271 H         1 UNK         0.0600 
    157 H157       -2.3018  -16.3183  -46.7360 H         1 UNK         0.0600 
    158 H158       -0.9739  -15.3089  -46.1877 H         1 UNK         0.0600 
    159 H159        0.2044  -16.3599  -44.1537 H         1 UNK         0.3000 
    160 H160        2.7042  -18.6025  -42.9386 H         1 UNK         0.0600 
    161 H161        2.8685  -15.7479  -44.0310 H         1 UNK         0.0600 
    162 H162        3.9483  -17.0757  -44.4169 H         1 UNK         0.0600 
    163 H163        3.9226  -16.4177  -42.7865 H         1 UNK         0.0600 
    164 H164        1.3942  -16.1671  -42.0266 H         1 UNK         0.3000 
    165 H165       -1.1096  -17.8543  -40.1159 H         1 UNK         0.0600 
    166 H166       -0.0405  -16.7299  -38.1831 H         1 UNK         0.0600 
    167 H167        0.9029  -18.1334  -38.6569 H         1 UNK         0.0600 
    168 H168        1.4561  -16.5209  -39.0935 H         1 UNK         0.0600 
    169 H169       -0.2861  -15.1306  -40.1658 H         1 UNK         0.3000 
    170 H170       -1.8096  -14.0856  -43.1465 H         1 UNK         0.0600 
    171 H171       -3.8447  -14.2364  -41.6981 H         1 UNK         0.0600 
    172 H172       -2.9235  -13.6343  -40.3250 H         1 UNK         0.0600 
    173 H173       -3.2011  -12.6030  -41.7296 H         1 UNK         0.0600 
    174 H174       -0.7915  -12.5275  -41.0434 H         1 UNK         0.3000 
    175 H175        1.2574  -11.4546  -41.4468 H         1 UNK         0.0600 
    176 H176        2.6503  -13.9012  -40.2095 H         1 UNK         0.0600 
    177 H177        2.9103  -12.2243  -39.7294 H         1 UNK         0.0600 
    178 H178        1.3491  -12.9801  -39.4651 H         1 UNK         0.0600 
    179 H179        3.7185  -12.8179  -42.1235 H         1 UNK         0.3000 
    180 H180        4.8137  -10.9258  -44.1202 H         1 UNK         0.0600 
    181 H181        4.4400  -13.9616  -44.3442 H         1 UNK         0.0600 
    182 H182        5.3851  -13.1069  -43.1243 H         1 UNK         0.0600 
    183 H183        5.9078  -13.1036  -44.7950 H         1 UNK         0.0600 
    184 H184        3.3540  -12.5023  -46.1942 H         1 UNK         0.3000 
    185 H185        3.2049   -9.8094  -48.3855 H         1 UNK         0.0600 
    186 H186        5.5618  -10.3704  -48.9830 H         1 UNK         0.0600 
    187 H187        5.2122  -12.0874  -48.8248 H         1 UNK         0.0600 
    188 H188        4.4364  -11.1362  -50.0924 H         1 UNK         0.0600 
    189 H189        2.8426  -12.6790  -48.6549 H         1 UNK         0.3000 
    190 H190       -1.6946  -21.2557  -46.7998 H         1 UNK         0.3000 
    191 H191       -3.1474  -22.5649  -48.7940 H         1 UNK         0.0600 
    192 H192       -4.0038  -20.7789  -47.1036 H         1 UNK         0.0600 
    193 H193       -5.1016  -22.1060  -47.4432 H         1 UNK         0.0600 
    194 H194       -4.1864  -22.0774  -45.9487 H         1 UNK         0.0600 
    195 H195       -2.3739  -23.7236  -45.4835 H         1 UNK         0.3000 
    196 H196       -3.6667  -26.2410  -45.6816 H         1 UNK         0.0600 
    197 H197       -2.3283  -26.7798  -43.6408 H         1 UNK         0.0600 
    198 H198       -3.0619  -25.1867  -43.5238 H         1 UNK         0.0600 
    199 H199       -1.3463  -25.3410  -43.8918 H         1 UNK         0.0600 
    200 H200       -0.2589  -25.2992  -46.3176 H         1 UNK         0.3000 
    201 H201        0.7128  -27.9128  -46.8650 H         1 UNK         0.0600 
    202 H202        2.1944  -26.0330  -46.2576 H         1 UNK         0.0600 
    203 H203        1.7676  -25.1704  -47.7338 H         1 UNK         0.0600 
    204 H204        2.6707  -26.6788  -47.8206 H         1 UNK         0.0600 
    205 H205       -0.4813  -25.3310  -49.0771 H         1 UNK         0.3000 
    206 H206       -0.0204  -26.8902  -51.4722 H         1 UNK         0.0600 
    207 H207        0.0761  -24.3969  -51.4156 H         1 UNK         0.0600 
    208 H208       -1.1239  -24.9599  -52.5715 H         1 UNK         0.0600 
    209 H209       -1.6401  -24.3309  -51.0131 H         1 UNK         0.0600 
    210 H210       -2.6507  -26.6307  -49.2241 H         1 UNK         0.3000 
    211 H211       -4.7133  -27.3860  -49.0294 H         1 UNK         0.0600 
    212 H212       -4.3143  -29.1638  -51.4947 H         1 UNK         0.0600 
    213 H213       -5.5975  -29.2836  -50.3034 H         1 UNK         0.0600 
    214 H214       -3.9394  -29.6282  -49.8354 H         1 UNK         0.0600 
    215 H215       -4.4000  -25.0191  -49.8258 H         1 UNK         0.3000 
    216 H216       -5.1947  -23.1763  -50.7351 H         1 UNK         0.0600 
    217 H217       -7.4979  -23.0586  -51.5713 H         1 UNK         0.0600 
    218 H218       -7.4654  -24.2066  -50.2514 H         1 UNK         0.0600 
    219 H219       -7.5274  -24.7788  -51.9166 H         1 UNK         0.0600 
    220 H220       -6.3783  -22.4840  -53.1693 H         1 UNK         0.3000 
    221 H221       -5.9940  -21.9567  -55.2549 H         1 UNK         0.0600 
    222 H222       -4.9126  -24.7918  -55.6100 H         1 UNK         0.0600 
    223 H223       -6.6189  -24.3481  -55.5996 H         1 UNK         0.0600 
    224 H224       -5.5639  -23.7517  -56.8680 H         1 UNK         0.0600 
    225 H225       -3.5163  -21.8112  -53.2997 H         1 UNK         0.3000 
    226 H226       -1.2310  -21.9250  -55.0566 H         1 UNK         0.0600 
    227 H227       -1.0301  -22.3998  -52.6510 H         1 UNK         0.0600 
    228 H228       -0.0359  -21.0077  -53.0488 H         1 UNK         0.0600 
    229 H229       -1.5840  -20.7807  -52.2478 H         1 UNK         0.0600 
    230 H230       -3.3614  -19.3118  -53.9540 H         1 UNK         0.3000 
    231 H231       -2.4760  -17.4655  -55.9686 H         1 UNK         0.0600 
    232 H232       -1.6247  -16.9281  -53.0709 H         1 UNK         0.0600 
    233 H233       -1.6517  -15.6915  -54.3323 H         1 UNK         0.0600 
    234 H234       -0.5705  -17.0612  -54.4656 H         1 UNK         0.0600 
    235 H235       -3.4828  -15.9063  -53.1002 H         1 UNK         0.3000 
    236 H236       -5.9884  -15.1038  -54.1096 H         1 UNK         0.0600 
    237 H237       -4.6788  -13.8110  -52.4373 H         1 UNK         0.0600 
    238 H238       -6.2960  -14.1290  -51.8326 H         1 UNK         0.0600 
    239 H239       -4.9383  -15.0669  -51.2267 H         1 UNK         0.0600 
    240 H240       -5.1287  -17.8943  -52.2013 H         1 UNK         0.3000 
    241 H241       -7.8348  -18.7716  -51.6201 H         1 UNK         0.0600 
    242 H242       -6.3621  -18.6181  -54.6771 H         1 UNK         0.3800 
    243 H243       -7.1973  -19.9989  -55.3310 H         1 UNK         0.3800 
    244 H244       -6.3170  -19.4847  -50.0034 H         1 UNK         0.0800 
    245 H245       -6.5967  -20.9227  -50.9053 H         1 UNK         0.0800 
    246 H246       -3.4102  -20.1331  -49.0913 H         1 UNK         0.0800 
    247 H247       -4.4029  -18.7147  -49.2869 H         1 UNK         0.0800 
@<TRIPOS>BOND
     1    1    2 1    
     2    1  127 1    
     3    1  128 1    
     4    1  129 1    
     5    2    3 2    
     6    2    4 am   BACKBONE|DICT|INTERRES
     7    4    5 1    
     8    4  130 1    
     9    5    6 1    
    10    5   65 1    
    11    5  131 1    
    12    6    7 1    
    13    6  132 1    
    14    6  133 1    
    15    7    8 1    
    16    8    9 1    
    17    8  134 1    
    18    8  135 1    
    19    9   10 ar   
    20    9   14 ar   
    21   10   11 ar   
    22   10  136 1    
    23   11   12 ar   
    24   11  126 1    
    25   12   13 ar   
    26   12  137 1    
    27   13   14 ar   
    28   13   15 1    
    29   14  138 1    
    30   15   16 1    
    31   15  139 1    
    32   15  140 1    
    33   16   17 1    
    34   17   18 1    
    35   17  141 1    
    36   17  142 1    
    37   18   19 1    
    38   18   67 1    
    39   18  143 1    
    40   19   20 am   BACKBONE|DICT|INTERRES
    41   19  144 1    
    42   20   21 2    
    43   20   22 1    
    44   22   23 1    
    45   22   24 1    
    46   22  145 1    
    47   23  146 1    
    48   23  147 1    
    49   23  148 1    
    50   24   25 am   BACKBONE|DICT|INTERRES
    51   24  149 1    
    52   25   26 2    
    53   25   27 1    
    54   27   28 1    
    55   27   29 1    
    56   27  150 1    
    57   28  151 1    
    58   28  152 1    
    59   28  153 1    
    60   29   30 am   BACKBONE|DICT|INTERRES
    61   29  154 1    
    62   30   31 2    
    63   30   32 1    
    64   32   33 1    
    65   32   34 1    
    66   32  155 1    
    67   33  156 1    
    68   33  157 1    
    69   33  158 1    
    70   34   35 am   BACKBONE|DICT|INTERRES
    71   34  159 1    
    72   35   36 2    
    73   35   37 1    
    74   37   38 1    
    75   37   39 1    
    76   37  160 1    
    77   38  161 1    
    78   38  162 1    
    79   38  163 1    
    80   39   40 am   BACKBONE|DICT|INTERRES
    81   39  164 1    
    82   40   41 2    
    83   40   42 1    
    84   42   43 1    
    85   42   44 1    
    86   42  165 1    
    87   43  166 1    
    88   43  167 1    
    89   43  168 1    
    90   44   45 am   BACKBONE|DICT|INTERRES
    91   44  169 1    
    92   45   46 2    
    93   45   47 1    
    94   47   48 1    
    95   47   49 1    
    96   47  170 1    
    97   48  171 1    
    98   48  172 1    
    99   48  173 1    
   100   49   50 am   BACKBONE|DICT|INTERRES
   101   49  174 1    
   102   50   51 2    
   103   50   52 1    
   104   52   53 1    
   105   52   54 1    
   106   52  175 1    
   107   53  176 1    
   108   53  177 1    
   109   53  178 1    
   110   54   55 am   BACKBONE|DICT|INTERRES
   111   54  179 1    
   112   55   56 2    
   113   55   57 1    
   114   57   58 1    
   115   57   59 1    
   116   57  180 1    
   117   58  181 1    
   118   58  182 1    
   119   58  183 1    
   120   59   60 am   BACKBONE|DICT|INTERRES
   121   59  184 1    
   122   60   61 2    
   123   60   62 1    
   124   62   63 1    
   125   62   64 1    
   126   62  185 1    
   127   63  186 1    
   128   63  187 1    
   129   63  188 1    
   130   64   65 am   BACKBONE|DICT|INTERRES
   131   64  189 1    
   132   65   66 2    
   133   67   68 2    
   134   67   69 am   BACKBONE|DICT|INTERRES
   135   69   70 1    
   136   69  190 1    
   137   70   71 1    
   138   70   72 1    
   139   70  191 1    
   140   71  192 1    
   141   71  193 1    
   142   71  194 1    
   143   72   73 2    
   144   72   74 am   BACKBONE|DICT|INTERRES
   145   74   75 1    
   146   74  195 1    
   147   75   76 1    
   148   75   77 1    
   149   75  196 1    
   150   76  197 1    
   151   76  198 1    
   152   76  199 1    
   153   77   78 2    
   154   77   79 am   BACKBONE|DICT|INTERRES
   155   79   80 1    
   156   79  200 1    
   157   80   81 1    
   158   80   82 1    
   159   80  201 1    
   160   81  202 1    
   161   81  203 1    
   162   81  204 1    
   163   82   83 2    
   164   82   84 am   BACKBONE|DICT|INTERRES
   165   84   85 1    
   166   84  205 1    
   167   85   86 1    
   168   85   87 1    
   169   85  206 1    
   170   86  207 1    
   171   86  208 1    
   172   86  209 1    
   173   87   88 2    
   174   87   89 am   BACKBONE|DICT|INTERRES
   175   89   90 1    
   176   89  210 1    
   177   90   91 1    
   178   90   92 1    
   179   90  211 1    
   180   91  212 1    
   181   91  213 1    
   182   91  214 1    
   183   92   93 2    
   184   92   94 am   BACKBONE|DICT|INTERRES
   185   94   95 1    
   186   94  215 1    
   187   95   96 1    
   188   95   97 1    
   189   95  216 1    
   190   96  217 1    
   191   96  218 1    
   192   96  219 1    
   193   97   98 2    
   194   97   99 am   BACKBONE|DICT|INTERRES
   195   99  100 1    
   196   99  220 1    
   197  100  101 1    
   198  100  102 1    
   199  100  221 1    
   200  101  222 1    
   201  101  223 1    
   202  101  224 1    
   203  102  103 2    
   204  102  104 am   BACKBONE|DICT|INTERRES
   205  104  105 1    
   206  104  225 1    
   207  105  106 1    
   208  105  107 1    
   209  105  226 1    
   210  106  227 1    
   211  106  228 1    
   212  106  229 1    
   213  107  108 2    
   214  107  109 am   BACKBONE|DICT|INTERRES
   215  109  110 1    
   216  109  230 1    
   217  110  111 1    
   218  110  112 1    
   219  110  231 1    
   220  111  232 1    
   221  111  233 1    
   222  111  234 1    
   223  112  113 2    
   224  112  114 am   BACKBONE|DICT|INTERRES
   225  114  115 1    
   226  114  235 1    
   227  115  116 1    
   228  115  117 1    
   229  115  236 1    
   230  116  237 1    
   231  116  238 1    
   232  116  239 1    
   233  117  118 2    
   234  117  119 am   BACKBONE|DICT|INTERRES
   235  119  120 1    
   236  119  240 1    
   237  120  121 1    
   238  120  124 1    
   239  120  241 1    
   240  121  122 am   BACKBONE|DICT|INTERRES
   241  121  123 2    
   242  122  242 1    
   243  122  243 1    
   244  124  125 1    
   245  124  244 1    
   246  124  245 1    
   247  125  126 1    
   248  126  246 1    
   249  126  247 1    
@<TRIPOS>SUBSTRUCTURE
     1 UNK         1 GROUP             0       ****    0 ROOT    
