@<TRIPOS>MOLECULE
3R540
247   249    1
SMALL
USER_CHARGES


@<TRIPOS>ATOM
      1 CA          5.9720  -10.2210  -49.8011 C.3       0 UNK        -0.1800 
      2 C           5.3757  -11.6207  -49.8187 C.2       0 UNK         0.5000 
      3 O           4.6062  -11.9480  -50.7224 O.2       0 UNK        -0.5000 
      4 N           5.7118  -12.4418  -48.8141 N.am      1 UNK        -0.5000 
      5 CA          5.2697  -13.8281  -48.5958 C.3       1 UNK         0.1400 
      6 C6          5.5784  -14.7731  -49.7871 C.3       23 UNK        -0.0398 
      7 S7          5.9493  -16.4775  -49.2532 S.3       23 UNK        -0.2404 
      8 C8          5.3021  -17.4438  -50.6524 C.3       23 UNK        -0.0205 
      9 C9          3.9442  -18.0545  -50.3422 C.ar      23 UNK        -0.0193 
     10 C10         2.7818  -17.2805  -50.4071 C.ar      23 UNK        -0.1150 
     11 C11         1.5310  -17.8559  -50.1615 C.ar      23 UNK        -0.0193 
     12 C12         1.4488  -19.2148  -49.8419 C.ar      23 UNK        -0.1150 
     13 C13         2.6048  -19.9995  -49.7780 C.ar      23 UNK        -0.0193 
     14 C14         3.8480  -19.4118  -50.0230 C.ar      23 UNK        -0.1150 
     15 C15         2.5136  -21.4933  -49.5035 C.3       23 UNK        -0.0205 
     16 S16         2.9770  -21.9417  -47.7965 S.3       23 UNK        -0.2404 
     17 C17         1.6193  -21.2327  -46.8024 C.3       23 UNK        -0.0398 
     18 CA          0.4658  -22.2296  -46.5234 C.3       11 UNK         0.1400 
     19 N          -0.3874  -21.7916  -45.4162 N.am      11 UNK        -0.5000 
     20 C          -1.3781  -22.5170  -44.8744 C.2       10 UNK         0.5000 
     21 O          -1.6203  -23.6845  -45.1793 O.2       10 UNK        -0.5000 
     22 CA         -2.2782  -21.8060  -43.8471 C.3       10 UNK         0.1400 
     23 CB         -1.6358  -21.8271  -42.4524 C.3       10 UNK        -0.1800 
     24 N          -2.5916  -20.4265  -44.2247 N.am      10 UNK        -0.5000 
     25 C          -3.2856  -20.0759  -45.3179 C.2       9 UNK         0.5000 
     26 O          -3.7777  -20.8799  -46.1098 O.2       9 UNK        -0.5000 
     27 CA         -3.4002  -18.5692  -45.6068 C.3       9 UNK         0.1400 
     28 CB         -4.4506  -17.9108  -44.7000 C.3       9 UNK        -0.1800 
     29 N          -2.1219  -17.8754  -45.4586 N.am      9 UNK        -0.5000 
     30 C          -1.0228  -18.1205  -46.1847 C.2       8 UNK         0.5000 
     31 O          -0.9850  -18.9139  -47.1231 O.2       8 UNK        -0.5000 
     32 CA          0.2630  -17.3952  -45.7576 C.3       8 UNK         0.1400 
     33 CB          0.3059  -15.9801  -46.3465 C.3       8 UNK        -0.1800 
     34 N           0.4025  -17.3461  -44.3009 N.am      8 UNK        -0.5000 
     35 C           0.6529  -18.4207  -43.5383 C.2       7 UNK         0.5000 
     36 O           0.8514  -19.5454  -43.9955 O.2       7 UNK        -0.5000 
     37 CA          0.6242  -18.2249  -42.0118 C.3       7 UNK         0.1400 
     38 CB          2.0048  -17.8304  -41.4733 C.3       7 UNK        -0.1800 
     39 N          -0.3673  -17.2322  -41.6002 N.am      7 UNK        -0.5000 
     40 C          -1.6883  -17.4587  -41.6152 C.2       6 UNK         0.5000 
     41 O          -2.1900  -18.5346  -41.9416 O.2       6 UNK        -0.5000 
     42 CA         -2.6034  -16.2723  -41.2581 C.3       6 UNK         0.1400 
     43 CB         -2.8195  -16.1947  -39.7398 C.3       6 UNK        -0.1800 
     44 N          -2.0990  -14.9852  -41.7422 N.am      6 UNK        -0.5000 
     45 C          -1.8793  -14.6841  -43.0292 C.2       5 UNK         0.5000 
     46 O          -2.0933  -15.4689  -43.9517 O.2       5 UNK        -0.5000 
     47 CA         -1.3069  -13.2919  -43.3519 C.3       5 UNK         0.1400 
     48 CB         -1.5551  -12.2460  -42.2427 C.3       5 UNK        -0.1800 
     49 N           0.1169  -13.3313  -43.6989 N.am      5 UNK        -0.5000 
     50 C           1.1361  -13.7763  -42.9441 C.2       4 UNK         0.5000 
     51 O           0.9826  -14.3970  -41.8909 O.2       4 UNK        -0.5000 
     52 CA          2.5735  -13.4645  -43.4248 C.3       4 UNK         0.1400 
     53 CB          3.3530  -14.7480  -43.7485 C.3       4 UNK        -0.1800 
     54 N           2.6264  -12.5707  -44.5846 N.am      4 UNK        -0.5000 
     55 C           2.3548  -11.2558  -44.5554 C.2       3 UNK         0.5000 
     56 O           2.1146  -10.6385  -43.5175 O.2       3 UNK        -0.5000 
     57 CA          2.3137  -10.5000  -45.9019 C.3       3 UNK         0.1400 
     58 CB          3.5508   -9.6005  -46.0515 C.3       3 UNK        -0.1800 
     59 N           2.2276  -11.3656  -47.0795 N.am      3 UNK        -0.5000 
     60 C           1.2390  -12.2228  -47.3730 C.2       2 UNK         0.5000 
     61 O           0.2208  -12.3505  -46.6921 O.2       2 UNK        -0.5000 
     62 CA          1.4672  -13.1351  -48.5965 C.3       2 UNK         0.1400 
     63 CB          0.7350  -12.5896  -49.8301 C.3       2 UNK        -0.1800 
     64 N           2.8850  -13.3199  -48.9228 N.am      2 UNK        -0.5000 
     65 C           3.7984  -13.9063  -48.1357 C.2       1 UNK         0.5000 
     66 O           3.5264  -14.4106  -47.0466 O.2       1 UNK        -0.5000 
     67 C          -0.3702  -22.4873  -47.7904 C.2       11 UNK         0.5000 
     68 O          -0.2758  -23.5672  -48.3735 O.2       11 UNK        -0.5000 
     69 N          -1.1873  -21.5009  -48.1849 N.am      12 UNK        -0.5000 
     70 CA         -2.0423  -21.5478  -49.3684 C.3       12 UNK         0.1400 
     71 CB         -2.7784  -20.2134  -49.5332 C.3       12 UNK        -0.1800 
     72 C          -3.0332  -22.7210  -49.3493 C.2       12 UNK         0.5000 
     73 O          -3.1260  -23.4387  -50.3424 O.2       12 UNK        -0.5000 
     74 N          -3.6792  -22.9372  -48.1966 N.am      13 UNK        -0.5000 
     75 CA         -4.6144  -24.0354  -47.9474 C.3       13 UNK         0.1400 
     76 CB         -5.3794  -23.7391  -46.6473 C.3       13 UNK        -0.1800 
     77 C          -3.9727  -25.4383  -47.9004 C.2       13 UNK         0.5000 
     78 O          -4.7104  -26.4236  -47.8371 O.2       13 UNK        -0.5000 
     79 N          -2.6362  -25.5163  -47.9162 N.am      14 UNK        -0.5000 
     80 CA         -1.8781  -26.7599  -47.9859 C.3       14 UNK         0.1400 
     81 CB         -0.8092  -26.7622  -46.8804 C.3       14 UNK        -0.1800 
     82 C          -1.2329  -26.9394  -49.3699 C.2       14 UNK         0.5000 
     83 O          -1.3662  -28.0118  -49.9613 O.2       14 UNK        -0.5000 
     84 N          -0.5120  -25.9137  -49.8424 N.am      15 UNK        -0.5000 
     85 CA          0.3986  -26.0131  -50.9821 C.3       15 UNK         0.1400 
     86 CB          1.7147  -25.3091  -50.6134 C.3       15 UNK        -0.1800 
     87 C          -0.1568  -25.4225  -52.2879 C.2       15 UNK         0.5000 
     88 O           0.1974  -25.9257  -53.3555 O.2       15 UNK        -0.5000 
     89 N          -0.9692  -24.3594  -52.2090 N.am      16 UNK        -0.5000 
     90 CA         -1.4407  -23.6262  -53.3895 C.3       16 UNK         0.1400 
     91 CB         -1.5394  -22.1234  -53.0754 C.3       16 UNK        -0.1800 
     92 C          -2.7857  -24.1624  -53.9022 C.2       16 UNK         0.5000 
     93 O          -2.9727  -24.2736  -55.1147 O.2       16 UNK        -0.5000 
     94 N          -3.6944  -24.4817  -52.9770 N.am      17 UNK        -0.5000 
     95 CA         -5.0480  -24.9570  -53.2368 C.3       17 UNK         0.1400 
     96 CB         -5.9466  -23.7638  -53.6266 C.3       17 UNK        -0.1800 
     97 C          -5.5717  -25.6959  -51.9941 C.2       17 UNK         0.5000 
     98 O          -4.8250  -25.9074  -51.0384 O.2       17 UNK        -0.5000 
     99 N          -6.8549  -26.0736  -52.0216 N.am      18 UNK        -0.5000 
    100 CA        -7.5663  -26.6803  -50.8922 C.3       18 UNK         0.1400 
    101 CB        -8.7062  -27.5504  -51.4475 C.3       18 UNK        -0.1800 
    102 C         -8.1158  -25.6375  -49.8933 C.2       18 UNK         0.5000 
    103 O         -8.6639  -26.0246  -48.8603 O.2       18 UNK        -0.5000 
    104 N         -7.9894  -24.3459  -50.2197 N.am      19 UNK        -0.5000 
    105 CA        -8.4571  -23.2102  -49.4325 C.3       19 UNK         0.1400 
    106 CB        -9.7963  -22.7207  -50.0095 C.3       19 UNK        -0.1800 
    107 C         -7.3992  -22.0967  -49.4589 C.2       19 UNK         0.5000 
    108 O         -6.4779  -22.1395  -50.2775 O.2       19 UNK        -0.5000 
    109 N         -7.5502  -21.1315  -48.5450 N.am      20 UNK        -0.5000 
    110 CA        -6.6612  -19.9833  -48.3655 C.3       20 UNK         0.1400 
    111 CB        -7.0819  -19.2462  -47.0839 C.3       20 UNK        -0.1800 
    112 C         -6.6359  -19.0138  -49.5675 C.2       20 UNK         0.5000 
    113 O         -7.5339  -19.0504  -50.4117 O.2       20 UNK        -0.5000 
    114 N         -5.6186  -18.1384  -49.5664 N.am      21 UNK        -0.5000 
    115 CA        -5.2394  -17.1608  -50.5924 C.3       21 UNK         0.1400 
    116 CB        -6.4067  -16.2431  -51.0095 C.3       21 UNK        -0.1800 
    117 C         -4.5683  -17.8496  -51.7945 C.2       21 UNK         0.5000 
    118 O         -5.2326  -18.5273  -52.5794 O.2       21 UNK        -0.5000 
    119 N         -3.2456  -17.6736  -51.8967 N.am      22 UNK        -0.5000 
    120 CA        -2.3880  -18.2530  -52.9448 C.3       22 UNK         0.1400 
    121 C         -2.5343  -17.6155  -54.3599 C.2       22 UNK         0.5000 
    122 N         -3.2266  -16.4942  -54.5205 N.am      22 UNK        -0.7600 
    123 O         -2.0200  -18.1589  -55.3335 O.2       22 UNK        -0.5000 
    124 C124       -0.9037  -18.3207  -52.4926 C.3       23 UNK        -0.0398 
    125 S125       -0.2165  -16.7025  -51.9812 S.3       23 UNK        -0.2404 
    126 C126        0.2729  -17.0057  -50.2531 C.3       23 UNK        -0.0205 
    127 H127        6.6283  -10.0697  -48.9438 H         1 UNK         0.0600 
    128 H128        5.1776   -9.4760  -49.7566 H         1 UNK         0.0600 
    129 H129        6.5517  -10.0493  -50.7080 H         1 UNK         0.0600 
    130 H130        6.3384  -12.0904  -48.1029 H         1 UNK         0.3000 
    131 H131        5.8702  -14.1598  -47.7468 H         1 UNK         0.0600 
    132 H132        4.7716  -14.7628  -50.5214 H         1 UNK         0.0800 
    133 H133        6.4627  -14.4215  -50.3205 H         1 UNK         0.0800 
    134 H134        6.0211  -18.2311  -50.8843 H         1 UNK         0.0800 
    135 H135        5.2388  -16.8295  -51.5517 H         1 UNK         0.0800 
    136 H136        2.8459  -16.2324  -50.6624 H         1 UNK         0.1150 
    137 H137        0.4841  -19.6641  -49.6554 H         1 UNK         0.1150 
    138 H138        4.7411  -20.0196  -49.9807 H         1 UNK         0.1150 
    139 H139        1.5156  -21.8616  -49.7372 H         1 UNK         0.0800 
    140 H140        3.1831  -22.0184  -50.1864 H         1 UNK         0.0800 
    141 H141        1.2592  -20.3097  -47.2553 H         1 UNK         0.0800 
    142 H142        2.0705  -20.9335  -45.8562 H         1 UNK         0.0800 
    143 H143        0.9064  -23.1821  -46.2209 H         1 UNK         0.0600 
    144 H144       -0.2120  -20.8605  -45.0529 H         1 UNK         0.3000 
    145 H145       -3.2199  -22.3566  -43.7958 H         1 UNK         0.0600 
    146 H146       -2.2976  -21.3863  -41.7067 H         1 UNK         0.0600 
    147 H147       -0.6958  -21.2755  -42.4335 H         1 UNK         0.0600 
    148 H148       -1.4235  -22.8490  -42.1360 H         1 UNK         0.0600 
    149 H149       -2.2675  -19.6987  -43.5961 H         1 UNK         0.3000 
    150 H150       -3.7239  -18.4542  -46.6426 H         1 UNK         0.0600 
    151 H151       -5.4066  -18.4309  -44.7581 H         1 UNK         0.0600 
    152 H152       -4.6226  -16.8732  -44.9867 H         1 UNK         0.0600 
    153 H153       -4.1441  -17.9200  -43.6549 H         1 UNK         0.0600 
    154 H154       -2.0794  -17.1425  -44.7544 H         1 UNK         0.3000 
    155 H155        1.1096  -17.9524  -46.1648 H         1 UNK         0.0600 
    156 H156       -0.4904  -15.3438  -45.9630 H         1 UNK         0.0600 
    157 H157        0.1921  -16.0210  -47.4283 H         1 UNK         0.0600 
    158 H158        1.2550  -15.4905  -46.1382 H         1 UNK         0.0600 
    159 H159        0.1786  -16.4720  -43.8489 H         1 UNK         0.3000 
    160 H160        0.3584  -19.1849  -41.5644 H         1 UNK         0.0600 
    161 H161        2.2953  -16.8382  -41.8108 H         1 UNK         0.0600 
    162 H162        2.7720  -18.5322  -41.8032 H         1 UNK         0.0600 
    163 H163        2.0136  -17.8262  -40.3833 H         1 UNK         0.0600 
    164 H164       -0.0268  -16.3058  -41.3687 H         1 UNK         0.3000 
    165 H165       -3.5712  -16.4479  -41.7317 H         1 UNK         0.0600 
    166 H166       -3.5348  -15.4133  -39.4824 H         1 UNK         0.0600 
    167 H167       -3.2142  -17.1353  -39.3533 H         1 UNK         0.0600 
    168 H168       -1.8887  -15.9866  -39.2105 H         1 UNK         0.0600 
    169 H169       -1.8656  -14.2961  -41.0423 H         1 UNK         0.3000 
    170 H170       -1.8298  -12.9503  -44.2465 H         1 UNK         0.0600 
    171 H171       -2.6145  -12.1827  -41.9907 H         1 UNK         0.0600 
    172 H172       -1.0068  -12.4716  -41.3275 H         1 UNK         0.0600 
    173 H173       -1.2446  -11.2542  -42.5719 H         1 UNK         0.0600 
    174 H174        0.3455  -12.9028  -44.5884 H         1 UNK         0.3000 
    175 H175        3.0850  -12.9664  -42.5986 H         1 UNK         0.0600 
    176 H176        2.8091  -15.3974  -44.4337 H         1 UNK         0.0600 
    177 H177        4.3195  -14.5226  -44.1998 H         1 UNK         0.0600 
    178 H178        3.5553  -15.3153  -42.8416 H         1 UNK         0.0600 
    179 H179        2.8267  -13.0098  -45.4752 H         1 UNK         0.3000 
    180 H180        1.4244   -9.8668  -45.8899 H         1 UNK         0.0600 
    181 H181        3.4951   -8.9987  -46.9589 H         1 UNK         0.0600 
    182 H182        4.4705  -10.1856  -46.0918 H         1 UNK         0.0600 
    183 H183        3.6376   -8.9099  -45.2115 H         1 UNK         0.0600 
    184 H184        3.0211  -11.3459  -47.7018 H         1 UNK         0.3000 
    185 H185        1.0502  -14.1123  -48.3589 H         1 UNK         0.0600 
    186 H186       -0.3286  -12.4573  -49.6272 H         1 UNK         0.0600 
    187 H187        1.1348  -11.6232  -50.1402 H         1 UNK         0.0600 
    188 H188        0.8208  -13.2754  -50.6734 H         1 UNK         0.0600 
    189 H189        3.2227  -12.8767  -49.7733 H         1 UNK         0.3000 
    190 H190       -1.1935  -20.6269  -47.6618 H         1 UNK         0.3000 
    191 H191       -1.3843  -21.6816  -50.2277 H         1 UNK         0.0600 
    192 H192       -2.0804  -19.3924  -49.6870 H         1 UNK         0.0600 
    193 H193       -3.3736  -19.9763  -48.6533 H         1 UNK         0.0600 
    194 H194       -3.4497  -20.2447  -50.3920 H         1 UNK         0.0600 
    195 H195       -3.5379  -22.2851  -47.4295 H         1 UNK         0.3000 
    196 H196       -5.3293  -24.0576  -48.7703 H         1 UNK         0.0600 
    197 H197       -5.8885  -22.7767  -46.6975 H         1 UNK         0.0600 
    198 H198       -4.7079  -23.7164  -45.7879 H         1 UNK         0.0600 
    199 H199       -6.1388  -24.4981  -46.4552 H         1 UNK         0.0600 
    200 H200       -2.1010  -24.6587  -47.9618 H         1 UNK         0.3000 
    201 H201       -2.5299  -27.6189  -47.8143 H         1 UNK         0.0600 
    202 H202       -1.2680  -26.7012  -45.8934 H         1 UNK         0.0600 
    203 H203       -0.1201  -25.9224  -46.9759 H         1 UNK         0.0600 
    204 H204       -0.2181  -27.6784  -46.9097 H         1 UNK         0.0600 
    205 H205       -0.4467  -25.0593  -49.2907 H         1 UNK         0.3000 
    206 H206        0.6362  -27.0613  -51.1767 H         1 UNK         0.0600 
    207 H207        1.5598  -24.2494  -50.4103 H         1 UNK         0.0600 
    208 H208        2.1661  -25.7555  -49.7272 H         1 UNK         0.0600 
    209 H209        2.4420  -25.3859  -51.4226 H         1 UNK         0.0600 
    210 H210       -1.3151  -24.0564  -51.3075 H         1 UNK         0.3000 
    211 H211       -0.7129  -23.7321  -54.1972 H         1 UNK         0.0600 
    212 H212       -2.3509  -21.9025  -52.3829 H         1 UNK         0.0600 
    213 H213       -1.7340  -21.5549  -53.9856 H         1 UNK         0.0600 
    214 H214       -0.6110  -21.7432  -52.6489 H         1 UNK         0.0600 
    215 H215       -3.4689  -24.3716  -51.9892 H         1 UNK         0.3000 
    216 H216       -5.0223  -25.6770  -54.0570 H         1 UNK         0.0600 
    217 H217       -6.9614  -24.0812  -53.8667 H         1 UNK         0.0600 
    218 H218       -5.5628  -23.2496  -54.5078 H         1 UNK         0.0600 
    219 H219       -6.0087  -23.0322  -52.8203 H         1 UNK         0.0600 
    220 H220       -7.4066  -25.8830  -52.8459 H         1 UNK         0.3000 
    221 H221       -6.8826  -27.3290  -50.3402 H         1 UNK         0.0600 
    222 H222       -9.4366  -26.9548  -51.9963 H         1 UNK         0.0600 
    223 H223       -8.3241  -28.3184  -52.1203 H         1 UNK         0.0600 
    224 H224       -9.2373  -28.0618  -50.6436 H         1 UNK         0.0600 
    225 H225       -7.4491  -24.0980  -51.0369 H         1 UNK         0.3000 
    226 H226       -8.5978  -23.5087  -48.3914 H         1 UNK         0.0600 
    227 H227      -10.5474  -23.5105  -49.9853 H         1 UNK         0.0600 
    228 H228      -10.1912  -21.8810  -49.4366 H         1 UNK         0.0600 
    229 H229       -9.6899  -22.3915  -51.0440 H         1 UNK         0.0600 
    230 H230       -8.3560  -21.1620  -47.9383 H         1 UNK         0.3000 
    231 H231       -5.6517  -20.3738  -48.2260 H         1 UNK         0.0600 
    232 H232       -6.4623  -18.3669  -46.9083 H         1 UNK         0.0600 
    233 H233       -6.9838  -19.8910  -46.2101 H         1 UNK         0.0600 
    234 H234       -8.1169  -18.9065  -47.1384 H         1 UNK         0.0600 
    235 H235       -4.9652  -18.1980  -48.8002 H         1 UNK         0.3000 
    236 H236       -4.4971  -16.5180  -50.1160 H         1 UNK         0.0600 
    237 H237       -7.1680  -16.7748  -51.5805 H         1 UNK         0.0600 
    238 H238       -6.8886  -15.7962  -50.1400 H         1 UNK         0.0600 
    239 H239       -6.0478  -15.4277  -51.6383 H         1 UNK         0.0600 
    240 H240       -2.7706  -17.0761  -51.2363 H         1 UNK         0.3000 
    241 H241       -2.7164  -19.2860  -53.0743 H         1 UNK         0.0600 
    242 H242       -3.3186  -16.0957  -55.4418 H         1 UNK         0.3800 
    243 H243       -3.6520  -16.0362  -53.7314 H         1 UNK         0.3800 
    244 H244       -0.2735  -18.7290  -53.2846 H         1 UNK         0.0800 
    245 H245       -0.8142  -19.0278  -51.6692 H         1 UNK         0.0800 
    246 H246       -0.5502  -17.4621  -49.7015 H         1 UNK         0.0800 
    247 H247        0.4606  -16.0419  -49.7800 H         1 UNK         0.0800 
@<TRIPOS>BOND
     1    1    2 1    
     2    1  127 1    
     3    1  128 1    
     4    1  129 1    
     5    2    3 2    
     6    2    4 am   BACKBONE|DICT|INTERRES
     7    4    5 1    
     8    4  130 1    
     9    5    6 1    
    10    5   65 1    
    11    5  131 1    
    12    6    7 1    
    13    6  132 1    
    14    6  133 1    
    15    7    8 1    
    16    8    9 1    
    17    8  134 1    
    18    8  135 1    
    19    9   10 ar   
    20    9   14 ar   
    21   10   11 ar   
    22   10  136 1    
    23   11   12 ar   
    24   11  126 1    
    25   12   13 ar   
    26   12  137 1    
    27   13   14 ar   
    28   13   15 1    
    29   14  138 1    
    30   15   16 1    
    31   15  139 1    
    32   15  140 1    
    33   16   17 1    
    34   17   18 1    
    35   17  141 1    
    36   17  142 1    
    37   18   19 1    
    38   18   67 1    
    39   18  143 1    
    40   19   20 am   BACKBONE|DICT|INTERRES
    41   19  144 1    
    42   20   21 2    
    43   20   22 1    
    44   22   23 1    
    45   22   24 1    
    46   22  145 1    
    47   23  146 1    
    48   23  147 1    
    49   23  148 1    
    50   24   25 am   BACKBONE|DICT|INTERRES
    51   24  149 1    
    52   25   26 2    
    53   25   27 1    
    54   27   28 1    
    55   27   29 1    
    56   27  150 1    
    57   28  151 1    
    58   28  152 1    
    59   28  153 1    
    60   29   30 am   BACKBONE|DICT|INTERRES
    61   29  154 1    
    62   30   31 2    
    63   30   32 1    
    64   32   33 1    
    65   32   34 1    
    66   32  155 1    
    67   33  156 1    
    68   33  157 1    
    69   33  158 1    
    70   34   35 am   BACKBONE|DICT|INTERRES
    71   34  159 1    
    72   35   36 2    
    73   35   37 1    
    74   37   38 1    
    75   37   39 1    
    76   37  160 1    
    77   38  161 1    
    78   38  162 1    
    79   38  163 1    
    80   39   40 am   BACKBONE|DICT|INTERRES
    81   39  164 1    
    82   40   41 2    
    83   40   42 1    
    84   42   43 1    
    85   42   44 1    
    86   42  165 1    
    87   43  166 1    
    88   43  167 1    
    89   43  168 1    
    90   44   45 am   BACKBONE|DICT|INTERRES
    91   44  169 1    
    92   45   46 2    
    93   45   47 1    
    94   47   48 1    
    95   47   49 1    
    96   47  170 1    
    97   48  171 1    
    98   48  172 1    
    99   48  173 1    
   100   49   50 am   BACKBONE|DICT|INTERRES
   101   49  174 1    
   102   50   51 2    
   103   50   52 1    
   104   52   53 1    
   105   52   54 1    
   106   52  175 1    
   107   53  176 1    
   108   53  177 1    
   109   53  178 1    
   110   54   55 am   BACKBONE|DICT|INTERRES
   111   54  179 1    
   112   55   56 2    
   113   55   57 1    
   114   57   58 1    
   115   57   59 1    
   116   57  180 1    
   117   58  181 1    
   118   58  182 1    
   119   58  183 1    
   120   59   60 am   BACKBONE|DICT|INTERRES
   121   59  184 1    
   122   60   61 2    
   123   60   62 1    
   124   62   63 1    
   125   62   64 1    
   126   62  185 1    
   127   63  186 1    
   128   63  187 1    
   129   63  188 1    
   130   64   65 am   BACKBONE|DICT|INTERRES
   131   64  189 1    
   132   65   66 2    
   133   67   68 2    
   134   67   69 am   BACKBONE|DICT|INTERRES
   135   69   70 1    
   136   69  190 1    
   137   70   71 1    
   138   70   72 1    
   139   70  191 1    
   140   71  192 1    
   141   71  193 1    
   142   71  194 1    
   143   72   73 2    
   144   72   74 am   BACKBONE|DICT|INTERRES
   145   74   75 1    
   146   74  195 1    
   147   75   76 1    
   148   75   77 1    
   149   75  196 1    
   150   76  197 1    
   151   76  198 1    
   152   76  199 1    
   153   77   78 2    
   154   77   79 am   BACKBONE|DICT|INTERRES
   155   79   80 1    
   156   79  200 1    
   157   80   81 1    
   158   80   82 1    
   159   80  201 1    
   160   81  202 1    
   161   81  203 1    
   162   81  204 1    
   163   82   83 2    
   164   82   84 am   BACKBONE|DICT|INTERRES
   165   84   85 1    
   166   84  205 1    
   167   85   86 1    
   168   85   87 1    
   169   85  206 1    
   170   86  207 1    
   171   86  208 1    
   172   86  209 1    
   173   87   88 2    
   174   87   89 am   BACKBONE|DICT|INTERRES
   175   89   90 1    
   176   89  210 1    
   177   90   91 1    
   178   90   92 1    
   179   90  211 1    
   180   91  212 1    
   181   91  213 1    
   182   91  214 1    
   183   92   93 2    
   184   92   94 am   BACKBONE|DICT|INTERRES
   185   94   95 1    
   186   94  215 1    
   187   95   96 1    
   188   95   97 1    
   189   95  216 1    
   190   96  217 1    
   191   96  218 1    
   192   96  219 1    
   193   97   98 2    
   194   97   99 am   BACKBONE|DICT|INTERRES
   195   99  100 1    
   196   99  220 1    
   197  100  101 1    
   198  100  102 1    
   199  100  221 1    
   200  101  222 1    
   201  101  223 1    
   202  101  224 1    
   203  102  103 2    
   204  102  104 am   BACKBONE|DICT|INTERRES
   205  104  105 1    
   206  104  225 1    
   207  105  106 1    
   208  105  107 1    
   209  105  226 1    
   210  106  227 1    
   211  106  228 1    
   212  106  229 1    
   213  107  108 2    
   214  107  109 am   BACKBONE|DICT|INTERRES
   215  109  110 1    
   216  109  230 1    
   217  110  111 1    
   218  110  112 1    
   219  110  231 1    
   220  111  232 1    
   221  111  233 1    
   222  111  234 1    
   223  112  113 2    
   224  112  114 am   BACKBONE|DICT|INTERRES
   225  114  115 1    
   226  114  235 1    
   227  115  116 1    
   228  115  117 1    
   229  115  236 1    
   230  116  237 1    
   231  116  238 1    
   232  116  239 1    
   233  117  118 2    
   234  117  119 am   BACKBONE|DICT|INTERRES
   235  119  120 1    
   236  119  240 1    
   237  120  121 1    
   238  120  124 1    
   239  120  241 1    
   240  121  122 am   BACKBONE|DICT|INTERRES
   241  121  123 2    
   242  122  242 1    
   243  122  243 1    
   244  124  125 1    
   245  124  244 1    
   246  124  245 1    
   247  125  126 1    
   248  126  246 1    
   249  126  247 1    
@<TRIPOS>SUBSTRUCTURE
     1 UNK         1 GROUP             0       ****    0 ROOT    
