@<TRIPOS>MOLECULE
3R540
247   249    1
SMALL
USER_CHARGES


@<TRIPOS>ATOM
      1 CA         -1.6087  -15.1749  -48.3353 C.3       0 UNK        -0.1800 
      2 C          -0.8298  -13.8841  -48.1337 C.2       0 UNK         0.5000 
      3 O          -1.3998  -12.8909  -47.6810 O.2       0 UNK        -0.5000 
      4 N           0.4616  -13.8900  -48.4841 N.am      1 UNK        -0.5000 
      5 CA          1.3710  -12.7488  -48.3438 C.3       1 UNK         0.1400 
      6 C6          2.6927  -12.9633  -49.1198 C.3       23 UNK        -0.0398 
      7 S7          2.4282  -13.0252  -50.9240 S.3       23 UNK        -0.2404 
      8 C8          3.0982  -14.6614  -51.3552 C.3       23 UNK        -0.0205 
      9 C9          2.1851  -15.7947  -50.9136 C.ar      23 UNK        -0.0193 
     10 C10         1.0119  -16.0652  -51.6248 C.ar      23 UNK        -0.1150 
     11 C11         0.1799  -17.1241  -51.2506 C.ar      23 UNK        -0.0193 
     12 C12         0.5416  -17.9212  -50.1603 C.ar      23 UNK        -0.1150 
     13 C13         1.7016  -17.6529  -49.4312 C.ar      23 UNK        -0.0193 
     14 C14         2.5205  -16.5862  -49.8111 C.ar      23 UNK        -0.1150 
     15 C15         2.0797  -18.5311  -48.2496 C.3       23 UNK        -0.0205 
     16 S16         1.2941  -17.9886  -46.6974 S.3       23 UNK        -0.2404 
     17 C17        -0.4620  -18.4398  -46.9196 C.3       23 UNK        -0.0398 
     18 CA         -0.7082  -19.9659  -46.9112 C.3       11 UNK         0.1400 
     19 N          -0.2819  -20.5887  -45.6550 N.am      11 UNK        -0.5000 
     20 C          -0.2015  -21.9027  -45.4207 C.2       10 UNK         0.5000 
     21 O          -0.5061  -22.7527  -46.2574 O.2       10 UNK        -0.5000 
     22 CA          0.2312  -22.3464  -44.0094 C.3       10 UNK         0.1400 
     23 CB          1.7651  -22.3321  -43.8685 C.3       10 UNK        -0.1800 
     24 N          -0.4212  -21.6094  -42.9149 N.am      10 UNK        -0.5000 
     25 C          -0.2826  -20.3217  -42.5658 C.2       9 UNK         0.5000 
     26 O           0.4414  -19.5257  -43.1615 O.2       9 UNK        -0.5000 
     27 CA         -1.1161  -19.8139  -41.3753 C.3       9 UNK         0.1400 
     28 CB         -2.3998  -20.6316  -41.1018 C.3       9 UNK        -0.1800 
     29 N          -0.2897  -19.6752  -40.1743 N.am      9 UNK        -0.5000 
     30 C           0.3086  -20.6559  -39.4819 C.2       8 UNK         0.5000 
     31 O           0.1939  -21.8551  -39.7431 O.2       8 UNK        -0.5000 
     32 CA          1.1810  -20.1986  -38.2939 C.3       8 UNK         0.1400 
     33 CB          1.8701  -21.3684  -37.5597 C.3       8 UNK        -0.1800 
     34 N           2.1634  -19.1767  -38.6719 N.am      8 UNK        -0.5000 
     35 C           3.1498  -19.2819  -39.5746 C.2       7 UNK         0.5000 
     36 O           3.3594  -20.2895  -40.2519 O.2       7 UNK        -0.5000 
     37 CA          4.0508  -18.0383  -39.7313 C.3       7 UNK         0.1400 
     38 CB          5.2249  -18.2664  -40.7002 C.3       7 UNK        -0.1800 
     39 N           3.2896  -16.8692  -40.1734 N.am      7 UNK        -0.5000 
     40 C           2.5346  -16.0907  -39.3845 C.2       6 UNK         0.5000 
     41 O           2.3898  -16.2940  -38.1780 O.2       6 UNK        -0.5000 
     42 CA          1.8034  -14.9012  -40.0374 C.3       6 UNK         0.1400 
     43 CB          2.5458  -13.5871  -39.7523 C.3       6 UNK        -0.1800 
     44 N           1.6384  -15.0575  -41.4822 N.am      6 UNK        -0.5000 
     45 C           0.7533  -15.8812  -42.0599 C.2       5 UNK         0.5000 
     46 O          -0.0643  -16.5483  -41.4253 O.2       5 UNK        -0.5000 
     47 CA          0.7925  -15.9805  -43.5978 C.3       5 UNK         0.1400 
     48 CB         -0.3485  -15.1667  -44.2253 C.3       5 UNK        -0.1800 
     49 N           2.0665  -15.5490  -44.1808 N.am      5 UNK        -0.5000 
     50 C           3.2194  -16.2230  -44.0568 C.2       4 UNK         0.5000 
     51 O           3.3387  -17.2589  -43.4049 O.2       4 UNK        -0.5000 
     52 CA          4.4606  -15.5946  -44.7129 C.3       4 UNK         0.1400 
     53 CB          4.3982  -15.7020  -46.2455 C.3       4 UNK        -0.1800 
     54 N           4.6301  -14.1966  -44.3177 N.am      4 UNK        -0.5000 
     55 C           4.9063  -13.7738  -43.0767 C.2       3 UNK         0.5000 
     56 O           5.1057  -14.5370  -42.1321 O.2       3 UNK        -0.5000 
     57 CA          4.9154  -12.2518  -42.8210 C.3       3 UNK         0.1400 
     58 CB          6.3053  -11.6432  -43.0886 C.3       3 UNK        -0.1800 
     59 N           3.8455  -11.5230  -43.5196 N.am      3 UNK        -0.5000 
     60 C           3.7080  -11.3054  -44.8336 C.2       2 UNK         0.5000 
     61 O           4.5455  -11.6290  -45.6797 O.2       2 UNK        -0.5000 
     62 CA          2.3847  -10.6539  -45.2780 C.3       2 UNK         0.1400 
     63 CB          2.5331   -9.1268  -45.3502 C.3       2 UNK        -0.1800 
     64 N           1.9399  -11.1533  -46.5805 N.am      2 UNK        -0.5000 
     65 C           1.6709  -12.4358  -46.8634 C.2       1 UNK         0.5000 
     66 O           1.6992  -13.3438  -46.0271 O.2       1 UNK        -0.5000 
     67 C          -2.1717  -20.2910  -47.2781 C.2       11 UNK         0.5000 
     68 O          -2.5012  -20.3321  -48.4626 O.2       11 UNK        -0.5000 
     69 N          -3.0094  -20.5789  -46.2715 N.am      12 UNK        -0.5000 
     70 CA         -4.3774  -21.0686  -46.4483 C.3       12 UNK         0.1400 
     71 CB         -5.0830  -21.1014  -45.0845 C.3       12 UNK        -0.1800 
     72 C          -4.4292  -22.4549  -47.1204 C.2       12 UNK         0.5000 
     73 O          -5.3007  -22.6904  -47.9575 O.2       12 UNK        -0.5000 
     74 N          -3.4734  -23.3305  -46.7766 N.am      13 UNK        -0.5000 
     75 CA         -3.3187  -24.6577  -47.3738 C.3       13 UNK         0.1400 
     76 CB         -2.5063  -25.5574  -46.4298 C.3       13 UNK        -0.1800 
     77 C          -2.6715  -24.5964  -48.7689 C.2       13 UNK         0.5000 
     78 O          -2.9713  -25.4473  -49.6056 O.2       13 UNK        -0.5000 
     79 N          -1.8216  -23.5853  -49.0068 N.am      14 UNK        -0.5000 
     80 CA         -1.2531  -23.2818  -50.3225 C.3       14 UNK         0.1400 
     81 CB         -0.1088  -22.2656  -50.1811 C.3       14 UNK        -0.1800 
     82 C          -2.3222  -22.7677  -51.3039 C.2       14 UNK         0.5000 
     83 O          -2.2992  -23.1391  -52.4771 O.2       14 UNK        -0.5000 
     84 N          -3.2493  -21.9379  -50.8063 N.am      15 UNK        -0.5000 
     85 CA         -4.4091  -21.4604  -51.5535 C.3       15 UNK         0.1400 
     86 CB         -5.0430  -20.2693  -50.8207 C.3       15 UNK        -0.1800 
     87 C          -5.4412  -22.5769  -51.7823 C.2       15 UNK         0.5000 
     88 O          -5.9232  -22.7346  -52.9063 O.2       15 UNK        -0.5000 
     89 N          -5.7589  -23.3221  -50.7128 N.am      16 UNK        -0.5000 
     90 CA         -6.7182  -24.4303  -50.6519 C.3       16 UNK         0.1400 
     91 CB         -6.1947  -25.6458  -51.4442 C.3       16 UNK        -0.1800 
     92 C          -8.1304  -23.9956  -51.0909 C.2       16 UNK         0.5000 
     93 O          -8.7361  -24.6352  -51.9501 O.2       16 UNK        -0.5000 
     94 N          -8.5964  -22.8606  -50.5464 N.am      17 UNK        -0.5000 
     95 CA         -9.8453  -22.1699  -50.9068 C.3       17 UNK         0.1400 
     96 CB        -11.0744  -22.9987  -50.4776 C.3       17 UNK        -0.1800 
     97 C          -9.8893  -21.7506  -52.3956 C.2       17 UNK         0.5000 
     98 O         -10.9500  -21.7771  -53.0213 O.2       17 UNK        -0.5000 
     99 N          -8.7110  -21.3909  -52.9255 N.am      18 UNK        -0.5000 
    100 CA        -8.4027  -21.0251  -54.3110 C.3       18 UNK         0.1400 
    101 CB        -9.2308  -19.8094  -54.7766 C.3       18 UNK        -0.1800 
    102 C         -8.4543  -22.2023  -55.3094 C.2       18 UNK         0.5000 
    103 O         -8.4239  -21.9594  -56.5167 O.2       18 UNK        -0.5000 
    104 N         -8.4937  -23.4517  -54.8193 N.am      19 UNK        -0.5000 
    105 CA        -8.4115  -24.6510  -55.6575 C.3       19 UNK         0.1400 
    106 CB        -8.9552  -25.8669  -54.8928 C.3       19 UNK        -0.1800 
    107 C         -6.9749  -24.9189  -56.1423 C.2       19 UNK         0.5000 
    108 O         -6.7930  -25.3554  -57.2796 O.2       19 UNK        -0.5000 
    109 N         -5.9875  -24.6440  -55.2792 N.am      20 UNK        -0.5000 
    110 CA        -4.5601  -24.7410  -55.5915 C.3       20 UNK         0.1400 
    111 CB        -3.8219  -25.3500  -54.3913 C.3       20 UNK        -0.1800 
    112 C         -3.9789  -23.3655  -55.9635 C.2       20 UNK         0.5000 
    113 O         -3.0686  -23.2943  -56.7912 O.2       20 UNK        -0.5000 
    114 N         -4.5334  -22.3008  -55.3625 N.am      21 UNK        -0.5000 
    115 CA        -4.2927  -20.8817  -55.6472 C.3       21 UNK         0.1400 
    116 CB        -4.8924  -20.5112  -57.0188 C.3       21 UNK        -0.1800 
    117 C         -2.8206  -20.4381  -55.5034 C.2       21 UNK         0.5000 
    118 O         -2.4012  -19.4900  -56.1694 O.2       21 UNK        -0.5000 
    119 N         -2.0679  -21.1239  -54.6327 N.am      22 UNK        -0.5000 
    120 CA        -0.6478  -20.8772  -54.3277 C.3       22 UNK         0.1400 
    121 C          0.3280  -21.2285  -55.4917 C.2       22 UNK         0.5000 
    122 N         -0.0894  -21.9922  -56.4962 N.am      22 UNK        -0.7600 
    123 O          1.4907  -20.8334  -55.4736 O.2       22 UNK        -0.5000 
    124 C124       -0.3838  -19.4731  -53.7097 C.3       23 UNK        -0.0398 
    125 S125       -1.4887  -19.1190  -52.3002 S.3       23 UNK        -0.2404 
    126 C126       -1.1326  -17.3604  -51.9898 C.3       23 UNK        -0.0205 
    127 H127       -1.0304  -15.9031  -48.9007 H         1 UNK         0.0600 
    128 H128       -1.8695  -15.6122  -47.3719 H         1 UNK         0.0600 
    129 H129       -2.5296  -14.9785  -48.8843 H         1 UNK         0.0600 
    130 H130        0.8752  -14.7364  -48.8485 H         1 UNK         0.3000 
    131 H131        0.8667  -11.8772  -48.7671 H         1 UNK         0.0600 
    132 H132        3.3892  -12.1442  -48.9303 H         1 UNK         0.0800 
    133 H133        3.1972  -13.8683  -48.7786 H         1 UNK         0.0800 
    134 H134        4.0962  -14.7735  -50.9283 H         1 UNK         0.0800 
    135 H135        3.2268  -14.7111  -52.4374 H         1 UNK         0.0800 
    136 H136        0.7447  -15.4410  -52.4661 H         1 UNK         0.1150 
    137 H137       -0.0921  -18.7463  -49.8689 H         1 UNK         0.1150 
    138 H138        3.4256  -16.3825  -49.2561 H         1 UNK         0.1150 
    139 H139        1.8368  -19.5725  -48.4593 H         1 UNK         0.0800 
    140 H140        3.1612  -18.5072  -48.1091 H         1 UNK         0.0800 
    141 H141       -1.0263  -17.9663  -46.1144 H         1 UNK         0.0800 
    142 H142       -0.8314  -17.9891  -47.8386 H         1 UNK         0.0800 
    143 H143       -0.1031  -20.4123  -47.6998 H         1 UNK         0.0600 
    144 H144        0.0195  -19.9648  -44.9095 H         1 UNK         0.3000 
    145 H145       -0.0937  -23.3821  -43.8980 H         1 UNK         0.0600 
    146 H146        2.0730  -22.6861  -42.8844 H         1 UNK         0.0600 
    147 H147        2.2286  -22.9839  -44.6099 H         1 UNK         0.0600 
    148 H148        2.1814  -21.3341  -44.0093 H         1 UNK         0.0600 
    149 H149       -1.0386  -22.1669  -42.3412 H         1 UNK         0.3000 
    150 H150       -1.4384  -18.8068  -41.6418 H         1 UNK         0.0600 
    151 H151       -3.0263  -20.6814  -41.9933 H         1 UNK         0.0600 
    152 H152       -2.9959  -20.1633  -40.3185 H         1 UNK         0.0600 
    153 H153       -2.1939  -21.6546  -40.7877 H         1 UNK         0.0600 
    154 H154       -0.0831  -18.7200  -39.9156 H         1 UNK         0.3000 
    155 H155        0.5026  -19.7241  -37.5834 H         1 UNK         0.0600 
    156 H156        1.1341  -22.0784  -37.1809 H         1 UNK         0.0600 
    157 H157        2.4461  -21.0129  -36.7053 H         1 UNK         0.0600 
    158 H158        2.5467  -21.9183  -38.2146 H         1 UNK         0.0600 
    159 H159        2.0747  -18.2814  -38.2010 H         1 UNK         0.3000 
    160 H160        4.4795  -17.8255  -38.7497 H         1 UNK         0.0600 
    161 H161        4.8800  -18.5381  -41.6979 H         1 UNK         0.0600 
    162 H162        5.8414  -17.3718  -40.7919 H         1 UNK         0.0600 
    163 H163        5.8698  -19.0719  -40.3472 H         1 UNK         0.0600 
    164 H164        3.3204  -16.6724  -41.1660 H         1 UNK         0.3000 
    165 H165        0.8126  -14.8340  -39.5828 H         1 UNK         0.0600 
    166 H166        2.0398  -12.7367  -40.2096 H         1 UNK         0.0600 
    167 H167        2.5961  -13.3959  -38.6796 H         1 UNK         0.0600 
    168 H168        3.5695  -13.6132  -40.1244 H         1 UNK         0.0600 
    169 H169        2.2862  -14.5629  -42.0765 H         1 UNK         0.3000 
    170 H170        0.6411  -17.0281  -43.8597 H         1 UNK         0.0600 
    171 H171       -1.3175  -15.4882  -43.8419 H         1 UNK         0.0600 
    172 H172       -0.2452  -14.1014  -44.0155 H         1 UNK         0.0600 
    173 H173       -0.3682  -15.2935  -45.3077 H         1 UNK         0.0600 
    174 H174        2.0378  -14.7168  -44.7662 H         1 UNK         0.3000 
    175 H175        5.3376  -16.1484  -44.3711 H         1 UNK         0.0600 
    176 H176        3.5324  -15.1830  -46.6558 H         1 UNK         0.0600 
    177 H177        5.2913  -15.2825  -46.7085 H         1 UNK         0.0600 
    178 H178        4.3288  -16.7447  -46.5569 H         1 UNK         0.0600 
    179 H179        4.4927  -13.4910  -45.0342 H         1 UNK         0.3000 
    180 H180        4.7086  -12.1160  -41.7584 H         1 UNK         0.0600 
    181 H181        7.0572  -12.1034  -42.4465 H         1 UNK         0.0600 
    182 H182        6.6291  -11.7911  -44.1189 H         1 UNK         0.0600 
    183 H183        6.3138  -10.5728  -42.8833 H         1 UNK         0.0600 
    184 H184        3.0908  -11.2192  -42.9198 H         1 UNK         0.3000 
    185 H185        1.6099  -10.8982  -44.5483 H         1 UNK         0.0600 
    186 H186        3.2833   -8.8301  -46.0845 H         1 UNK         0.0600 
    187 H187        1.5906   -8.6501  -45.6205 H         1 UNK         0.0600 
    188 H188        2.8381   -8.7171  -44.3863 H         1 UNK         0.0600 
    189 H189        1.9204  -10.4753  -47.3280 H         1 UNK         0.3000 
    190 H190       -2.6619  -20.5230  -45.3261 H         1 UNK         0.3000 
    191 H191       -4.9087  -20.3660  -47.0939 H         1 UNK         0.0600 
    192 H192       -6.1127  -21.4469  -45.1866 H         1 UNK         0.0600 
    193 H193       -5.1178  -20.1090  -44.6346 H         1 UNK         0.0600 
    194 H194       -4.5801  -21.7701  -44.3846 H         1 UNK         0.0600 
    195 H195       -2.7492  -23.0422  -46.1334 H         1 UNK         0.3000 
    196 H196       -4.3095  -25.1030  -47.4891 H         1 UNK         0.0600 
    197 H197       -2.4374  -26.5714  -46.8256 H         1 UNK         0.0600 
    198 H198       -2.9741  -25.6235  -45.4475 H         1 UNK         0.0600 
    199 H199       -1.4884  -25.1921  -46.2938 H         1 UNK         0.0600 
    200 H200       -1.5825  -22.9671  -48.2431 H         1 UNK         0.3000 
    201 H201       -0.8373  -24.2051  -50.7312 H         1 UNK         0.0600 
    202 H202        0.6246  -22.5903  -49.4428 H         1 UNK         0.0600 
    203 H203       -0.4734  -21.2822  -49.8870 H         1 UNK         0.0600 
    204 H204        0.4150  -22.1411  -51.1294 H         1 UNK         0.0600 
    205 H205       -3.1383  -21.5927  -49.8585 H         1 UNK         0.3000 
    206 H206       -4.0692  -21.1102  -52.5290 H         1 UNK         0.0600 
    207 H207       -4.3294  -19.4515  -50.7163 H         1 UNK         0.0600 
    208 H208       -5.9024  -19.8827  -51.3698 H         1 UNK         0.0600 
    209 H209       -5.3827  -20.5410  -49.8207 H         1 UNK         0.0600 
    210 H210       -5.3492  -23.0708  -49.8169 H         1 UNK         0.3000 
    211 H211       -6.7906  -24.7218  -49.6032 H         1 UNK         0.0600 
    212 H212       -6.1740  -25.4537  -52.5160 H         1 UNK         0.0600 
    213 H213       -6.8300  -26.5173  -51.2836 H         1 UNK         0.0600 
    214 H214       -5.1861  -25.9169  -51.1338 H         1 UNK         0.0600 
    215 H215       -8.0209  -22.3988  -49.8555 H         1 UNK         0.3000 
    216 H216       -9.8592  -21.2423  -50.3328 H         1 UNK         0.0600 
    217 H217      -11.0160  -23.2739  -49.4246 H         1 UNK         0.0600 
    218 H218      -11.1697  -23.9159  -51.0595 H         1 UNK         0.0600 
    219 H219      -11.9953  -22.4303  -50.6124 H         1 UNK         0.0600 
    220 H220       -7.9030  -21.4668  -52.3250 H         1 UNK         0.3000 
    221 H221       -7.3589  -20.7092  -54.2973 H         1 UNK         0.0600 
    222 H222      -10.2817  -20.0624  -54.9174 H         1 UNK         0.0600 
    223 H223       -9.1737  -18.9930  -54.0567 H         1 UNK         0.0600 
    224 H224       -8.8605  -19.4261  -55.7281 H         1 UNK         0.0600 
    225 H225       -8.5318  -23.5965  -53.8168 H         1 UNK         0.3000 
    226 H226       -9.0426  -24.5034  -56.5367 H         1 UNK         0.0600 
    227 H227       -9.9549  -25.6759  -54.5023 H         1 UNK         0.0600 
    228 H228       -9.0204  -26.7373  -55.5466 H         1 UNK         0.0600 
    229 H229       -8.3124  -26.1390  -54.0551 H         1 UNK         0.0600 
    230 H230       -6.2270  -24.2501  -54.3774 H         1 UNK         0.3000 
    231 H231       -4.4035  -25.4023  -56.4462 H         1 UNK         0.0600 
    232 H232       -4.0107  -24.7899  -53.4765 H         1 UNK         0.0600 
    233 H233       -4.1376  -26.3788  -54.2188 H         1 UNK         0.0600 
    234 H234       -2.7435  -25.3615  -54.5545 H         1 UNK         0.0600 
    235 H235       -5.2069  -22.4852  -54.6253 H         1 UNK         0.3000 
    236 H236       -4.8439  -20.3251  -54.8883 H         1 UNK         0.0600 
    237 H237       -5.9382  -20.8101  -57.0861 H         1 UNK         0.0600 
    238 H238       -4.8546  -19.4346  -57.1887 H         1 UNK         0.0600 
    239 H239       -4.3538  -20.9920  -57.8361 H         1 UNK         0.0600 
    240 H240       -2.4778  -21.9012  -54.1272 H         1 UNK         0.3000 
    241 H241       -0.3971  -21.6032  -53.5550 H         1 UNK         0.0600 
    242 H242        0.5478  -22.2256  -57.2411 H         1 UNK         0.3800 
    243 H243       -1.0430  -22.3309  -56.5257 H         1 UNK         0.3800 
    244 H244       -0.5063  -18.6937  -54.4627 H         1 UNK         0.0800 
    245 H245        0.6457  -19.3989  -53.3553 H         1 UNK         0.0800 
    246 H246       -1.1518  -16.8188  -52.9368 H         1 UNK         0.0800 
    247 H247       -1.9405  -16.9491  -51.3837 H         1 UNK         0.0800 
@<TRIPOS>BOND
     1    1    2 1    
     2    1  127 1    
     3    1  128 1    
     4    1  129 1    
     5    2    3 2    
     6    2    4 am   BACKBONE|DICT|INTERRES
     7    4    5 1    
     8    4  130 1    
     9    5    6 1    
    10    5   65 1    
    11    5  131 1    
    12    6    7 1    
    13    6  132 1    
    14    6  133 1    
    15    7    8 1    
    16    8    9 1    
    17    8  134 1    
    18    8  135 1    
    19    9   10 ar   
    20    9   14 ar   
    21   10   11 ar   
    22   10  136 1    
    23   11   12 ar   
    24   11  126 1    
    25   12   13 ar   
    26   12  137 1    
    27   13   14 ar   
    28   13   15 1    
    29   14  138 1    
    30   15   16 1    
    31   15  139 1    
    32   15  140 1    
    33   16   17 1    
    34   17   18 1    
    35   17  141 1    
    36   17  142 1    
    37   18   19 1    
    38   18   67 1    
    39   18  143 1    
    40   19   20 am   BACKBONE|DICT|INTERRES
    41   19  144 1    
    42   20   21 2    
    43   20   22 1    
    44   22   23 1    
    45   22   24 1    
    46   22  145 1    
    47   23  146 1    
    48   23  147 1    
    49   23  148 1    
    50   24   25 am   BACKBONE|DICT|INTERRES
    51   24  149 1    
    52   25   26 2    
    53   25   27 1    
    54   27   28 1    
    55   27   29 1    
    56   27  150 1    
    57   28  151 1    
    58   28  152 1    
    59   28  153 1    
    60   29   30 am   BACKBONE|DICT|INTERRES
    61   29  154 1    
    62   30   31 2    
    63   30   32 1    
    64   32   33 1    
    65   32   34 1    
    66   32  155 1    
    67   33  156 1    
    68   33  157 1    
    69   33  158 1    
    70   34   35 am   BACKBONE|DICT|INTERRES
    71   34  159 1    
    72   35   36 2    
    73   35   37 1    
    74   37   38 1    
    75   37   39 1    
    76   37  160 1    
    77   38  161 1    
    78   38  162 1    
    79   38  163 1    
    80   39   40 am   BACKBONE|DICT|INTERRES
    81   39  164 1    
    82   40   41 2    
    83   40   42 1    
    84   42   43 1    
    85   42   44 1    
    86   42  165 1    
    87   43  166 1    
    88   43  167 1    
    89   43  168 1    
    90   44   45 am   BACKBONE|DICT|INTERRES
    91   44  169 1    
    92   45   46 2    
    93   45   47 1    
    94   47   48 1    
    95   47   49 1    
    96   47  170 1    
    97   48  171 1    
    98   48  172 1    
    99   48  173 1    
   100   49   50 am   BACKBONE|DICT|INTERRES
   101   49  174 1    
   102   50   51 2    
   103   50   52 1    
   104   52   53 1    
   105   52   54 1    
   106   52  175 1    
   107   53  176 1    
   108   53  177 1    
   109   53  178 1    
   110   54   55 am   BACKBONE|DICT|INTERRES
   111   54  179 1    
   112   55   56 2    
   113   55   57 1    
   114   57   58 1    
   115   57   59 1    
   116   57  180 1    
   117   58  181 1    
   118   58  182 1    
   119   58  183 1    
   120   59   60 am   BACKBONE|DICT|INTERRES
   121   59  184 1    
   122   60   61 2    
   123   60   62 1    
   124   62   63 1    
   125   62   64 1    
   126   62  185 1    
   127   63  186 1    
   128   63  187 1    
   129   63  188 1    
   130   64   65 am   BACKBONE|DICT|INTERRES
   131   64  189 1    
   132   65   66 2    
   133   67   68 2    
   134   67   69 am   BACKBONE|DICT|INTERRES
   135   69   70 1    
   136   69  190 1    
   137   70   71 1    
   138   70   72 1    
   139   70  191 1    
   140   71  192 1    
   141   71  193 1    
   142   71  194 1    
   143   72   73 2    
   144   72   74 am   BACKBONE|DICT|INTERRES
   145   74   75 1    
   146   74  195 1    
   147   75   76 1    
   148   75   77 1    
   149   75  196 1    
   150   76  197 1    
   151   76  198 1    
   152   76  199 1    
   153   77   78 2    
   154   77   79 am   BACKBONE|DICT|INTERRES
   155   79   80 1    
   156   79  200 1    
   157   80   81 1    
   158   80   82 1    
   159   80  201 1    
   160   81  202 1    
   161   81  203 1    
   162   81  204 1    
   163   82   83 2    
   164   82   84 am   BACKBONE|DICT|INTERRES
   165   84   85 1    
   166   84  205 1    
   167   85   86 1    
   168   85   87 1    
   169   85  206 1    
   170   86  207 1    
   171   86  208 1    
   172   86  209 1    
   173   87   88 2    
   174   87   89 am   BACKBONE|DICT|INTERRES
   175   89   90 1    
   176   89  210 1    
   177   90   91 1    
   178   90   92 1    
   179   90  211 1    
   180   91  212 1    
   181   91  213 1    
   182   91  214 1    
   183   92   93 2    
   184   92   94 am   BACKBONE|DICT|INTERRES
   185   94   95 1    
   186   94  215 1    
   187   95   96 1    
   188   95   97 1    
   189   95  216 1    
   190   96  217 1    
   191   96  218 1    
   192   96  219 1    
   193   97   98 2    
   194   97   99 am   BACKBONE|DICT|INTERRES
   195   99  100 1    
   196   99  220 1    
   197  100  101 1    
   198  100  102 1    
   199  100  221 1    
   200  101  222 1    
   201  101  223 1    
   202  101  224 1    
   203  102  103 2    
   204  102  104 am   BACKBONE|DICT|INTERRES
   205  104  105 1    
   206  104  225 1    
   207  105  106 1    
   208  105  107 1    
   209  105  226 1    
   210  106  227 1    
   211  106  228 1    
   212  106  229 1    
   213  107  108 2    
   214  107  109 am   BACKBONE|DICT|INTERRES
   215  109  110 1    
   216  109  230 1    
   217  110  111 1    
   218  110  112 1    
   219  110  231 1    
   220  111  232 1    
   221  111  233 1    
   222  111  234 1    
   223  112  113 2    
   224  112  114 am   BACKBONE|DICT|INTERRES
   225  114  115 1    
   226  114  235 1    
   227  115  116 1    
   228  115  117 1    
   229  115  236 1    
   230  116  237 1    
   231  116  238 1    
   232  116  239 1    
   233  117  118 2    
   234  117  119 am   BACKBONE|DICT|INTERRES
   235  119  120 1    
   236  119  240 1    
   237  120  121 1    
   238  120  124 1    
   239  120  241 1    
   240  121  122 am   BACKBONE|DICT|INTERRES
   241  121  123 2    
   242  122  242 1    
   243  122  243 1    
   244  124  125 1    
   245  124  244 1    
   246  124  245 1    
   247  125  126 1    
   248  126  246 1    
   249  126  247 1    
@<TRIPOS>SUBSTRUCTURE
     1 UNK         1 GROUP             0       ****    0 ROOT    
