@<TRIPOS>MOLECULE
3R540
247   249    1
SMALL
USER_CHARGES


@<TRIPOS>ATOM
      1 CA         -4.2524  -17.6453  -47.4863 C.3       0 UNK        -0.1800 
      2 C          -3.2794  -16.5465  -47.0823 C.2       0 UNK         0.5000 
      3 O          -2.1880  -16.8509  -46.6070 O.2       0 UNK        -0.5000 
      4 N          -3.6802  -15.2788  -47.2634 N.am      1 UNK        -0.5000 
      5 CA         -2.8959  -14.0649  -46.9872 C.3       1 UNK         0.1400 
      6 C6         -1.6989  -13.8764  -47.9575 C.3       23 UNK        -0.0398 
      7 S7         -2.2724  -13.5529  -49.6593 S.3       23 UNK        -0.2404 
      8 C8         -1.1915  -14.6345  -50.6459 C.3       23 UNK        -0.0205 
      9 C9         -1.5993  -16.1002  -50.5897 C.ar      23 UNK        -0.0193 
     10 C10        -2.8382  -16.5079  -51.0919 C.ar      23 UNK        -0.1150 
     11 C11        -3.1847  -17.8621  -51.1234 C.ar      23 UNK        -0.0193 
     12 C12        -2.2857  -18.8141  -50.6340 C.ar      23 UNK        -0.1150 
     13 C13        -1.0455  -18.4182  -50.1240 C.ar      23 UNK        -0.0193 
     14 C14        -0.7102  -17.0610  -50.1020 C.ar      23 UNK        -0.1150 
     15 C15        -0.0339  -19.4546  -49.6604 C.3       23 UNK        -0.0205 
     16 S16         0.2630  -19.3723  -47.8711 S.3       23 UNK        -0.2404 
     17 C17        -1.1551  -20.3161  -47.2205 C.3       23 UNK        -0.0398 
     18 CA         -0.7773  -21.7743  -46.8634 C.3       11 UNK         0.1400 
     19 N           0.3834  -21.8714  -45.9694 N.am      11 UNK        -0.5000 
     20 C           0.9979  -23.0152  -45.6363 C.2       10 UNK         0.5000 
     21 O           0.6638  -24.1180  -46.0690 O.2       10 UNK        -0.5000 
     22 CA          2.1424  -22.9198  -44.6139 C.3       10 UNK         0.1400 
     23 CB          3.4727  -22.5910  -45.3075 C.3       10 UNK        -0.1800 
     24 N           1.8572  -21.9224  -43.5823 N.am      10 UNK        -0.5000 
     25 C           1.0245  -22.1290  -42.5514 C.2       9 UNK         0.5000 
     26 O           0.4602  -23.2019  -42.3381 O.2       9 UNK        -0.5000 
     27 CA          0.7391  -20.9292  -41.6248 C.3       9 UNK         0.1400 
     28 CB          1.8179  -20.8178  -40.5374 C.3       9 UNK        -0.1800 
     29 N           0.6471  -19.6550  -42.3370 N.am      9 UNK        -0.5000 
     30 C          -0.2287  -19.3837  -43.3141 C.2       8 UNK         0.5000 
     31 O          -1.1188  -20.1553  -43.6652 O.2       8 UNK        -0.5000 
     32 CA         -0.0547  -18.0516  -44.0606 C.3       8 UNK         0.1400 
     33 CB         -0.9256  -16.9727  -43.4108 C.3       8 UNK        -0.1800 
     34 N           1.3310  -17.5865  -44.1368 N.am      8 UNK        -0.5000 
     35 C           2.3533  -18.2643  -44.6790 C.2       7 UNK         0.5000 
     36 O           2.2626  -19.4116  -45.1153 O.2       7 UNK        -0.5000 
     37 CA          3.7154  -17.5555  -44.6870 C.3       7 UNK         0.1400 
     38 CB          3.7913  -16.5297  -45.8290 C.3       7 UNK        -0.1800 
     39 N           3.9553  -16.8896  -43.4081 N.am      7 UNK        -0.5000 
     40 C           4.4566  -17.4982  -42.3249 C.2       6 UNK         0.5000 
     41 O           4.8579  -18.6623  -42.3186 O.2       6 UNK        -0.5000 
     42 CA          4.5052  -16.6767  -41.0215 C.3       6 UNK         0.1400 
     43 CB          5.8387  -15.9226  -40.9094 C.3       6 UNK        -0.1800 
     44 N           3.4023  -15.7221  -40.8920 N.am      6 UNK        -0.5000 
     45 C           2.1141  -16.0618  -40.7461 C.2       5 UNK         0.5000 
     46 O           1.7138  -17.2256  -40.6966 O.2       5 UNK        -0.5000 
     47 CA          1.0975  -14.9044  -40.6792 C.3       5 UNK         0.1400 
     48 CB          0.9588  -14.3968  -39.2365 C.3       5 UNK        -0.1800 
     49 N           1.3759  -13.7650  -41.5621 N.am      5 UNK        -0.5000 
     50 C           1.6287  -13.8186  -42.8775 C.2       4 UNK         0.5000 
     51 O           1.8099  -14.8666  -43.4973 O.2       4 UNK        -0.5000 
     52 CA          1.6299  -12.4719  -43.6192 C.3       4 UNK         0.1400 
     53 CB          2.0683  -12.6062  -45.0891 C.3       4 UNK        -0.1800 
     54 N           0.2752  -11.9302  -43.5786 N.am      4 UNK        -0.5000 
     55 C          -0.1676  -11.0070  -42.7149 C.2       3 UNK         0.5000 
     56 O           0.5577  -10.4327  -41.9021 O.2       3 UNK        -0.5000 
     57 CA         -1.6792  -10.6953  -42.7329 C.3       3 UNK         0.1400 
     58 CB         -1.9712   -9.5042  -43.6578 C.3       3 UNK        -0.1800 
     59 N          -2.5021  -11.8341  -43.1478 N.am      3 UNK        -0.5000 
     60 C          -2.6117  -12.9882  -42.4747 C.2       2 UNK         0.5000 
     61 O          -2.1097  -13.1790  -41.3665 O.2       2 UNK        -0.5000 
     62 CA         -3.3936  -14.1342  -43.1507 C.3       2 UNK         0.1400 
     63 CB         -4.8089  -14.2323  -42.5613 C.3       2 UNK        -0.1800 
     64 N          -3.4982  -14.0786  -44.6158 N.am      2 UNK        -0.5000 
     65 C          -2.4936  -13.9610  -45.4987 C.2       1 UNK         0.5000 
     66 O          -1.3196  -13.7693  -45.1798 O.2       1 UNK        -0.5000 
     67 C          -1.9944  -22.5258  -46.2893 C.2       11 UNK         0.5000 
     68 O          -2.6448  -23.2741  -47.0172 O.2       11 UNK        -0.5000 
     69 N          -2.2425  -22.3550  -44.9840 N.am      12 UNK        -0.5000 
     70 CA         -3.2828  -23.0451  -44.2235 C.3       12 UNK         0.1400 
     71 CB         -3.4312  -22.3710  -42.8513 C.3       12 UNK        -0.1800 
     72 C          -3.0179  -24.5524  -44.0543 C.2       12 UNK         0.5000 
     73 O          -3.9754  -25.3218  -43.9810 O.2       12 UNK        -0.5000 
     74 N          -1.7392  -24.9530  -44.0004 N.am      13 UNK        -0.5000 
     75 CA         -1.3239  -26.3560  -43.9520 C.3       13 UNK         0.1400 
     76 CB          0.1354  -26.4572  -43.4828 C.3       13 UNK        -0.1800 
     77 C          -1.5204  -27.0598  -45.3069 C.2       13 UNK         0.5000 
     78 O          -1.9780  -28.2029  -45.3341 O.2       13 UNK        -0.5000 
     79 N          -1.1925  -26.3601  -46.4031 N.am      14 UNK        -0.5000 
     80 CA         -1.4277  -26.8085  -47.7766 C.3       14 UNK         0.1400 
     81 CB         -0.6669  -25.8920  -48.7490 C.3       14 UNK        -0.1800 
     82 C          -2.9275  -26.8557  -48.1256 C.2       14 UNK         0.5000 
     83 O          -3.3821  -27.8311  -48.7238 O.2       14 UNK        -0.5000 
     84 N          -3.6519  -25.8012  -47.7249 N.am      15 UNK        -0.5000 
     85 CA         -5.0874  -25.5663  -47.8870 C.3       15 UNK         0.1400 
     86 CB         -5.8689  -26.4706  -46.9105 C.3       15 UNK        -0.1800 
     87 C          -5.5949  -25.6932  -49.3453 C.2       15 UNK         0.5000 
     88 O          -6.4953  -26.4941  -49.5994 O.2       15 UNK        -0.5000 
     89 N          -5.0648  -24.9498  -50.3251 N.am      16 UNK        -0.5000 
     90 CA         -3.9879  -23.9615  -50.3208 C.3       16 UNK         0.1400 
     91 CB         -4.5051  -22.5988  -49.8252 C.3       16 UNK        -0.1800 
     92 C          -3.4813  -23.8642  -51.7686 C.2       16 UNK         0.5000 
     93 O          -4.2048  -24.2555  -52.6912 O.2       16 UNK        -0.5000 
     94 N          -2.2654  -23.3442  -51.9590 N.am      17 UNK        -0.5000 
     95 CA         -1.6442  -23.1761  -53.2702 C.3       17 UNK         0.1400 
     96 CB         -0.8022  -24.4186  -53.6064 C.3       17 UNK        -0.1800 
     97 C          -0.7825  -21.9090  -53.2732 C.2       17 UNK         0.5000 
     98 O          -0.1242  -21.6207  -52.2722 O.2       17 UNK        -0.5000 
     99 N          -0.7865  -21.2035  -54.4071 N.am      18 UNK        -0.5000 
    100 CA        -0.0276  -19.9921  -54.6993 C.3       18 UNK         0.1400 
    101 CB        -0.5221  -18.8114  -53.8417 C.3       18 UNK        -0.1800 
    102 C         -0.1956  -19.6812  -56.1940 C.2       18 UNK         0.5000 
    103 O         -1.0781  -20.2509  -56.8447 O.2       18 UNK        -0.5000 
    104 N          0.6216  -18.7514  -56.7067 N.am      19 UNK        -0.5000 
    105 CA         0.6243  -18.2956  -58.1040 C.3       19 UNK         0.1400 
    106 CB         1.8049  -17.3340  -58.3100 C.3       19 UNK        -0.1800 
    107 C         -0.6936  -17.6373  -58.5675 C.2       19 UNK         0.5000 
    108 O         -0.9595  -17.5918  -59.7689 O.2       19 UNK        -0.5000 
    109 N         -1.5050  -17.1680  -57.6100 N.am      20 UNK        -0.5000 
    110 CA        -2.8548  -16.6414  -57.8192 C.3       20 UNK         0.1400 
    111 CB        -3.2560  -15.8319  -56.5755 C.3       20 UNK        -0.1800 
    112 C         -3.9099  -17.7281  -58.1302 C.2       20 UNK         0.5000 
    113 O         -5.0401  -17.3757  -58.4691 O.2       20 UNK        -0.5000 
    114 N         -3.5385  -19.0135  -58.0025 N.am      21 UNK        -0.5000 
    115 CA        -4.3561  -20.2116  -58.2390 C.3       21 UNK         0.1400 
    116 CB        -4.8469  -20.2822  -59.7004 C.3       21 UNK        -0.1800 
    117 C         -5.4909  -20.4024  -57.2089 C.2       21 UNK         0.5000 
    118 O         -6.4748  -21.0884  -57.4900 O.2       21 UNK        -0.5000 
    119 N         -5.3136  -19.8175  -56.0198 N.am      22 UNK        -0.5000 
    120 CA        -6.1959  -19.9330  -54.8472 C.3       22 UNK         0.1400 
    121 C         -5.9630  -21.2104  -53.9847 C.2       22 UNK         0.5000 
    122 N         -5.0775  -22.1192  -54.3726 N.am      22 UNK        -0.7600 
    123 O         -6.6050  -21.3854  -52.9530 O.2       22 UNK        -0.5000 
    124 C124       -6.1643  -18.6331  -54.0005 C.3       23 UNK        -0.0398 
    125 S125       -4.4783  -18.1090  -53.5324 S.3       23 UNK        -0.2404 
    126 C126       -4.5139  -18.2900  -51.7239 C.3       23 UNK        -0.0205 
    127 H127       -4.6039  -18.1784  -46.6031 H         1 UNK         0.0600 
    128 H128       -3.7559  -18.3610  -48.1407 H         1 UNK         0.0600 
    129 H129       -5.1178  -17.2469  -48.0161 H         1 UNK         0.0600 
    130 H130       -4.5935  -15.1132  -47.6615 H         1 UNK         0.3000 
    131 H131       -3.5756  -13.2268  -47.1498 H         1 UNK         0.0600 
    132 H132       -1.0871  -13.0222  -47.6625 H         1 UNK         0.0800 
    133 H133       -1.0405  -14.7463  -47.9336 H         1 UNK         0.0800 
    134 H134       -1.2303  -14.3067  -51.6856 H         1 UNK         0.0800 
    135 H135       -0.1574  -14.5003  -50.3246 H         1 UNK         0.0800 
    136 H136       -3.5231  -15.7712  -51.4879 H         1 UNK         0.1150 
    137 H137       -2.5380  -19.8636  -50.6783 H         1 UNK         0.1150 
    138 H138        0.2566  -16.7594  -49.7242 H         1 UNK         0.1150 
    139 H139       -0.3511  -20.4630  -49.9275 H         1 UNK         0.0800 
    140 H140        0.9085  -19.2850  -50.1828 H         1 UNK         0.0800 
    141 H141       -1.9647  -20.2985  -47.9521 H         1 UNK         0.0800 
    142 H142       -1.5367  -19.7882  -46.3461 H         1 UNK         0.0800 
    143 H143       -0.5024  -22.2782  -47.7926 H         1 UNK         0.0600 
    144 H144        0.7479  -20.9999  -45.6041 H         1 UNK         0.3000 
    145 H145        2.2491  -23.8960  -44.1362 H         1 UNK         0.0600 
    146 H146        4.2880  -22.5258  -44.5870 H         1 UNK         0.0600 
    147 H147        3.4280  -21.6468  -45.8504 H         1 UNK         0.0600 
    148 H148        3.7353  -23.3673  -46.0272 H         1 UNK         0.0600 
    149 H149        2.2189  -20.9898  -43.7459 H         1 UNK         0.3000 
    150 H150       -0.2225  -21.1076  -41.1396 H         1 UNK         0.0600 
    151 H151        1.9068  -21.7491  -39.9766 H         1 UNK         0.0600 
    152 H152        1.5773  -20.0297  -39.8235 H         1 UNK         0.0600 
    153 H153        2.7968  -20.5939  -40.9641 H         1 UNK         0.0600 
    154 H154        1.3057  -18.9331  -42.0702 H         1 UNK         0.3000 
    155 H155       -0.3955  -18.1922  -45.0862 H         1 UNK         0.0600 
    156 H156       -1.9822  -17.2201  -43.5184 H         1 UNK         0.0600 
    157 H157       -0.7668  -16.0029  -43.8798 H         1 UNK         0.0600 
    158 H158       -0.7168  -16.8761  -42.3467 H         1 UNK         0.0600 
    159 H159        1.5005  -16.6317  -43.8280 H         1 UNK         0.3000 
    160 H160        4.4889  -18.3073  -44.8585 H         1 UNK         0.0600 
    161 H161        3.0344  -15.7511  -45.7298 H         1 UNK         0.0600 
    162 H162        3.6370  -17.0131  -46.7945 H         1 UNK         0.0600 
    163 H163        4.7674  -16.0455  -45.8589 H         1 UNK         0.0600 
    164 H164        3.5680  -15.9587  -43.3093 H         1 UNK         0.3000 
    165 H165        4.4400  -17.3796  -40.1881 H         1 UNK         0.0600 
    166 H166        5.9202  -15.4044  -39.9538 H         1 UNK         0.0600 
    167 H167        6.6829  -16.6101  -40.9780 H         1 UNK         0.0600 
    168 H168        5.9516  -15.1838  -41.7039 H         1 UNK         0.0600 
    169 H169        3.6379  -14.7416  -40.9347 H         1 UNK         0.3000 
    170 H170        0.1288  -15.3029  -40.9801 H         1 UNK         0.0600 
    171 H171        1.8766  -13.9231  -38.8862 H         1 UNK         0.0600 
    172 H172        0.1507  -13.6696  -39.1519 H         1 UNK         0.0600 
    173 H173        0.7289  -15.2156  -38.5533 H         1 UNK         0.0600 
    174 H174        1.2285  -12.8516  -41.1559 H         1 UNK         0.3000 
    175 H175        2.3333  -11.8068  -43.1144 H         1 UNK         0.0600 
    176 H176        1.4060  -13.2669  -45.6505 H         1 UNK         0.0600 
    177 H177        2.0726  -11.6370  -45.5876 H         1 UNK         0.0600 
    178 H178        3.0772  -13.0143  -45.1601 H         1 UNK         0.0600 
    179 H179       -0.3998  -12.4205  -44.1604 H         1 UNK         0.3000 
    180 H180       -1.9717  -10.4214  -41.7171 H         1 UNK         0.0600 
    181 H181       -3.0241   -9.2241  -43.6208 H         1 UNK         0.0600 
    182 H182       -1.7183   -9.7288  -44.6948 H         1 UNK         0.0600 
    183 H183       -1.3926   -8.6284  -43.3609 H         1 UNK         0.0600 
    184 H184       -2.9504  -11.7657  -44.0490 H         1 UNK         0.3000 
    185 H185       -2.8671  -15.0552  -42.9027 H         1 UNK         0.0600 
    186 H186       -5.3306  -15.1159  -42.9295 H         1 UNK         0.0600 
    187 H187       -4.7774  -14.3076  -41.4734 H         1 UNK         0.0600 
    188 H188       -5.4092  -13.3569  -42.8124 H         1 UNK         0.0600 
    189 H189       -4.4244  -14.2295  -44.9886 H         1 UNK         0.3000 
    190 H190       -1.6914  -21.6698  -44.4692 H         1 UNK         0.3000 
    191 H191       -4.2249  -22.9339  -44.7645 H         1 UNK         0.0600 
    192 H192       -2.5054  -22.4248  -42.2767 H         1 UNK         0.0600 
    193 H193       -4.2145  -22.8487  -42.2616 H         1 UNK         0.0600 
    194 H194       -3.6980  -21.3192  -42.9561 H         1 UNK         0.0600 
    195 H195       -1.0062  -24.2581  -44.0312 H         1 UNK         0.3000 
    196 H196       -1.9451  -26.8709  -43.2160 H         1 UNK         0.0600 
    197 H197        0.2674  -25.9971  -42.5035 H         1 UNK         0.0600 
    198 H198        0.8214  -25.9722  -44.1763 H         1 UNK         0.0600 
    199 H199        0.4432  -27.4998  -43.3957 H         1 UNK         0.0600 
    200 H200       -0.7531  -25.4516  -46.2870 H         1 UNK         0.3000 
    201 H201       -1.0279  -27.8196  -47.8791 H         1 UNK         0.0600 
    202 H202        0.4078  -25.9422  -48.5736 H         1 UNK         0.0600 
    203 H203       -0.9695  -24.8498  -48.6442 H         1 UNK         0.0600 
    204 H204       -0.8426  -26.1851  -49.7849 H         1 UNK         0.0600 
    205 H205       -3.1523  -25.0231  -47.3002 H         1 UNK         0.3000 
    206 H206       -5.2679  -24.5365  -47.5802 H         1 UNK         0.0600 
    207 H207       -5.5415  -26.3179  -45.8830 H         1 UNK         0.0600 
    208 H208       -6.9372  -26.2536  -46.9431 H         1 UNK         0.0600 
    209 H209       -5.7395  -27.5274  -47.1463 H         1 UNK         0.0600 
    210 H210       -5.4006  -25.1068  -51.2679 H         1 UNK         0.3000 
    211 H211       -3.1549  -24.2910  -49.7038 H         1 UNK         0.0600 
    212 H212       -5.3187  -22.2280  -50.4502 H         1 UNK         0.0600 
    213 H213       -3.7115  -21.8516  -49.8429 H         1 UNK         0.0600 
    214 H214       -4.8678  -22.6488  -48.8000 H         1 UNK         0.0600 
    215 H215       -1.7245  -22.9859  -51.1833 H         1 UNK         0.3000 
    216 H216       -2.4145  -23.0587  -54.0348 H         1 UNK         0.0600 
    217 H217       -0.3158  -24.3113  -54.5767 H         1 UNK         0.0600 
    218 H218       -1.4219  -25.3144  -53.6509 H         1 UNK         0.0600 
    219 H219       -0.0222  -24.5874  -52.8629 H         1 UNK         0.0600 
    220 H220       -1.3300  -21.5211  -55.2010 H         1 UNK         0.3000 
    221 H221        1.0292  -20.1796  -54.5003 H         1 UNK         0.0600 
    222 H222       -1.5921  -18.6464  -53.9644 H         1 UNK         0.0600 
    223 H223       -0.3303  -18.9860  -52.7848 H         1 UNK         0.0600 
    224 H224       -0.0135  -17.8828  -54.1022 H         1 UNK         0.0600 
    225 H225        1.3099  -18.3254  -56.1026 H         1 UNK         0.3000 
    226 H226        0.7834  -19.1720  -58.7357 H         1 UNK         0.0600 
    227 H227        2.7539  -17.8177  -58.0778 H         1 UNK         0.0600 
    228 H228        1.8598  -16.9970  -59.3461 H         1 UNK         0.0600 
    229 H229        1.7154  -16.4475  -57.6809 H         1 UNK         0.0600 
    230 H230       -1.1942  -17.2384  -56.6527 H         1 UNK         0.3000 
    231 H231       -2.8319  -15.9628  -58.6742 H         1 UNK         0.0600 
    232 H232       -4.2577  -15.4134  -56.6815 H         1 UNK         0.0600 
    233 H233       -2.5737  -14.9976  -56.4120 H         1 UNK         0.0600 
    234 H234       -3.2510  -16.4483  -55.6768 H         1 UNK         0.0600 
    235 H235       -2.5902  -19.2067  -57.6965 H         1 UNK         0.3000 
    236 H236       -3.6815  -21.0555  -58.0880 H         1 UNK         0.0600 
    237 H237       -5.6025  -19.5261  -59.9140 H         1 UNK         0.0600 
    238 H238       -4.0229  -20.1419  -60.4001 H         1 UNK         0.0600 
    239 H239       -5.2915  -21.2544  -59.9162 H         1 UNK         0.0600 
    240 H240       -4.4735  -19.2775  -55.8726 H         1 UNK         0.3000 
    241 H241       -7.2178  -20.0352  -55.2168 H         1 UNK         0.0600 
    242 H242       -4.9224  -22.9453  -53.8012 H         1 UNK         0.3800 
    243 H243       -4.5783  -22.0047  -55.2373 H         1 UNK         0.3800 
    244 H244       -6.7932  -18.7239  -53.1132 H         1 UNK         0.0800 
    245 H245       -6.6033  -17.8214  -54.5817 H         1 UNK         0.0800 
    246 H246       -4.7414  -19.3261  -51.4667 H         1 UNK         0.0800 
    247 H247       -5.3152  -17.6776  -51.3080 H         1 UNK         0.0800 
@<TRIPOS>BOND
     1    1    2 1    
     2    1  127 1    
     3    1  128 1    
     4    1  129 1    
     5    2    3 2    
     6    2    4 am   BACKBONE|DICT|INTERRES
     7    4    5 1    
     8    4  130 1    
     9    5    6 1    
    10    5   65 1    
    11    5  131 1    
    12    6    7 1    
    13    6  132 1    
    14    6  133 1    
    15    7    8 1    
    16    8    9 1    
    17    8  134 1    
    18    8  135 1    
    19    9   10 ar   
    20    9   14 ar   
    21   10   11 ar   
    22   10  136 1    
    23   11   12 ar   
    24   11  126 1    
    25   12   13 ar   
    26   12  137 1    
    27   13   14 ar   
    28   13   15 1    
    29   14  138 1    
    30   15   16 1    
    31   15  139 1    
    32   15  140 1    
    33   16   17 1    
    34   17   18 1    
    35   17  141 1    
    36   17  142 1    
    37   18   19 1    
    38   18   67 1    
    39   18  143 1    
    40   19   20 am   BACKBONE|DICT|INTERRES
    41   19  144 1    
    42   20   21 2    
    43   20   22 1    
    44   22   23 1    
    45   22   24 1    
    46   22  145 1    
    47   23  146 1    
    48   23  147 1    
    49   23  148 1    
    50   24   25 am   BACKBONE|DICT|INTERRES
    51   24  149 1    
    52   25   26 2    
    53   25   27 1    
    54   27   28 1    
    55   27   29 1    
    56   27  150 1    
    57   28  151 1    
    58   28  152 1    
    59   28  153 1    
    60   29   30 am   BACKBONE|DICT|INTERRES
    61   29  154 1    
    62   30   31 2    
    63   30   32 1    
    64   32   33 1    
    65   32   34 1    
    66   32  155 1    
    67   33  156 1    
    68   33  157 1    
    69   33  158 1    
    70   34   35 am   BACKBONE|DICT|INTERRES
    71   34  159 1    
    72   35   36 2    
    73   35   37 1    
    74   37   38 1    
    75   37   39 1    
    76   37  160 1    
    77   38  161 1    
    78   38  162 1    
    79   38  163 1    
    80   39   40 am   BACKBONE|DICT|INTERRES
    81   39  164 1    
    82   40   41 2    
    83   40   42 1    
    84   42   43 1    
    85   42   44 1    
    86   42  165 1    
    87   43  166 1    
    88   43  167 1    
    89   43  168 1    
    90   44   45 am   BACKBONE|DICT|INTERRES
    91   44  169 1    
    92   45   46 2    
    93   45   47 1    
    94   47   48 1    
    95   47   49 1    
    96   47  170 1    
    97   48  171 1    
    98   48  172 1    
    99   48  173 1    
   100   49   50 am   BACKBONE|DICT|INTERRES
   101   49  174 1    
   102   50   51 2    
   103   50   52 1    
   104   52   53 1    
   105   52   54 1    
   106   52  175 1    
   107   53  176 1    
   108   53  177 1    
   109   53  178 1    
   110   54   55 am   BACKBONE|DICT|INTERRES
   111   54  179 1    
   112   55   56 2    
   113   55   57 1    
   114   57   58 1    
   115   57   59 1    
   116   57  180 1    
   117   58  181 1    
   118   58  182 1    
   119   58  183 1    
   120   59   60 am   BACKBONE|DICT|INTERRES
   121   59  184 1    
   122   60   61 2    
   123   60   62 1    
   124   62   63 1    
   125   62   64 1    
   126   62  185 1    
   127   63  186 1    
   128   63  187 1    
   129   63  188 1    
   130   64   65 am   BACKBONE|DICT|INTERRES
   131   64  189 1    
   132   65   66 2    
   133   67   68 2    
   134   67   69 am   BACKBONE|DICT|INTERRES
   135   69   70 1    
   136   69  190 1    
   137   70   71 1    
   138   70   72 1    
   139   70  191 1    
   140   71  192 1    
   141   71  193 1    
   142   71  194 1    
   143   72   73 2    
   144   72   74 am   BACKBONE|DICT|INTERRES
   145   74   75 1    
   146   74  195 1    
   147   75   76 1    
   148   75   77 1    
   149   75  196 1    
   150   76  197 1    
   151   76  198 1    
   152   76  199 1    
   153   77   78 2    
   154   77   79 am   BACKBONE|DICT|INTERRES
   155   79   80 1    
   156   79  200 1    
   157   80   81 1    
   158   80   82 1    
   159   80  201 1    
   160   81  202 1    
   161   81  203 1    
   162   81  204 1    
   163   82   83 2    
   164   82   84 am   BACKBONE|DICT|INTERRES
   165   84   85 1    
   166   84  205 1    
   167   85   86 1    
   168   85   87 1    
   169   85  206 1    
   170   86  207 1    
   171   86  208 1    
   172   86  209 1    
   173   87   88 2    
   174   87   89 am   BACKBONE|DICT|INTERRES
   175   89   90 1    
   176   89  210 1    
   177   90   91 1    
   178   90   92 1    
   179   90  211 1    
   180   91  212 1    
   181   91  213 1    
   182   91  214 1    
   183   92   93 2    
   184   92   94 am   BACKBONE|DICT|INTERRES
   185   94   95 1    
   186   94  215 1    
   187   95   96 1    
   188   95   97 1    
   189   95  216 1    
   190   96  217 1    
   191   96  218 1    
   192   96  219 1    
   193   97   98 2    
   194   97   99 am   BACKBONE|DICT|INTERRES
   195   99  100 1    
   196   99  220 1    
   197  100  101 1    
   198  100  102 1    
   199  100  221 1    
   200  101  222 1    
   201  101  223 1    
   202  101  224 1    
   203  102  103 2    
   204  102  104 am   BACKBONE|DICT|INTERRES
   205  104  105 1    
   206  104  225 1    
   207  105  106 1    
   208  105  107 1    
   209  105  226 1    
   210  106  227 1    
   211  106  228 1    
   212  106  229 1    
   213  107  108 2    
   214  107  109 am   BACKBONE|DICT|INTERRES
   215  109  110 1    
   216  109  230 1    
   217  110  111 1    
   218  110  112 1    
   219  110  231 1    
   220  111  232 1    
   221  111  233 1    
   222  111  234 1    
   223  112  113 2    
   224  112  114 am   BACKBONE|DICT|INTERRES
   225  114  115 1    
   226  114  235 1    
   227  115  116 1    
   228  115  117 1    
   229  115  236 1    
   230  116  237 1    
   231  116  238 1    
   232  116  239 1    
   233  117  118 2    
   234  117  119 am   BACKBONE|DICT|INTERRES
   235  119  120 1    
   236  119  240 1    
   237  120  121 1    
   238  120  124 1    
   239  120  241 1    
   240  121  122 am   BACKBONE|DICT|INTERRES
   241  121  123 2    
   242  122  242 1    
   243  122  243 1    
   244  124  125 1    
   245  124  244 1    
   246  124  245 1    
   247  125  126 1    
   248  126  246 1    
   249  126  247 1    
@<TRIPOS>SUBSTRUCTURE
     1 UNK         1 GROUP             0       ****    0 ROOT    
