@<TRIPOS>MOLECULE
3R540
247   249    1
SMALL
USER_CHARGES


@<TRIPOS>ATOM
      1 CA          3.1940  -12.8308  -50.3672 C.3       0 UNK        -0.1800 
      2 C           2.4856  -13.5082  -49.2040 C.2       0 UNK         0.5000 
      3 O           3.1274  -14.2000  -48.4117 O.2       0 UNK        -0.5000 
      4 N           1.1664  -13.3038  -49.0799 N.am      1 UNK        -0.5000 
      5 CA          0.3354  -13.9149  -48.0351 C.3       1 UNK         0.1400 
      6 C6         -1.1834  -13.7786  -48.3007 C.3       23 UNK        -0.0398 
      7 S7         -1.7250  -14.8221  -49.6965 S.3       23 UNK        -0.2404 
      8 C8         -1.8047  -16.4598  -48.8950 C.3       23 UNK        -0.0205 
      9 C9         -3.2215  -16.8895  -48.5348 C.ar      23 UNK        -0.0193 
     10 C10        -3.7879  -18.0039  -49.1589 C.ar      23 UNK        -0.1150 
     11 C11        -5.0779  -18.4305  -48.8319 C.ar      23 UNK        -0.0193 
     12 C12        -5.8032  -17.7368  -47.8598 C.ar      23 UNK        -0.1150 
     13 C13        -5.2446  -16.6288  -47.2152 C.ar      23 UNK        -0.0193 
     14 C14        -3.9562  -16.2095  -47.5585 C.ar      23 UNK        -0.1150 
     15 C15        -6.0312  -15.8797  -46.1497 C.3       23 UNK        -0.0205 
     16 S16        -5.4792  -16.3056  -44.4665 S.3       23 UNK        -0.2404 
     17 C17        -5.9584  -18.0630  -44.3530 C.3       23 UNK        -0.0398 
     18 CA         -4.7352  -19.0013  -44.4975 C.3       11 UNK         0.1400 
     19 N          -3.8281  -18.8841  -43.3517 N.am      11 UNK        -0.5000 
     20 C          -2.4943  -19.0059  -43.3272 C.2       10 UNK         0.5000 
     21 O          -1.8706  -18.9394  -42.2665 O.2       10 UNK        -0.5000 
     22 CA         -1.7095  -19.1800  -44.6437 C.3       10 UNK         0.1400 
     23 CB         -1.4626  -17.8168  -45.3034 C.3       10 UNK        -0.1800 
     24 N          -0.4212  -19.8122  -44.3728 N.am      10 UNK        -0.5000 
     25 C          -0.1579  -21.1129  -44.5491 C.2       9 UNK         0.5000 
     26 O          -0.9387  -21.9032  -45.0761 O.2       9 UNK        -0.5000 
     27 CA          1.2010  -21.6197  -44.0359 C.3       9 UNK         0.1400 
     28 CB          2.2799  -21.4667  -45.1186 C.3       9 UNK        -0.1800 
     29 N           1.6232  -20.8874  -42.8449 N.am      9 UNK        -0.5000 
     30 C           1.2661  -21.1770  -41.5881 C.2       8 UNK         0.5000 
     31 O           0.6029  -22.1698  -41.2829 O.2       8 UNK        -0.5000 
     32 CA          1.7113  -20.1767  -40.4972 C.3       8 UNK         0.1400 
     33 CB          1.8657  -20.8273  -39.1068 C.3       8 UNK        -0.1800 
     34 N           2.9085  -19.4070  -40.8586 N.am      8 UNK        -0.5000 
     35 C           4.1538  -19.8636  -41.0652 C.2       7 UNK         0.5000 
     36 O           4.4858  -21.0391  -40.9085 O.2       7 UNK        -0.5000 
     37 CA          5.2101  -18.8495  -41.5578 C.3       7 UNK         0.1400 
     38 CB          5.6302  -19.1763  -43.0003 C.3       7 UNK        -0.1800 
     39 N           4.7581  -17.4572  -41.5101 N.am      7 UNK        -0.5000 
     40 C           4.6760  -16.7077  -40.4025 C.2       6 UNK         0.5000 
     41 O           5.0464  -17.0865  -39.2911 O.2       6 UNK        -0.5000 
     42 CA          4.0244  -15.3183  -40.5575 C.3       6 UNK         0.1400 
     43 CB          5.0660  -14.2652  -40.9642 C.3       6 UNK        -0.1800 
     44 N           2.9189  -15.3142  -41.5207 N.am      6 UNK        -0.5000 
     45 C           1.7761  -15.9990  -41.3635 C.2       5 UNK         0.5000 
     46 O           1.5123  -16.6655  -40.3633 O.2       5 UNK        -0.5000 
     47 CA          0.7892  -15.9931  -42.5418 C.3       5 UNK         0.1400 
     48 CB         -0.0838  -14.7303  -42.5230 C.3       5 UNK        -0.1800 
     49 N           1.4677  -16.1117  -43.8327 N.am      5 UNK        -0.5000 
     50 C           2.1116  -17.2091  -44.2518 C.2       4 UNK         0.5000 
     51 O           2.1438  -18.2577  -43.6114 O.2       4 UNK        -0.5000 
     52 CA          2.8648  -17.1242  -45.5918 C.3       4 UNK         0.1400 
     53 CB          1.9224  -17.4221  -46.7654 C.3       4 UNK        -0.1800 
     54 N           3.5194  -15.8296  -45.7873 N.am      4 UNK        -0.5000 
     55 C           4.5158  -15.3734  -45.0138 C.2       3 UNK         0.5000 
     56 O           5.0118  -16.0179  -44.0901 O.2       3 UNK        -0.5000 
     57 CA          5.0002  -13.9391  -45.2801 C.3       3 UNK         0.1400 
     58 CB          6.0194  -13.9043  -46.4285 C.3       3 UNK        -0.1800 
     59 N           3.8855  -13.0401  -45.5770 N.am      3 UNK        -0.5000 
     60 C           2.9958  -12.6195  -44.6661 C.2       2 UNK         0.5000 
     61 O           3.0479  -12.9174  -43.4723 O.2       2 UNK        -0.5000 
     62 CA          1.8254  -11.7644  -45.1905 C.3       2 UNK         0.1400 
     63 CB          2.2515  -10.2976  -45.3506 C.3       2 UNK        -0.1800 
     64 N           1.2964  -12.2609  -46.4635 N.am      2 UNK        -0.5000 
     65 C           0.6931  -13.4493  -46.6095 C.2       1 UNK         0.5000 
     66 O           0.4563  -14.2042  -45.6692 O.2       1 UNK        -0.5000 
     67 C          -5.1718  -20.4722  -44.6060 C.2       11 UNK         0.5000 
     68 O          -6.0075  -20.9177  -43.8175 O.2       11 UNK        -0.5000 
     69 N          -4.5762  -21.2019  -45.5533 N.am      12 UNK        -0.5000 
     70 CA         -4.7862  -22.6207  -45.8129 C.3       12 UNK         0.1400 
     71 CB         -4.1896  -23.4757  -44.6750 C.3       12 UNK        -0.1800 
     72 C          -4.1268  -22.9615  -47.1572 C.2       12 UNK         0.5000 
     73 O          -3.4066  -22.1323  -47.7222 O.2       12 UNK        -0.5000 
     74 N          -4.3590  -24.1913  -47.6337 N.am      13 UNK        -0.5000 
     75 CA         -3.7998  -24.7311  -48.8772 C.3       13 UNK         0.1400 
     76 CB         -4.4495  -26.0919  -49.1694 C.3       13 UNK        -0.1800 
     77 C          -2.2635  -24.8595  -48.8752 C.2       13 UNK         0.5000 
     78 O          -1.6570  -24.8509  -49.9469 O.2       13 UNK        -0.5000 
     79 N          -1.6579  -24.9298  -47.6799 N.am      14 UNK        -0.5000 
     80 CA         -0.2100  -24.9680  -47.4538 C.3       14 UNK         0.1400 
     81 CB          0.0600  -25.2158  -45.9616 C.3       14 UNK        -0.1800 
     82 C           0.5421  -23.7154  -47.9520 C.2       14 UNK         0.5000 
     83 O           1.7489  -23.7937  -48.1821 O.2       14 UNK        -0.5000 
     84 N          -0.1781  -22.6022  -48.1587 N.am      15 UNK        -0.5000 
     85 CA          0.3186  -21.3851  -48.8047 C.3       15 UNK         0.1400 
     86 CB         -0.6630  -20.2387  -48.5123 C.3       15 UNK        -0.1800 
     87 C           0.5398  -21.5382  -50.3283 C.2       15 UNK         0.5000 
     88 O           1.0729  -20.6174  -50.9461 O.2       15 UNK        -0.5000 
     89 N           0.1095  -22.6722  -50.9076 N.am      16 UNK        -0.5000 
     90 CA          0.2056  -23.0877  -52.3151 C.3       16 UNK         0.1400 
     91 CB          1.6570  -23.0378  -52.8336 C.3       16 UNK        -0.1800 
     92 C          -0.7772  -22.3687  -53.2606 C.2       16 UNK         0.5000 
     93 O          -0.8138  -22.6807  -54.4518 O.2       16 UNK        -0.5000 
     94 N          -1.6042  -21.4662  -52.7170 N.am      17 UNK        -0.5000 
     95 CA         -2.6401  -20.7230  -53.4363 C.3       17 UNK         0.1400 
     96 CB         -3.1007  -19.5500  -52.5646 C.3       17 UNK        -0.1800 
     97 C          -3.8476  -21.5860  -53.8482 C.2       17 UNK         0.5000 
     98 O          -4.6729  -21.1227  -54.6335 O.2       17 UNK        -0.5000 
     99 N          -3.9382  -22.8223  -53.3349 N.am      18 UNK        -0.5000 
    100 CA        -4.9598  -23.8173  -53.6802 C.3       18 UNK         0.1400 
    101 CB        -4.8016  -25.0370  -52.7622 C.3       18 UNK        -0.1800 
    102 C         -4.9466  -24.2442  -55.1624 C.2       18 UNK         0.5000 
    103 O         -5.9637  -24.7188  -55.6675 O.2       18 UNK        -0.5000 
    104 N         -3.8075  -24.0431  -55.8380 N.am      19 UNK        -0.5000 
    105 CA        -3.6440  -24.2259  -57.2793 C.3       19 UNK         0.1400 
    106 CB        -2.1450  -24.3934  -57.5761 C.3       19 UNK        -0.1800 
    107 C         -4.2344  -23.0679  -58.1143 C.2       19 UNK         0.5000 
    108 O         -4.3034  -23.1942  -59.3381 O.2       19 UNK        -0.5000 
    109 N         -4.6232  -21.9617  -57.4656 N.am      20 UNK        -0.5000 
    110 CA        -5.1194  -20.7457  -58.0968 C.3       20 UNK         0.1400 
    111 CB        -3.9382  -19.7803  -58.3339 C.3       20 UNK        -0.1800 
    112 C         -6.2628  -20.1604  -57.2489 C.2       20 UNK         0.5000 
    113 O         -7.3331  -20.7677  -57.1836 O.2       20 UNK        -0.5000 
    114 N         -6.0259  -18.9956  -56.6293 N.am      21 UNK        -0.5000 
    115 CA        -7.0014  -18.1514  -55.9324 C.3       21 UNK         0.1400 
    116 CB        -6.2732  -16.9180  -55.3754 C.3       21 UNK        -0.1800 
    117 C         -7.8159  -18.8322  -54.8152 C.2       21 UNK         0.5000 
    118 O         -8.9746  -18.4625  -54.6174 O.2       21 UNK        -0.5000 
    119 N         -7.2136  -19.8006  -54.1162 N.am      22 UNK        -0.5000 
    120 CA        -7.8647  -20.5867  -53.0532 C.3       22 UNK         0.1400 
    121 C         -8.3963  -21.9627  -53.5517 C.2       22 UNK         0.5000 
    122 N         -8.3314  -22.2842  -54.8387 N.am      22 UNK        -0.7600 
    123 O         -8.8864  -22.7583  -52.7554 O.2       22 UNK        -0.5000 
    124 C124       -6.9643  -20.7329  -51.7960 C.3       23 UNK        -0.0398 
    125 S125       -6.4789  -19.1204  -51.0951 S.3       23 UNK        -0.2404 
    126 C126       -5.6893  -19.6307  -49.5380 C.3       23 UNK        -0.0205 
    127 H127        2.5055  -12.2416  -50.9734 H         1 UNK         0.0600 
    128 H128        3.6583  -13.5795  -51.0089 H         1 UNK         0.0600 
    129 H129        3.9747  -12.1675  -49.9951 H         1 UNK         0.0600 
    130 H130        0.6807  -12.7359  -49.7598 H         1 UNK         0.3000 
    131 H131        0.5752  -14.9774  -48.0543 H         1 UNK         0.0600 
    132 H132       -1.4444  -12.7406  -48.5124 H         1 UNK         0.0800 
    133 H133       -1.7630  -14.0583  -47.4205 H         1 UNK         0.0800 
    134 H134       -1.1909  -16.4731  -47.9961 H         1 UNK         0.0800 
    135 H135       -1.3523  -17.1829  -49.5748 H         1 UNK         0.0800 
    136 H136       -3.2215  -18.5391  -49.9046 H         1 UNK         0.1150 
    137 H137       -6.8039  -18.0590  -47.6087 H         1 UNK         0.1150 
    138 H138       -3.5275  -15.3577  -47.0530 H         1 UNK         0.1150 
    139 H139       -7.1000  -16.0776  -46.2452 H         1 UNK         0.0800 
    140 H140       -5.9080  -14.8061  -46.2991 H         1 UNK         0.0800 
    141 H141       -6.7090  -18.2795  -45.1146 H         1 UNK         0.0800 
    142 H142       -6.4555  -18.2195  -43.3940 H         1 UNK         0.0800 
    143 H143       -4.2320  -18.7250  -45.4240 H         1 UNK         0.0600 
    144 H144       -4.2975  -18.7710  -42.4658 H         1 UNK         0.3000 
    145 H145       -2.2714  -19.8021  -45.3382 H         1 UNK         0.0600 
    146 H146       -0.8922  -17.1501  -44.6607 H         1 UNK         0.0600 
    147 H147       -0.9209  -17.9359  -46.2389 H         1 UNK         0.0600 
    148 H148       -2.3985  -17.3090  -45.5303 H         1 UNK         0.0600 
    149 H149        0.2598  -19.2502  -43.8781 H         1 UNK         0.3000 
    150 H150        1.1012  -22.6806  -43.7972 H         1 UNK         0.0600 
    151 H151        2.4208  -20.4248  -45.4067 H         1 UNK         0.0600 
    152 H152        2.0127  -22.0220  -46.0167 H         1 UNK         0.0600 
    153 H153        3.2401  -21.8505  -44.7735 H         1 UNK         0.0600 
    154 H154        2.1076  -20.0084  -43.0091 H         1 UNK         0.3000 
    155 H155        0.9038  -19.4467  -40.4253 H         1 UNK         0.0600 
    156 H156        2.1760  -20.0946  -38.3618 H         1 UNK         0.0600 
    157 H157        2.6004  -21.6326  -39.1138 H         1 UNK         0.0600 
    158 H158        0.9205  -21.2524  -38.7674 H         1 UNK         0.0600 
    159 H159        2.7443  -18.4217  -41.0199 H         1 UNK         0.3000 
    160 H160        6.0870  -18.9528  -40.9155 H         1 UNK         0.0600 
    161 H161        4.7876  -19.1094  -43.6887 H         1 UNK         0.0600 
    162 H162        6.0330  -20.1872  -43.0732 H         1 UNK         0.0600 
    163 H163        6.4037  -18.4928  -43.3509 H         1 UNK         0.0600 
    164 H164        4.5036  -17.0351  -42.3972 H         1 UNK         0.3000 
    165 H165        3.6184  -15.0338  -39.5846 H         1 UNK         0.0600 
    166 H166        5.5093  -14.4880  -41.9345 H         1 UNK         0.0600 
    167 H167        4.6207  -13.2716  -41.0207 H         1 UNK         0.0600 
    168 H168        5.8769  -14.2178  -40.2365 H         1 UNK         0.0600 
    169 H169        3.0446  -14.7568  -42.3580 H         1 UNK         0.3000 
    170 H170        0.1321  -16.8573  -42.4232 H         1 UNK         0.0600 
    171 H171       -0.5925  -14.6203  -41.5646 H         1 UNK         0.0600 
    172 H172        0.5069  -13.8289  -42.6890 H         1 UNK         0.0600 
    173 H173       -0.8525  -14.7737  -43.2947 H         1 UNK         0.0600 
    174 H174        1.3965  -15.3119  -44.4555 H         1 UNK         0.3000 
    175 H175        3.6432  -17.8897  -45.5840 H         1 UNK         0.0600 
    176 H176        1.0743  -16.7407  -46.7744 H         1 UNK         0.0600 
    177 H177        2.4367  -17.3364  -47.7228 H         1 UNK         0.0600 
    178 H178        1.5247  -18.4355  -46.6977 H         1 UNK         0.0600 
    179 H179        3.1953  -15.2512  -46.5541 H         1 UNK         0.3000 
    180 H180        5.4989  -13.5814  -44.3766 H         1 UNK         0.0600 
    181 H181        5.5893  -14.2574  -47.3660 H         1 UNK         0.0600 
    182 H182        6.8781  -14.5383  -46.2041 H         1 UNK         0.0600 
    183 H183        6.3953  -12.8941  -46.5914 H         1 UNK         0.0600 
    184 H184        3.7372  -12.8097  -46.5494 H         1 UNK         0.3000 
    185 H185        1.0241  -11.8081  -44.4496 H         1 UNK         0.0600 
    186 H186        2.6363   -9.8989  -44.4110 H         1 UNK         0.0600 
    187 H187        3.0346  -10.1833  -46.1012 H         1 UNK         0.0600 
    188 H188        1.4088   -9.6726  -45.6465 H         1 UNK         0.0600 
    189 H189        1.4618  -11.6967  -47.2842 H         1 UNK         0.3000 
    190 H190       -3.9211  -20.7846  -46.2041 H         1 UNK         0.3000 
    191 H191       -5.8579  -22.8107  -45.8981 H         1 UNK         0.0600 
    192 H192       -4.3380  -24.5405  -44.8566 H         1 UNK         0.0600 
    193 H193       -4.6571  -23.2530  -43.7162 H         1 UNK         0.0600 
    194 H194       -3.1180  -23.3085  -44.5668 H         1 UNK         0.0600 
    195 H195       -4.9603  -24.8118  -47.1107 H         1 UNK         0.3000 
    196 H196       -4.0608  -24.0409  -49.6816 H         1 UNK         0.0600 
    197 H197       -4.0597  -26.5237  -50.0923 H         1 UNK         0.0600 
    198 H198       -5.5290  -25.9966  -49.2883 H         1 UNK         0.0600 
    199 H199       -4.2604  -26.8080  -48.3687 H         1 UNK         0.0600 
    200 H200       -2.2384  -24.9158  -46.8549 H         1 UNK         0.3000 
    201 H201        0.1866  -25.8171  -48.0141 H         1 UNK         0.0600 
    202 H202       -0.3432  -26.1775  -45.6440 H         1 UNK         0.0600 
    203 H203        1.1304  -25.2285  -45.7516 H         1 UNK         0.0600 
    204 H204       -0.3878  -24.4442  -45.3363 H         1 UNK         0.0600 
    205 H205       -1.1593  -22.6066  -47.9069 H         1 UNK         0.3000 
    206 H206        1.2821  -21.1297  -48.3592 H         1 UNK         0.0600 
    207 H207       -0.8178  -20.1170  -47.4412 H         1 UNK         0.0600 
    208 H208       -0.2820  -19.2911  -48.8937 H         1 UNK         0.0600 
    209 H209       -1.6364  -20.4136  -48.9718 H         1 UNK         0.0600 
    210 H210       -0.3590  -23.3498  -50.3143 H         1 UNK         0.3000 
    211 H211       -0.0994  -24.1351  -52.3226 H         1 UNK         0.0600 
    212 H212        2.0150  -22.0148  -52.9503 H         1 UNK         0.0600 
    213 H213        1.7378  -23.5196  -53.8087 H         1 UNK         0.0600 
    214 H214        2.3359  -23.5584  -52.1582 H         1 UNK         0.0600 
    215 H215       -1.5025  -21.2697  -51.7328 H         1 UNK         0.3000 
    216 H216       -2.2021  -20.3197  -54.3517 H         1 UNK         0.0600 
    217 H217       -3.5571  -19.9107  -51.6448 H         1 UNK         0.0600 
    218 H218       -3.8423  -18.9389  -53.0815 H         1 UNK         0.0600 
    219 H219       -2.2683  -18.8977  -52.2998 H         1 UNK         0.0600 
    220 H220       -3.2186  -23.1198  -52.6935 H         1 UNK         0.3000 
    221 H221       -5.9359  -23.3748  -53.4855 H         1 UNK         0.0600 
    222 H222       -3.8018  -25.4679  -52.8280 H         1 UNK         0.0600 
    223 H223       -4.9883  -24.7650  -51.7251 H         1 UNK         0.0600 
    224 H224       -5.5163  -25.8199  -53.0200 H         1 UNK         0.0600 
    225 H225       -3.0149  -23.6570  -55.3430 H         1 UNK         0.3000 
    226 H226       -4.1569  -25.1419  -57.5797 H         1 UNK         0.0600 
    227 H227       -1.7281  -25.2431  -57.0351 H         1 UNK         0.0600 
    228 H228       -1.9713  -24.5696  -58.6384 H         1 UNK         0.0600 
    229 H229       -1.5782  -23.5053  -57.2928 H         1 UNK         0.0600 
    230 H230       -4.5904  -21.9374  -56.4517 H         1 UNK         0.3000 
    231 H231       -5.5613  -20.9845  -59.0663 H         1 UNK         0.0600 
    232 H232       -4.2731  -18.8461  -58.7867 H         1 UNK         0.0600 
    233 H233       -3.2103  -20.2201  -59.0161 H         1 UNK         0.0600 
    234 H234       -3.4144  -19.5414  -57.4074 H         1 UNK         0.0600 
    235 H235       -5.0989  -18.6065  -56.7166 H         1 UNK         0.3000 
    236 H236       -7.7165  -17.8109  -56.6838 H         1 UNK         0.0600 
    237 H237       -5.5089  -17.1993  -54.6495 H         1 UNK         0.0600 
    238 H238       -5.7907  -16.3492  -56.1705 H         1 UNK         0.0600 
    239 H239       -6.9696  -16.2447  -54.8735 H         1 UNK         0.0600 
    240 H240       -6.2730  -20.0871  -54.3718 H         1 UNK         0.3000 
    241 H241       -8.7595  -20.0573  -52.7215 H         1 UNK         0.0600 
    242 H242       -7.9547  -21.6407  -55.5277 H         1 UNK         0.3800 
    243 H243       -8.6739  -23.1823  -55.1399 H         1 UNK         0.3800 
    244 H244       -7.4872  -21.2906  -51.0170 H         1 UNK         0.0800 
    245 H245       -6.0645  -21.3008  -52.0266 H         1 UNK         0.0800 
    246 H246       -4.9198  -20.3788  -49.7350 H         1 UNK         0.0800 
    247 H247       -6.4283  -20.1122  -48.8958 H         1 UNK         0.0800 
@<TRIPOS>BOND
     1    1    2 1    
     2    1  127 1    
     3    1  128 1    
     4    1  129 1    
     5    2    3 2    
     6    2    4 am   BACKBONE|DICT|INTERRES
     7    4    5 1    
     8    4  130 1    
     9    5    6 1    
    10    5   65 1    
    11    5  131 1    
    12    6    7 1    
    13    6  132 1    
    14    6  133 1    
    15    7    8 1    
    16    8    9 1    
    17    8  134 1    
    18    8  135 1    
    19    9   10 ar   
    20    9   14 ar   
    21   10   11 ar   
    22   10  136 1    
    23   11   12 ar   
    24   11  126 1    
    25   12   13 ar   
    26   12  137 1    
    27   13   14 ar   
    28   13   15 1    
    29   14  138 1    
    30   15   16 1    
    31   15  139 1    
    32   15  140 1    
    33   16   17 1    
    34   17   18 1    
    35   17  141 1    
    36   17  142 1    
    37   18   19 1    
    38   18   67 1    
    39   18  143 1    
    40   19   20 am   BACKBONE|DICT|INTERRES
    41   19  144 1    
    42   20   21 2    
    43   20   22 1    
    44   22   23 1    
    45   22   24 1    
    46   22  145 1    
    47   23  146 1    
    48   23  147 1    
    49   23  148 1    
    50   24   25 am   BACKBONE|DICT|INTERRES
    51   24  149 1    
    52   25   26 2    
    53   25   27 1    
    54   27   28 1    
    55   27   29 1    
    56   27  150 1    
    57   28  151 1    
    58   28  152 1    
    59   28  153 1    
    60   29   30 am   BACKBONE|DICT|INTERRES
    61   29  154 1    
    62   30   31 2    
    63   30   32 1    
    64   32   33 1    
    65   32   34 1    
    66   32  155 1    
    67   33  156 1    
    68   33  157 1    
    69   33  158 1    
    70   34   35 am   BACKBONE|DICT|INTERRES
    71   34  159 1    
    72   35   36 2    
    73   35   37 1    
    74   37   38 1    
    75   37   39 1    
    76   37  160 1    
    77   38  161 1    
    78   38  162 1    
    79   38  163 1    
    80   39   40 am   BACKBONE|DICT|INTERRES
    81   39  164 1    
    82   40   41 2    
    83   40   42 1    
    84   42   43 1    
    85   42   44 1    
    86   42  165 1    
    87   43  166 1    
    88   43  167 1    
    89   43  168 1    
    90   44   45 am   BACKBONE|DICT|INTERRES
    91   44  169 1    
    92   45   46 2    
    93   45   47 1    
    94   47   48 1    
    95   47   49 1    
    96   47  170 1    
    97   48  171 1    
    98   48  172 1    
    99   48  173 1    
   100   49   50 am   BACKBONE|DICT|INTERRES
   101   49  174 1    
   102   50   51 2    
   103   50   52 1    
   104   52   53 1    
   105   52   54 1    
   106   52  175 1    
   107   53  176 1    
   108   53  177 1    
   109   53  178 1    
   110   54   55 am   BACKBONE|DICT|INTERRES
   111   54  179 1    
   112   55   56 2    
   113   55   57 1    
   114   57   58 1    
   115   57   59 1    
   116   57  180 1    
   117   58  181 1    
   118   58  182 1    
   119   58  183 1    
   120   59   60 am   BACKBONE|DICT|INTERRES
   121   59  184 1    
   122   60   61 2    
   123   60   62 1    
   124   62   63 1    
   125   62   64 1    
   126   62  185 1    
   127   63  186 1    
   128   63  187 1    
   129   63  188 1    
   130   64   65 am   BACKBONE|DICT|INTERRES
   131   64  189 1    
   132   65   66 2    
   133   67   68 2    
   134   67   69 am   BACKBONE|DICT|INTERRES
   135   69   70 1    
   136   69  190 1    
   137   70   71 1    
   138   70   72 1    
   139   70  191 1    
   140   71  192 1    
   141   71  193 1    
   142   71  194 1    
   143   72   73 2    
   144   72   74 am   BACKBONE|DICT|INTERRES
   145   74   75 1    
   146   74  195 1    
   147   75   76 1    
   148   75   77 1    
   149   75  196 1    
   150   76  197 1    
   151   76  198 1    
   152   76  199 1    
   153   77   78 2    
   154   77   79 am   BACKBONE|DICT|INTERRES
   155   79   80 1    
   156   79  200 1    
   157   80   81 1    
   158   80   82 1    
   159   80  201 1    
   160   81  202 1    
   161   81  203 1    
   162   81  204 1    
   163   82   83 2    
   164   82   84 am   BACKBONE|DICT|INTERRES
   165   84   85 1    
   166   84  205 1    
   167   85   86 1    
   168   85   87 1    
   169   85  206 1    
   170   86  207 1    
   171   86  208 1    
   172   86  209 1    
   173   87   88 2    
   174   87   89 am   BACKBONE|DICT|INTERRES
   175   89   90 1    
   176   89  210 1    
   177   90   91 1    
   178   90   92 1    
   179   90  211 1    
   180   91  212 1    
   181   91  213 1    
   182   91  214 1    
   183   92   93 2    
   184   92   94 am   BACKBONE|DICT|INTERRES
   185   94   95 1    
   186   94  215 1    
   187   95   96 1    
   188   95   97 1    
   189   95  216 1    
   190   96  217 1    
   191   96  218 1    
   192   96  219 1    
   193   97   98 2    
   194   97   99 am   BACKBONE|DICT|INTERRES
   195   99  100 1    
   196   99  220 1    
   197  100  101 1    
   198  100  102 1    
   199  100  221 1    
   200  101  222 1    
   201  101  223 1    
   202  101  224 1    
   203  102  103 2    
   204  102  104 am   BACKBONE|DICT|INTERRES
   205  104  105 1    
   206  104  225 1    
   207  105  106 1    
   208  105  107 1    
   209  105  226 1    
   210  106  227 1    
   211  106  228 1    
   212  106  229 1    
   213  107  108 2    
   214  107  109 am   BACKBONE|DICT|INTERRES
   215  109  110 1    
   216  109  230 1    
   217  110  111 1    
   218  110  112 1    
   219  110  231 1    
   220  111  232 1    
   221  111  233 1    
   222  111  234 1    
   223  112  113 2    
   224  112  114 am   BACKBONE|DICT|INTERRES
   225  114  115 1    
   226  114  235 1    
   227  115  116 1    
   228  115  117 1    
   229  115  236 1    
   230  116  237 1    
   231  116  238 1    
   232  116  239 1    
   233  117  118 2    
   234  117  119 am   BACKBONE|DICT|INTERRES
   235  119  120 1    
   236  119  240 1    
   237  120  121 1    
   238  120  124 1    
   239  120  241 1    
   240  121  122 am   BACKBONE|DICT|INTERRES
   241  121  123 2    
   242  122  242 1    
   243  122  243 1    
   244  124  125 1    
   245  124  244 1    
   246  124  245 1    
   247  125  126 1    
   248  126  246 1    
   249  126  247 1    
@<TRIPOS>SUBSTRUCTURE
     1 UNK         1 GROUP             0       ****    0 ROOT    
