@<TRIPOS>MOLECULE
3R540
247   249    1
SMALL
USER_CHARGES


@<TRIPOS>ATOM
      1 CA          4.6759  -10.5448  -48.6619 C.3       0 UNK        -0.1800 
      2 C           3.2098  -10.9368  -48.5466 C.2       0 UNK         0.5000 
      3 O           2.3340  -10.1165  -48.8197 O.2       0 UNK        -0.5000 
      4 N           2.9429  -12.1855  -48.1366 N.am      1 UNK        -0.5000 
      5 CA          1.6052  -12.7732  -47.9564 C.3       1 UNK         0.1400 
      6 C6          0.7911  -12.8214  -49.2819 C.3       23 UNK        -0.0398 
      7 S7         -0.2530  -14.3086  -49.4564 S.3       23 UNK        -0.2404 
      8 C8          0.9672  -15.5306  -50.0335 C.3       23 UNK        -0.0205 
      9 C9          0.2936  -16.7251  -50.6920 C.ar      23 UNK        -0.0193 
     10 C10         0.2144  -16.8012  -52.0873 C.ar      23 UNK        -0.1150 
     11 C11        -0.3910  -17.8988  -52.7065 C.ar      23 UNK        -0.0193 
     12 C12        -0.9147  -18.9222  -51.9163 C.ar      23 UNK        -0.1150 
     13 C13        -0.8358  -18.8670  -50.5247 C.ar      23 UNK        -0.0193 
     14 C14        -0.2332  -17.7628  -49.9142 C.ar      23 UNK        -0.1150 
     15 C15        -1.4028  -20.0105  -49.7004 C.3       23 UNK        -0.0205 
     16 S16        -0.1331  -21.2744  -49.3606 S.3       23 UNK        -0.2404 
     17 C17         0.1193  -21.0492  -47.5646 C.3       23 UNK        -0.0398 
     18 CA         -0.6072  -22.0819  -46.6640 C.3       11 UNK         0.1400 
     19 N          -0.4035  -21.7827  -45.2443 N.am      11 UNK        -0.5000 
     20 C          -0.8193  -22.5448  -44.2221 C.2       10 UNK         0.5000 
     21 O          -1.3528  -23.6456  -44.3563 O.2       10 UNK        -0.5000 
     22 CA         -0.6765  -21.9392  -42.8153 C.3       10 UNK         0.1400 
     23 CB          0.7527  -22.1098  -42.2788 C.3       10 UNK        -0.1800 
     24 N          -1.0500  -20.5235  -42.7955 N.am      10 UNK        -0.5000 
     25 C          -2.2999  -20.0693  -42.9731 C.2       9 UNK         0.5000 
     26 O          -3.2775  -20.8011  -43.1229 O.2       9 UNK        -0.5000 
     27 CA         -2.4764  -18.5407  -43.0433 C.3       9 UNK         0.1400 
     28 CB         -2.5595  -17.9360  -41.6339 C.3       9 UNK        -0.1800 
     29 N          -1.3955  -17.8939  -43.7883 N.am      9 UNK        -0.5000 
     30 C          -1.1891  -18.0425  -45.1048 C.2       8 UNK         0.5000 
     31 O          -1.9241  -18.6941  -45.8443 O.2       8 UNK        -0.5000 
     32 CA          0.0893  -17.4103  -45.6774 C.3       8 UNK         0.1400 
     33 CB         -0.1722  -15.9816  -46.1673 C.3       8 UNK        -0.1800 
     34 N           1.1853  -17.4123  -44.7104 N.am      8 UNK        -0.5000 
     35 C           1.8386  -18.5117  -44.3081 C.2       7 UNK         0.5000 
     36 O           1.5498  -19.6415  -44.7070 O.2       7 UNK        -0.5000 
     37 CA          2.9559  -18.3278  -43.2565 C.3       7 UNK         0.1400 
     38 CB          4.1034  -19.3436  -43.4286 C.3       7 UNK        -0.1800 
     39 N           3.4657  -16.9533  -43.1735 N.am      7 UNK        -0.5000 
     40 C           4.1088  -16.2556  -44.1240 C.2       6 UNK         0.5000 
     41 O           4.4576  -16.7328  -45.2040 O.2       6 UNK        -0.5000 
     42 CA          4.3668  -14.7601  -43.8490 C.3       6 UNK         0.1400 
     43 CB          3.7403  -13.8984  -44.9551 C.3       6 UNK        -0.1800 
     44 N           3.8067  -14.3292  -42.5671 N.am      6 UNK        -0.5000 
     45 C           4.5072  -14.1474  -41.4400 C.2       5 UNK         0.5000 
     46 O           5.7315  -14.2584  -41.3682 O.2       5 UNK        -0.5000 
     47 CA          3.7025  -13.8150  -40.1669 C.3       5 UNK         0.1400 
     48 CB          3.6839  -12.2996  -39.9164 C.3       5 UNK        -0.1800 
     49 N           2.3263  -14.3199  -40.2036 N.am      5 UNK        -0.5000 
     50 C           1.9963  -15.6196  -40.1800 C.2       4 UNK         0.5000 
     51 O           2.8225  -16.5290  -40.1110 O.2       4 UNK        -0.5000 
     52 CA          0.5045  -15.9781  -40.3152 C.3       4 UNK         0.1400 
     53 CB         -0.1304  -16.1800  -38.9318 C.3       4 UNK        -0.1800 
     54 N          -0.2865  -15.0013  -41.0675 N.am      4 UNK        -0.5000 
     55 C          -0.0871  -14.6583  -42.3467 C.2       3 UNK         0.5000 
     56 O           0.8220  -15.1292  -43.0349 O.2       3 UNK        -0.5000 
     57 CA         -1.0665  -13.6390  -42.9702 C.3       3 UNK         0.1400 
     58 CB         -1.9406  -12.8965  -41.9348 C.3       3 UNK        -0.1800 
     59 N          -0.3947  -12.6735  -43.8449 N.am      3 UNK        -0.5000 
     60 C           0.6107  -11.8504  -43.5201 C.2       2 UNK         0.5000 
     61 O           1.1582  -11.8446  -42.4158 O.2       2 UNK        -0.5000 
     62 CA          1.0712  -10.8705  -44.6211 C.3       2 UNK         0.1400 
     63 CB          2.1684   -9.9084  -44.1298 C.3       2 UNK        -0.1800 
     64 N           1.5621  -11.5500  -45.8201 N.am      2 UNK        -0.5000 
     65 C           0.8273  -12.1536  -46.7651 C.2       1 UNK         0.5000 
     66 O          -0.4004  -12.2393  -46.7055 O.2       1 UNK        -0.5000 
     67 C          -2.1097  -22.2275  -46.9951 C.2       11 UNK         0.5000 
     68 O          -2.4950  -23.2231  -47.6031 O.2       11 UNK        -0.5000 
     69 N          -2.9361  -21.2676  -46.5554 N.am      12 UNK        -0.5000 
     70 CA         -4.3884  -21.2818  -46.7398 C.3       12 UNK         0.1400 
     71 CB         -4.9812  -19.9465  -46.2673 C.3       12 UNK        -0.1800 
     72 C          -5.0809  -22.4687  -46.0428 C.2       12 UNK         0.5000 
     73 O          -5.9947  -23.0554  -46.6226 O.2       12 UNK        -0.5000 
     74 N          -4.6200  -22.8175  -44.8330 N.am      13 UNK        -0.5000 
     75 CA         -5.1013  -23.9636  -44.0596 C.3       13 UNK         0.1400 
     76 CB         -4.5573  -23.8824  -42.6251 C.3       13 UNK        -0.1800 
     77 C          -4.7438  -25.3156  -44.7059 C.2       13 UNK         0.5000 
     78 O          -5.5925  -26.2070  -44.7546 O.2       13 UNK        -0.5000 
     79 N          -3.5052  -25.4408  -45.2028 N.am      14 UNK        -0.5000 
     80 CA         -3.0137  -26.6211  -45.9201 C.3       14 UNK         0.1400 
     81 CB         -1.4789  -26.5665  -45.9707 C.3       14 UNK        -0.1800 
     82 C          -3.5820  -26.7458  -47.3476 C.2       14 UNK         0.5000 
     83 O          -3.6161  -27.8488  -47.8955 O.2       14 UNK        -0.5000 
     84 N          -3.9770  -25.6071  -47.9298 N.am      15 UNK        -0.5000 
     85 CA         -4.4064  -25.3510  -49.3049 C.3       15 UNK         0.1400 
     86 CB         -5.6251  -26.1992  -49.7141 C.3       15 UNK        -0.1800 
     87 C          -3.2482  -25.4671  -50.3106 C.2       15 UNK         0.5000 
     88 O          -2.9519  -24.4970  -51.0105 O.2       15 UNK        -0.5000 
     89 N          -2.6165  -26.6505  -50.3521 N.am      16 UNK        -0.5000 
     90 CA         -1.3879  -26.9971  -51.0796 C.3       16 UNK         0.1400 
     91 CB         -0.1817  -26.3376  -50.3788 C.3       16 UNK        -0.1800 
     92 C          -1.4228  -26.6863  -52.5934 C.2       16 UNK         0.5000 
     93 O          -0.3789  -26.4031  -53.1827 O.2       16 UNK        -0.5000 
     94 N          -2.6290  -26.6804  -53.1822 N.am      17 UNK        -0.5000 
     95 CA         -3.0030  -26.2323  -54.5339 C.3       17 UNK         0.1400 
     96 CB         -2.2951  -27.0609  -55.6221 C.3       17 UNK        -0.1800 
     97 C          -2.8233  -24.7174  -54.7837 C.2       17 UNK         0.5000 
     98 O          -3.6152  -24.1314  -55.5219 O.2       17 UNK        -0.5000 
     99 N          -1.8179  -24.0992  -54.1532 N.am      18 UNK        -0.5000 
    100 CA        -1.4800  -22.6804  -54.2360 C.3       18 UNK         0.1400 
    101 CB        -0.2120  -22.4172  -53.4105 C.3       18 UNK        -0.1800 
    102 C         -2.6174  -21.7495  -53.7858 C.2       18 UNK         0.5000 
    103 O         -2.8235  -20.7091  -54.4109 O.2       18 UNK        -0.5000 
    104 N         -3.3570  -22.1335  -52.7349 N.am      19 UNK        -0.5000 
    105 CA        -4.4945  -21.3623  -52.2258 C.3       19 UNK         0.1400 
    106 CB        -4.9795  -21.9621  -50.9002 C.3       19 UNK        -0.1800 
    107 C         -5.6574  -21.2726  -53.2313 C.2       19 UNK         0.5000 
    108 O         -6.3386  -20.2495  -53.2748 O.2       19 UNK        -0.5000 
    109 N         -5.8417  -22.3190  -54.0485 N.am      20 UNK        -0.5000 
    110 CA        -6.8258  -22.3447  -55.1312 C.3       20 UNK         0.1400 
    111 CB        -7.0866  -23.7984  -55.5548 C.3       20 UNK        -0.1800 
    112 C         -6.3943  -21.4871  -56.3366 C.2       20 UNK         0.5000 
    113 O         -7.2580  -20.9676  -57.0441 O.2       20 UNK        -0.5000 
    114 N         -5.0773  -21.3431  -56.5431 N.am      21 UNK        -0.5000 
    115 CA        -4.4915  -20.4929  -57.5774 C.3       21 UNK         0.1400 
    116 CB        -3.0443  -20.9311  -57.8560 C.3       21 UNK        -0.1800 
    117 C         -4.5642  -19.0021  -57.2003 C.2       21 UNK         0.5000 
    118 O         -5.0099  -18.1957  -58.0183 O.2       21 UNK        -0.5000 
    119 N         -4.1373  -18.6638  -55.9755 N.am      22 UNK        -0.5000 
    120 CA        -4.1894  -17.2931  -55.4379 C.3       22 UNK         0.1400 
    121 C         -5.6075  -16.8291  -54.9969 C.2       22 UNK         0.5000 
    122 N         -6.5179  -17.7123  -54.6102 N.am      22 UNK        -0.7600 
    123 O         -5.8932  -15.6349  -55.0186 O.2       22 UNK        -0.5000 
    124 C124       -3.1495  -17.0679  -54.3087 C.3       23 UNK        -0.0398 
    125 S125       -1.4889  -16.7100  -54.9787 S.3       23 UNK        -0.2404 
    126 C126       -0.4546  -18.0032  -54.2249 C.3       23 UNK        -0.0205 
    127 H127        5.3389  -11.3642  -48.3831 H         1 UNK         0.0600 
    128 H128        4.8899   -9.6978  -48.0100 H         1 UNK         0.0600 
    129 H129        4.9068  -10.2544  -49.6869 H         1 UNK         0.0600 
    130 H130        3.7160  -12.8073  -47.9444 H         1 UNK         0.3000 
    131 H131        1.8131  -13.7998  -47.6559 H         1 UNK         0.0600 
    132 H132        0.1624  -11.9355  -49.3877 H         1 UNK         0.0800 
    133 H133        1.4617  -12.7932  -50.1417 H         1 UNK         0.0800 
    134 H134        1.6562  -15.0626  -50.7382 H         1 UNK         0.0800 
    135 H135        1.5720  -15.8652  -49.1895 H         1 UNK         0.0800 
    136 H136        0.6237  -16.0065  -52.6952 H         1 UNK         0.1150 
    137 H137       -1.3777  -19.7746  -52.3834 H         1 UNK         0.1150 
    138 H138       -0.1714  -17.7116  -48.8372 H         1 UNK         0.1150 
    139 H139       -1.8431  -19.6257  -48.7795 H         1 UNK         0.0800 
    140 H140       -2.2215  -20.4865  -50.2410 H         1 UNK         0.0800 
    141 H141        1.1922  -21.0996  -47.3744 H         1 UNK         0.0800 
    142 H142       -0.1735  -20.0386  -47.2920 H         1 UNK         0.0800 
    143 H143       -0.1492  -23.0557  -46.8499 H         1 UNK         0.0600 
    144 H144        0.0867  -20.9195  -45.0311 H         1 UNK         0.3000 
    145 H145       -1.3537  -22.4783  -42.1493 H         1 UNK         0.0600 
    146 H146        0.8430  -21.7188  -41.2653 H         1 UNK         0.0600 
    147 H147        1.0303  -23.1640  -42.2456 H         1 UNK         0.0600 
    148 H148        1.4868  -21.5996  -42.9021 H         1 UNK         0.0600 
    149 H149       -0.2983  -19.8575  -42.7135 H         1 UNK         0.3000 
    150 H150       -3.4162  -18.3344  -43.5600 H         1 UNK         0.0600 
    151 H151       -3.3993  -18.3579  -41.0804 H         1 UNK         0.0600 
    152 H152       -2.7073  -16.8567  -41.6733 H         1 UNK         0.0600 
    153 H153       -1.6569  -18.1328  -41.0553 H         1 UNK         0.0600 
    154 H154       -0.7327  -17.3456  -43.2617 H         1 UNK         0.3000 
    155 H155        0.4054  -18.0004  -46.5375 H         1 UNK         0.0600 
    156 H156        0.7276  -15.5521  -46.6038 H         1 UNK         0.0600 
    157 H157       -0.5011  -15.3251  -45.3643 H         1 UNK         0.0600 
    158 H158       -0.9463  -15.9696  -46.9355 H         1 UNK         0.0600 
    159 H159        1.4066  -16.5234  -44.2727 H         1 UNK         0.3000 
    160 H160        2.4882  -18.5280  -42.2917 H         1 UNK         0.0600 
    161 H161        4.5702  -19.2680  -44.4109 H         1 UNK         0.0600 
    162 H162        3.7404  -20.3662  -43.3208 H         1 UNK         0.0600 
    163 H163        4.8773  -19.1950  -42.6756 H         1 UNK         0.0600 
    164 H164        3.2538  -16.4712  -42.3096 H         1 UNK         0.3000 
    165 H165        5.4475  -14.6066  -43.8664 H         1 UNK         0.0600 
    166 H166        2.6611  -14.0477  -45.0081 H         1 UNK         0.0600 
    167 H167        3.9307  -12.8402  -44.7774 H         1 UNK         0.0600 
    168 H168        4.1575  -14.1445  -45.9321 H         1 UNK         0.0600 
    169 H169        2.7990  -14.2278  -42.5335 H         1 UNK         0.3000 
    170 H170        4.2115  -14.2899  -39.3254 H         1 UNK         0.0600 
    171 H171        4.6977  -11.9081  -39.8234 H         1 UNK         0.0600 
    172 H172        3.2004  -11.7612  -40.7316 H         1 UNK         0.0600 
    173 H173        3.1568  -12.0574  -38.9935 H         1 UNK         0.0600 
    174 H174        1.5931  -13.6324  -40.3095 H         1 UNK         0.3000 
    175 H175        0.4541  -16.9260  -40.8542 H         1 UNK         0.0600 
    176 H176       -0.1325  -15.2561  -38.3521 H         1 UNK         0.0600 
    177 H177       -1.1607  -16.5264  -39.0157 H         1 UNK         0.0600 
    178 H178        0.4160  -16.9281  -38.3558 H         1 UNK         0.0600 
    179 H179       -1.0423  -14.5573  -40.5660 H         1 UNK         0.3000 
    180 H180       -1.7353  -14.2168  -43.6088 H         1 UNK         0.0600 
    181 H181       -1.3380  -12.3433  -41.2131 H         1 UNK         0.0600 
    182 H182       -2.5800  -13.5860  -41.3823 H         1 UNK         0.0600 
    183 H183       -2.6013  -12.1819  -42.4260 H         1 UNK         0.0600 
    184 H184       -0.7206  -12.6368  -44.8063 H         1 UNK         0.3000 
    185 H185        0.2029  -10.2689  -44.8975 H         1 UNK         0.0600 
    186 H186        2.4358   -9.1872  -44.9023 H         1 UNK         0.0600 
    187 H187        3.0742  -10.4435  -43.8413 H         1 UNK         0.0600 
    188 H188        1.8315   -9.3408  -43.2614 H         1 UNK         0.0600 
    189 H189        2.5618  -11.5345  -45.9533 H         1 UNK         0.3000 
    190 H190       -2.5462  -20.4450  -46.1024 H         1 UNK         0.3000 
    191 H191       -4.5812  -21.3737  -47.8103 H         1 UNK         0.0600 
    192 H192       -4.5576  -19.1094  -46.8225 H         1 UNK         0.0600 
    193 H193       -6.0612  -19.9233  -46.4175 H         1 UNK         0.0600 
    194 H194       -4.7925  -19.7748  -45.2075 H         1 UNK         0.0600 
    195 H195       -3.9065  -22.2418  -44.3977 H         1 UNK         0.3000 
    196 H196       -6.1902  -23.8987  -44.0095 H         1 UNK         0.0600 
    197 H197       -4.9204  -24.7152  -42.0218 H         1 UNK         0.0600 
    198 H198       -4.8758  -22.9623  -42.1348 H         1 UNK         0.0600 
    199 H199       -3.4678  -23.9118  -42.6040 H         1 UNK         0.0600 
    200 H200       -2.8436  -24.6803  -45.0711 H         1 UNK         0.3000 
    201 H201       -3.3081  -27.5141  -45.3651 H         1 UNK         0.0600 
    202 H202       -1.0519  -26.5393  -44.9680 H         1 UNK         0.0600 
    203 H203       -1.1274  -25.6841  -46.5076 H         1 UNK         0.0600 
    204 H204       -1.0708  -27.4432  -46.4754 H         1 UNK         0.0600 
    205 H205       -3.7765  -24.7573  -47.4128 H         1 UNK         0.3000 
    206 H206       -4.7231  -24.3089  -49.3015 H         1 UNK         0.0600 
    207 H207       -6.4480  -26.0642  -49.0121 H         1 UNK         0.0600 
    208 H208       -5.9867  -25.9035  -50.6996 H         1 UNK         0.0600 
    209 H209       -5.3949  -27.2636  -49.7589 H         1 UNK         0.0600 
    210 H210       -2.9565  -27.3589  -49.7083 H         1 UNK         0.3000 
    211 H211       -1.2739  -28.0784  -50.9945 H         1 UNK         0.0600 
    212 H212       -0.2105  -25.2508  -50.4690 H         1 UNK         0.0600 
    213 H213        0.7614  -26.6791  -50.8072 H         1 UNK         0.0600 
    214 H214       -0.1605  -26.5832  -49.3169 H         1 UNK         0.0600 
    215 H215       -3.4114  -26.9030  -52.5834 H         1 UNK         0.3000 
    216 H216       -4.0727  -26.4292  -54.6200 H         1 UNK         0.0600 
    217 H217       -2.4612  -28.1281  -55.4759 H         1 UNK         0.0600 
    218 H218       -1.2192  -26.8864  -55.6357 H         1 UNK         0.0600 
    219 H219       -2.6761  -26.8050  -56.6116 H         1 UNK         0.0600 
    220 H220       -1.2031  -24.6811  -53.5946 H         1 UNK         0.3000 
    221 H221       -1.2629  -22.4556  -55.2820 H         1 UNK         0.0600 
    222 H222       -0.3719  -22.6247  -52.3512 H         1 UNK         0.0600 
    223 H223        0.6169  -23.0379  -53.7511 H         1 UNK         0.0600 
    224 H224        0.1056  -21.3777  -53.4991 H         1 UNK         0.0600 
    225 H225       -3.1281  -22.9975  -52.2486 H         1 UNK         0.3000 
    226 H226       -4.1460  -20.3458  -52.0308 H         1 UNK         0.0600 
    227 H227       -4.1642  -22.0497  -50.1818 H         1 UNK         0.0600 
    228 H228       -5.7492  -21.3363  -50.4469 H         1 UNK         0.0600 
    229 H229       -5.4094  -22.9525  -51.0505 H         1 UNK         0.0600 
    230 H230       -5.2077  -23.1033  -53.9890 H         1 UNK         0.3000 
    231 H231       -7.7646  -21.9339  -54.7530 H         1 UNK         0.0600 
    232 H232       -7.8703  -23.8464  -56.3117 H         1 UNK         0.0600 
    233 H233       -7.4142  -24.4039  -54.7096 H         1 UNK         0.0600 
    234 H234       -6.1974  -24.2647  -55.9785 H         1 UNK         0.0600 
    235 H235       -4.4350  -21.8091  -55.9168 H         1 UNK         0.3000 
    236 H236       -5.0605  -20.6333  -58.4990 H         1 UNK         0.0600 
    237 H237       -2.9984  -21.9836  -58.1362 H         1 UNK         0.0600 
    238 H238       -2.6182  -20.3558  -58.6787 H         1 UNK         0.0600 
    239 H239       -2.3974  -20.7875  -56.9912 H         1 UNK         0.0600 
    240 H240       -3.7503  -19.3830  -55.3697 H         1 UNK         0.3000 
    241 H241       -3.9262  -16.6183  -56.2554 H         1 UNK         0.0600 
    242 H242       -7.4301  -17.3816  -54.3399 H         1 UNK         0.3800 
    243 H243       -6.2910  -18.6901  -54.4686 H         1 UNK         0.3800 
    244 H244       -3.1213  -17.9263  -53.6360 H         1 UNK         0.0800 
    245 H245       -3.4151  -16.2113  -53.6863 H         1 UNK         0.0800 
    246 H246        0.5566  -17.9195  -54.6250 H         1 UNK         0.0800 
    247 H247       -0.8238  -18.9802  -54.5382 H         1 UNK         0.0800 
@<TRIPOS>BOND
     1    1    2 1    
     2    1  127 1    
     3    1  128 1    
     4    1  129 1    
     5    2    3 2    
     6    2    4 am   BACKBONE|DICT|INTERRES
     7    4    5 1    
     8    4  130 1    
     9    5    6 1    
    10    5   65 1    
    11    5  131 1    
    12    6    7 1    
    13    6  132 1    
    14    6  133 1    
    15    7    8 1    
    16    8    9 1    
    17    8  134 1    
    18    8  135 1    
    19    9   10 ar   
    20    9   14 ar   
    21   10   11 ar   
    22   10  136 1    
    23   11   12 ar   
    24   11  126 1    
    25   12   13 ar   
    26   12  137 1    
    27   13   14 ar   
    28   13   15 1    
    29   14  138 1    
    30   15   16 1    
    31   15  139 1    
    32   15  140 1    
    33   16   17 1    
    34   17   18 1    
    35   17  141 1    
    36   17  142 1    
    37   18   19 1    
    38   18   67 1    
    39   18  143 1    
    40   19   20 am   BACKBONE|DICT|INTERRES
    41   19  144 1    
    42   20   21 2    
    43   20   22 1    
    44   22   23 1    
    45   22   24 1    
    46   22  145 1    
    47   23  146 1    
    48   23  147 1    
    49   23  148 1    
    50   24   25 am   BACKBONE|DICT|INTERRES
    51   24  149 1    
    52   25   26 2    
    53   25   27 1    
    54   27   28 1    
    55   27   29 1    
    56   27  150 1    
    57   28  151 1    
    58   28  152 1    
    59   28  153 1    
    60   29   30 am   BACKBONE|DICT|INTERRES
    61   29  154 1    
    62   30   31 2    
    63   30   32 1    
    64   32   33 1    
    65   32   34 1    
    66   32  155 1    
    67   33  156 1    
    68   33  157 1    
    69   33  158 1    
    70   34   35 am   BACKBONE|DICT|INTERRES
    71   34  159 1    
    72   35   36 2    
    73   35   37 1    
    74   37   38 1    
    75   37   39 1    
    76   37  160 1    
    77   38  161 1    
    78   38  162 1    
    79   38  163 1    
    80   39   40 am   BACKBONE|DICT|INTERRES
    81   39  164 1    
    82   40   41 2    
    83   40   42 1    
    84   42   43 1    
    85   42   44 1    
    86   42  165 1    
    87   43  166 1    
    88   43  167 1    
    89   43  168 1    
    90   44   45 am   BACKBONE|DICT|INTERRES
    91   44  169 1    
    92   45   46 2    
    93   45   47 1    
    94   47   48 1    
    95   47   49 1    
    96   47  170 1    
    97   48  171 1    
    98   48  172 1    
    99   48  173 1    
   100   49   50 am   BACKBONE|DICT|INTERRES
   101   49  174 1    
   102   50   51 2    
   103   50   52 1    
   104   52   53 1    
   105   52   54 1    
   106   52  175 1    
   107   53  176 1    
   108   53  177 1    
   109   53  178 1    
   110   54   55 am   BACKBONE|DICT|INTERRES
   111   54  179 1    
   112   55   56 2    
   113   55   57 1    
   114   57   58 1    
   115   57   59 1    
   116   57  180 1    
   117   58  181 1    
   118   58  182 1    
   119   58  183 1    
   120   59   60 am   BACKBONE|DICT|INTERRES
   121   59  184 1    
   122   60   61 2    
   123   60   62 1    
   124   62   63 1    
   125   62   64 1    
   126   62  185 1    
   127   63  186 1    
   128   63  187 1    
   129   63  188 1    
   130   64   65 am   BACKBONE|DICT|INTERRES
   131   64  189 1    
   132   65   66 2    
   133   67   68 2    
   134   67   69 am   BACKBONE|DICT|INTERRES
   135   69   70 1    
   136   69  190 1    
   137   70   71 1    
   138   70   72 1    
   139   70  191 1    
   140   71  192 1    
   141   71  193 1    
   142   71  194 1    
   143   72   73 2    
   144   72   74 am   BACKBONE|DICT|INTERRES
   145   74   75 1    
   146   74  195 1    
   147   75   76 1    
   148   75   77 1    
   149   75  196 1    
   150   76  197 1    
   151   76  198 1    
   152   76  199 1    
   153   77   78 2    
   154   77   79 am   BACKBONE|DICT|INTERRES
   155   79   80 1    
   156   79  200 1    
   157   80   81 1    
   158   80   82 1    
   159   80  201 1    
   160   81  202 1    
   161   81  203 1    
   162   81  204 1    
   163   82   83 2    
   164   82   84 am   BACKBONE|DICT|INTERRES
   165   84   85 1    
   166   84  205 1    
   167   85   86 1    
   168   85   87 1    
   169   85  206 1    
   170   86  207 1    
   171   86  208 1    
   172   86  209 1    
   173   87   88 2    
   174   87   89 am   BACKBONE|DICT|INTERRES
   175   89   90 1    
   176   89  210 1    
   177   90   91 1    
   178   90   92 1    
   179   90  211 1    
   180   91  212 1    
   181   91  213 1    
   182   91  214 1    
   183   92   93 2    
   184   92   94 am   BACKBONE|DICT|INTERRES
   185   94   95 1    
   186   94  215 1    
   187   95   96 1    
   188   95   97 1    
   189   95  216 1    
   190   96  217 1    
   191   96  218 1    
   192   96  219 1    
   193   97   98 2    
   194   97   99 am   BACKBONE|DICT|INTERRES
   195   99  100 1    
   196   99  220 1    
   197  100  101 1    
   198  100  102 1    
   199  100  221 1    
   200  101  222 1    
   201  101  223 1    
   202  101  224 1    
   203  102  103 2    
   204  102  104 am   BACKBONE|DICT|INTERRES
   205  104  105 1    
   206  104  225 1    
   207  105  106 1    
   208  105  107 1    
   209  105  226 1    
   210  106  227 1    
   211  106  228 1    
   212  106  229 1    
   213  107  108 2    
   214  107  109 am   BACKBONE|DICT|INTERRES
   215  109  110 1    
   216  109  230 1    
   217  110  111 1    
   218  110  112 1    
   219  110  231 1    
   220  111  232 1    
   221  111  233 1    
   222  111  234 1    
   223  112  113 2    
   224  112  114 am   BACKBONE|DICT|INTERRES
   225  114  115 1    
   226  114  235 1    
   227  115  116 1    
   228  115  117 1    
   229  115  236 1    
   230  116  237 1    
   231  116  238 1    
   232  116  239 1    
   233  117  118 2    
   234  117  119 am   BACKBONE|DICT|INTERRES
   235  119  120 1    
   236  119  240 1    
   237  120  121 1    
   238  120  124 1    
   239  120  241 1    
   240  121  122 am   BACKBONE|DICT|INTERRES
   241  121  123 2    
   242  122  242 1    
   243  122  243 1    
   244  124  125 1    
   245  124  244 1    
   246  124  245 1    
   247  125  126 1    
   248  126  246 1    
   249  126  247 1    
@<TRIPOS>SUBSTRUCTURE
     1 UNK         1 GROUP             0       ****    0 ROOT    
