@<TRIPOS>MOLECULE
3R540
247   249    1
SMALL
USER_CHARGES


@<TRIPOS>ATOM
      1 CA         -6.0861  -12.1561  -49.7043 C.3       0 UNK        -0.1800 
      2 C          -5.1594  -13.3446  -49.4942 C.2       0 UNK         0.5000 
      3 O          -3.9517  -13.2270  -49.7063 O.2       0 UNK        -0.5000 
      4 N          -5.7134  -14.4855  -49.0662 N.am      1 UNK        -0.5000 
      5 CA         -5.0026  -15.7482  -48.8259 C.3       1 UNK         0.1400 
      6 C6         -5.9407  -16.9771  -48.9172 C.3       23 UNK        -0.0398 
      7 S7         -6.8602  -17.0829  -50.4918 S.3       23 UNK        -0.2404 
      8 C8         -8.2283  -18.1924  -50.0226 C.3       23 UNK        -0.0205 
      9 C9         -7.7873  -19.6485  -49.9672 C.ar      23 UNK        -0.0193 
     10 C10        -8.0928  -20.5191  -51.0158 C.ar      23 UNK        -0.1150 
     11 C11        -7.6971  -21.8591  -50.9674 C.ar      23 UNK        -0.0193 
     12 C12        -6.9545  -22.3177  -49.8740 C.ar      23 UNK        -0.1150 
     13 C13        -6.6454  -21.4599  -48.8122 C.ar      23 UNK        -0.0193 
     14 C14        -7.0925  -20.1347  -48.8576 C.ar      23 UNK        -0.1150 
     15 C15        -5.8871  -21.9958  -47.6002 C.3       23 UNK        -0.0205 
     16 S16        -4.7297  -20.7929  -46.8580 S.3       23 UNK        -0.2404 
     17 C17        -4.1830  -21.7167  -45.3832 C.3       23 UNK        -0.0398 
     18 CA         -2.6492  -21.9258  -45.3322 C.3       11 UNK         0.1400 
     19 N          -2.1498  -22.2983  -44.0042 N.am      11 UNK        -0.5000 
     20 C          -2.5173  -23.3263  -43.2259 C.2       10 UNK         0.5000 
     21 O          -3.3944  -24.1320  -43.5377 O.2       10 UNK        -0.5000 
     22 CA         -1.7587  -23.5138  -41.9001 C.3       10 UNK         0.1400 
     23 CB         -0.5749  -24.4699  -42.1064 C.3       10 UNK        -0.1800 
     24 N          -1.2511  -22.2448  -41.3740 N.am      10 UNK        -0.5000 
     25 C          -1.6094  -21.6946  -40.2054 C.2       9 UNK         0.5000 
     26 O          -2.3774  -22.2270  -39.4029 O.2       9 UNK        -0.5000 
     27 CA         -1.0212  -20.3056  -39.8730 C.3       9 UNK         0.1400 
     28 CB          0.2586  -20.4497  -39.0359 C.3       9 UNK        -0.1800 
     29 N          -0.7192  -19.5018  -41.0580 N.am      9 UNK        -0.5000 
     30 C          -1.6228  -19.0718  -41.9489 C.2       8 UNK         0.5000 
     31 O          -2.8380  -19.2075  -41.8068 O.2       8 UNK        -0.5000 
     32 CA         -1.0870  -18.4144  -43.2357 C.3       8 UNK         0.1400 
     33 CB         -1.2630  -16.8898  -43.1645 C.3       8 UNK        -0.1800 
     34 N           0.3113  -18.7222  -43.5658 N.am      8 UNK        -0.5000 
     35 C           0.8426  -19.9409  -43.7487 C.2       7 UNK         0.5000 
     36 O           0.2146  -20.9886  -43.6065 O.2       7 UNK        -0.5000 
     37 CA          2.3327  -20.0072  -44.1145 C.3       7 UNK         0.1400 
     38 CB          2.5175  -19.9135  -45.6360 C.3       7 UNK        -0.1800 
     39 N           3.0953  -18.9513  -43.4496 N.am      7 UNK        -0.5000 
     40 C           3.4993  -19.0109  -42.1719 C.2       6 UNK         0.5000 
     41 O           3.3144  -19.9850  -41.4419 O.2       6 UNK        -0.5000 
     42 CA          4.2129  -17.7678  -41.6069 C.3       6 UNK         0.1400 
     43 CB          5.7206  -17.8353  -41.8931 C.3       6 UNK        -0.1800 
     44 N           3.6772  -16.5165  -42.1435 N.am      6 UNK        -0.5000 
     45 C           2.4604  -16.0286  -41.8635 C.2       5 UNK         0.5000 
     46 O           1.6825  -16.5497  -41.0644 O.2       5 UNK        -0.5000 
     47 CA          2.0270  -14.7643  -42.6331 C.3       5 UNK         0.1400 
     48 CB          2.3664  -13.5016  -41.8277 C.3       5 UNK        -0.1800 
     49 N           2.6108  -14.6508  -43.9747 N.am      5 UNK        -0.5000 
     50 C           2.4321  -15.5338  -44.9652 C.2       4 UNK         0.5000 
     51 O           1.7765  -16.5707  -44.8462 O.2       4 UNK        -0.5000 
     52 CA          3.0893  -15.2021  -46.3095 C.3       4 UNK         0.1400 
     53 CB          3.7951  -16.4298  -46.9076 C.3       4 UNK        -0.1800 
     54 N           2.0407  -14.7539  -47.2152 N.am      4 UNK        -0.5000 
     55 C           1.7736  -13.4761  -47.5064 C.2       3 UNK         0.5000 
     56 O           2.4716  -12.5271  -47.1462 O.2       3 UNK        -0.5000 
     57 CA          0.4801  -13.2131  -48.2983 C.3       3 UNK         0.1400 
     58 CB          0.6558  -13.5607  -49.7832 C.3       3 UNK        -0.1800 
     59 N          -0.6607  -13.9517  -47.7522 N.am      3 UNK        -0.5000 
     60 C          -1.2459  -13.6688  -46.5790 C.2       2 UNK         0.5000 
     61 O          -0.8809  -12.7483  -45.8459 O.2       2 UNK        -0.5000 
     62 CA         -2.4611  -14.5271  -46.1858 C.3       2 UNK         0.1400 
     63 CB         -3.2802  -13.9171  -45.0286 C.3       2 UNK        -0.1800 
     64 N          -3.3095  -14.7512  -47.3547 N.am      2 UNK        -0.5000 
     65 C          -4.2306  -15.7116  -47.4861 C.2       1 UNK         0.5000 
     66 O          -4.4914  -16.5234  -46.5966 O.2       1 UNK        -0.5000 
     67 C          -2.1296  -22.8745  -46.4311 C.2       11 UNK         0.5000 
     68 O          -1.5250  -22.4098  -47.3981 O.2       11 UNK        -0.5000 
     69 N          -2.3194  -24.1844  -46.2284 N.am      12 UNK        -0.5000 
     70 CA         -1.8893  -25.2733  -47.1091 C.3       12 UNK         0.1400 
     71 CB         -2.6413  -26.5500  -46.7007 C.3       12 UNK        -0.1800 
     72 C          -0.3645  -25.5169  -47.1217 C.2       12 UNK         0.5000 
     73 O           0.1099  -26.3264  -47.9192 O.2       12 UNK        -0.5000 
     74 N           0.3816  -24.8145  -46.2560 N.am      13 UNK        -0.5000 
     75 CA          1.8475  -24.7989  -46.2139 C.3       13 UNK         0.1400 
     76 CB          2.2978  -24.1012  -44.9207 C.3       13 UNK        -0.1800 
     77 C           2.4964  -24.1276  -47.4439 C.2       13 UNK         0.5000 
     78 O           3.6900  -24.3194  -47.6789 O.2       13 UNK        -0.5000 
     79 N           1.7053  -23.3649  -48.2041 N.am      14 UNK        -0.5000 
     80 CA          2.0628  -22.7457  -49.4722 C.3       14 UNK         0.1400 
     81 CB          2.6114  -21.3323  -49.2037 C.3       14 UNK        -0.1800 
     82 C           0.8149  -22.7411  -50.3728 C.2       14 UNK         0.5000 
     83 O          -0.2272  -23.2767  -49.9861 O.2       14 UNK        -0.5000 
     84 N           0.9251  -22.1357  -51.5609 N.am      15 UNK        -0.5000 
     85 CA         -0.1793  -21.9556  -52.5053 C.3       15 UNK         0.1400 
     86 CB          0.4030  -21.6129  -53.8872 C.3       15 UNK        -0.1800 
     87 C          -1.1555  -20.8755  -52.0000 C.2       15 UNK         0.5000 
     88 O          -1.0253  -19.7116  -52.3870 O.2       15 UNK        -0.5000 
     89 N          -2.0655  -21.2806  -51.1011 N.am      16 UNK        -0.5000 
     90 CA         -3.0680  -20.4626  -50.4089 C.3       16 UNK         0.1400 
     91 CB         -4.1264  -19.9351  -51.3980 C.3       16 UNK        -0.1800 
     92 C          -2.3990  -19.3470  -49.5856 C.2       16 UNK         0.5000 
     93 O          -2.6648  -18.1639  -49.8002 O.2       16 UNK        -0.5000 
     94 N          -1.4714  -19.7586  -48.7074 N.am      17 UNK        -0.5000 
     95 CA         -0.5887  -18.9038  -47.9063 C.3       17 UNK         0.1400 
     96 CB         -1.3929  -18.1246  -46.8567 C.3       17 UNK        -0.1800 
     97 C           0.2927  -17.9758  -48.7703 C.2       17 UNK         0.5000 
     98 O           0.5132  -16.8188  -48.4109 O.2       17 UNK        -0.5000 
     99 N           0.7638  -18.5166  -49.9026 N.am      18 UNK        -0.5000 
    100 CA         1.6288  -17.8931  -50.9091 C.3       18 UNK         0.1400 
    101 CB         2.9579  -17.4147  -50.2902 C.3       18 UNK        -0.1800 
    102 C          0.9387  -16.7986  -51.7494 C.2       18 UNK         0.5000 
    103 O          1.6285  -15.9984  -52.3828 O.2       18 UNK        -0.5000 
    104 N         -0.4016  -16.7982  -51.7864 N.am      19 UNK        -0.5000 
    105 CA        -1.2037  -15.9397  -52.6631 C.3       19 UNK         0.1400 
    106 CB        -2.6356  -15.8606  -52.1191 C.3       19 UNK        -0.1800 
    107 C         -1.1970  -16.3964  -54.1382 C.2       19 UNK         0.5000 
    108 O         -1.6454  -15.6379  -54.9986 O.2       19 UNK        -0.5000 
    109 N         -0.6809  -17.6075  -54.3991 N.am      20 UNK        -0.5000 
    110 CA        -0.5321  -18.2619  -55.7014 C.3       20 UNK         0.1400 
    111 CB         0.3229  -17.4220  -56.6747 C.3       20 UNK        -0.1800 
    112 C         -1.8891  -18.6993  -56.2809 C.2       20 UNK         0.5000 
    113 O         -2.1770  -18.4626  -57.4558 O.2       20 UNK        -0.5000 
    114 N         -2.6916  -19.3471  -55.4317 N.am      21 UNK        -0.5000 
    115 CA        -3.9629  -19.9744  -55.7730 C.3       21 UNK         0.1400 
    116 CB        -5.1116  -19.0950  -55.2507 C.3       21 UNK        -0.1800 
    117 C         -4.0068  -21.3692  -55.1340 C.2       21 UNK         0.5000 
    118 O         -3.2466  -21.6390  -54.2034 O.2       21 UNK        -0.5000 
    119 N         -4.9057  -22.2263  -55.6299 N.am      22 UNK        -0.5000 
    120 CA        -5.2285  -23.5478  -55.0541 C.3       22 UNK         0.1400 
    121 C         -4.0794  -24.6036  -55.1099 C.2       22 UNK         0.5000 
    122 N         -3.0459  -24.4139  -55.9209 N.am      22 UNK        -0.7600 
    123 O         -4.1391  -25.6307  -54.4390 O.2       22 UNK        -0.5000 
    124 C124       -5.8738  -23.4361  -53.6413 C.3       23 UNK        -0.0398 
    125 S125       -7.3922  -22.4242  -53.6762 S.3       23 UNK        -0.2404 
    126 C126       -8.1387  -22.8169  -52.0651 C.3       23 UNK        -0.0205 
    127 H127       -6.0342  -11.8196  -50.7397 H         1 UNK         0.0600 
    128 H128       -7.1233  -12.4056  -49.4792 H         1 UNK         0.0600 
    129 H129       -5.7870  -11.3292  -49.0603 H         1 UNK         0.0600 
    130 H130       -6.7089  -14.5148  -48.8988 H         1 UNK         0.3000 
    131 H131       -4.2546  -15.8705  -49.6089 H         1 UNK         0.0600 
    132 H132       -6.6561  -16.9673  -48.0932 H         1 UNK         0.0800 
    133 H133       -5.3530  -17.8906  -48.8117 H         1 UNK         0.0800 
    134 H134       -9.0327  -18.0739  -50.7500 H         1 UNK         0.0800 
    135 H135       -8.6466  -17.8897  -49.0616 H         1 UNK         0.0800 
    136 H136       -8.6562  -20.1603  -51.8659 H         1 UNK         0.1150 
    137 H137       -6.6469  -23.3532  -49.8333 H         1 UNK         0.1150 
    138 H138       -6.8938  -19.4738  -48.0272 H         1 UNK         0.1150 
    139 H139       -6.6185  -22.2985  -46.8497 H         1 UNK         0.0800 
    140 H140       -5.3250  -22.8906  -47.8728 H         1 UNK         0.0800 
    141 H141       -4.7108  -22.6690  -45.3176 H         1 UNK         0.0800 
    142 H142       -4.4997  -21.1416  -44.5120 H         1 UNK         0.0800 
    143 H143       -2.1851  -20.9585  -45.5269 H         1 UNK         0.0600 
    144 H144       -1.3393  -21.7569  -43.7107 H         1 UNK         0.3000 
    145 H145       -2.4535  -23.9758  -41.1960 H         1 UNK         0.0600 
    146 H146       -0.0779  -24.6887  -41.1612 H         1 UNK         0.0600 
    147 H147       -0.9019  -25.4202  -42.5308 H         1 UNK         0.0600 
    148 H148        0.1654  -24.0418  -42.7814 H         1 UNK         0.0600 
    149 H149       -0.6163  -21.7296  -41.9742 H         1 UNK         0.3000 
    150 H150       -1.7624  -19.7654  -39.2805 H         1 UNK         0.0600 
    151 H151        0.0701  -21.0241  -38.1280 H         1 UNK         0.0600 
    152 H152        0.6420  -19.4758  -38.7303 H         1 UNK         0.0600 
    153 H153        1.0466  -20.9604  -39.5913 H         1 UNK         0.0600 
    154 H154        0.2563  -19.3238  -41.2497 H         1 UNK         0.3000 
    155 H155       -1.6997  -18.7927  -44.0537 H         1 UNK         0.0600 
    156 H156       -0.7698  -16.4731  -42.2866 H         1 UNK         0.0600 
    157 H157       -2.3186  -16.6221  -43.1035 H         1 UNK         0.0600 
    158 H158       -0.8523  -16.3953  -44.0436 H         1 UNK         0.0600 
    159 H159        0.9021  -17.9213  -43.7690 H         1 UNK         0.3000 
    160 H160        2.7159  -20.9768  -43.7895 H         1 UNK         0.0600 
    161 H161        3.5715  -19.9517  -45.9113 H         1 UNK         0.0600 
    162 H162        2.0978  -18.9914  -46.0368 H         1 UNK         0.0600 
    163 H163        2.0212  -20.7457  -46.1368 H         1 UNK         0.0600 
    164 H164        3.2231  -18.0920  -43.9653 H         1 UNK         0.3000 
    165 H165        4.0703  -17.7651  -40.5241 H         1 UNK         0.0600 
    166 H166        6.2466  -16.9965  -41.4368 H         1 UNK         0.0600 
    167 H167        6.1543  -18.7496  -41.4858 H         1 UNK         0.0600 
    168 H168        5.9297  -17.8214  -42.9636 H         1 UNK         0.0600 
    169 H169        4.2557  -16.0151  -42.8010 H         1 UNK         0.3000 
    170 H170        0.9430  -14.8086  -42.7516 H         1 UNK         0.0600 
    171 H171        1.9240  -13.5428  -40.8313 H         1 UNK         0.0600 
    172 H172        3.4432  -13.3798  -41.7043 H         1 UNK         0.0600 
    173 H173        1.9799  -12.6066  -42.3157 H         1 UNK         0.0600 
    174 H174        3.1456  -13.8142  -44.1600 H         1 UNK         0.3000 
    175 H175        3.8400  -14.4233  -46.1596 H         1 UNK         0.0600 
    176 H176        3.0867  -17.2104  -47.1839 H         1 UNK         0.0600 
    177 H177        4.3550  -16.1582  -47.8022 H         1 UNK         0.0600 
    178 H178        4.5042  -16.8612  -46.2002 H         1 UNK         0.0600 
    179 H179        1.4050  -15.4760  -47.5518 H         1 UNK         0.3000 
    180 H180        0.2571  -12.1461  -48.2299 H         1 UNK         0.0600 
    181 H181        0.8968  -14.6134  -49.9188 H         1 UNK         0.0600 
    182 H182        1.4654  -12.9806  -50.2275 H         1 UNK         0.0600 
    183 H183       -0.2500  -13.3480  -50.3513 H         1 UNK         0.0600 
    184 H184       -0.9664  -14.7610  -48.2746 H         1 UNK         0.3000 
    185 H185       -2.0666  -15.4868  -45.8530 H         1 UNK         0.0600 
    186 H186       -2.6579  -13.7613  -44.1465 H         1 UNK         0.0600 
    187 H187       -3.7079  -12.9536  -45.3077 H         1 UNK         0.0600 
    188 H188       -4.0978  -14.5714  -44.7268 H         1 UNK         0.0600 
    189 H189       -3.1955  -14.0985  -48.1267 H         1 UNK         0.3000 
    190 H190       -2.7993  -24.4556  -45.3751 H         1 UNK         0.3000 
    191 H191       -2.1781  -25.0148  -48.1302 H         1 UNK         0.0600 
    192 H192       -2.3984  -26.8487  -45.6801 H         1 UNK         0.0600 
    193 H193       -2.3884  -27.3837  -47.3570 H         1 UNK         0.0600 
    194 H194       -3.7205  -26.4081  -46.7611 H         1 UNK         0.0600 
    195 H195       -0.0948  -24.1765  -45.6373 H         1 UNK         0.3000 
    196 H196        2.2006  -25.8318  -46.1878 H         1 UNK         0.0600 
    197 H197        1.8638  -23.1053  -44.8281 H         1 UNK         0.0600 
    198 H198        3.3826  -23.9920  -44.8863 H         1 UNK         0.0600 
    199 H199        2.0096  -24.6810  -44.0446 H         1 UNK         0.0600 
    200 H200        0.7149  -23.3228  -47.9913 H         1 UNK         0.3000 
    201 H201        2.8248  -23.3439  -49.9760 H         1 UNK         0.0600 
    202 H202        2.8823  -20.8183  -50.1260 H         1 UNK         0.0600 
    203 H203        3.5098  -21.3736  -48.5875 H         1 UNK         0.0600 
    204 H204        1.8833  -20.7181  -48.6767 H         1 UNK         0.0600 
    205 H205        1.8106  -21.7315  -51.8278 H         1 UNK         0.3000 
    206 H206       -0.7304  -22.8940  -52.6009 H         1 UNK         0.0600 
    207 H207        1.0312  -22.4219  -54.2599 H         1 UNK         0.0600 
    208 H208       -0.3945  -21.4623  -54.6158 H         1 UNK         0.0600 
    209 H209        1.0074  -20.7056  -53.8600 H         1 UNK         0.0600 
    210 H210       -1.9951  -22.2407  -50.7856 H         1 UNK         0.3000 
    211 H211       -3.5753  -21.1172  -49.6992 H         1 UNK         0.0600 
    212 H212       -3.6898  -19.2787  -52.1504 H         1 UNK         0.0600 
    213 H213       -4.8966  -19.3684  -50.8761 H         1 UNK         0.0600 
    214 H214       -4.6264  -20.7539  -51.9147 H         1 UNK         0.0600 
    215 H215       -1.3626  -20.7585  -48.5616 H         1 UNK         0.3000 
    216 H216        0.0842  -19.5764  -47.3749 H         1 UNK         0.0600 
    217 H217       -0.7295  -17.6598  -46.1277 H         1 UNK         0.0600 
    218 H218       -2.0920  -18.7662  -46.3240 H         1 UNK         0.0600 
    219 H219       -1.9685  -17.3327  -47.3277 H         1 UNK         0.0600 
    220 H220        0.4449  -19.4462  -50.1299 H         1 UNK         0.3000 
    221 H221        1.8707  -18.6899  -51.6138 H         1 UNK         0.0600 
    222 H222        2.8186  -16.5162  -49.6893 H         1 UNK         0.0600 
    223 H223        3.4029  -18.1819  -49.6567 H         1 UNK         0.0600 
    224 H224        3.6849  -17.1730  -51.0661 H         1 UNK         0.0600 
    225 H225       -0.9075  -17.4963  -51.2546 H         1 UNK         0.3000 
    226 H226       -0.7826  -14.9325  -52.6366 H         1 UNK         0.0600 
    227 H227       -3.1178  -16.8384  -52.1034 H         1 UNK         0.0600 
    228 H228       -2.6342  -15.4624  -51.1056 H         1 UNK         0.0600 
    229 H229       -3.2537  -15.1980  -52.7259 H         1 UNK         0.0600 
    230 H230       -0.4560  -18.1858  -53.5960 H         1 UNK         0.3000 
    231 H231        0.0221  -19.1808  -55.5120 H         1 UNK         0.0600 
    232 H232        1.2696  -17.1327  -56.2184 H         1 UNK         0.0600 
    233 H233       -0.1886  -16.5135  -56.9930 H         1 UNK         0.0600 
    234 H234        0.5570  -17.9922  -57.5742 H         1 UNK         0.0600 
    235 H235       -2.3596  -19.5536  -54.4967 H         1 UNK         0.3000 
    236 H236       -4.0555  -20.0924  -56.8546 H         1 UNK         0.0600 
    237 H237       -5.0786  -18.1005  -55.6958 H         1 UNK         0.0600 
    238 H238       -6.0819  -19.5292  -55.4943 H         1 UNK         0.0600 
    239 H239       -5.0691  -18.9773  -54.1674 H         1 UNK         0.0600 
    240 H240       -5.4847  -21.9370  -56.4050 H         1 UNK         0.3000 
    241 H241       -5.9901  -23.9639  -55.7145 H         1 UNK         0.0600 
    242 H242       -2.9832  -23.5797  -56.4816 H         1 UNK         0.3800 
    243 H243       -2.3141  -25.1055  -55.9635 H         1 UNK         0.3800 
    244 H244       -6.1390  -24.4257  -53.2662 H         1 UNK         0.0800 
    245 H245       -5.1746  -23.0111  -52.9200 H         1 UNK         0.0800 
    246 H246       -9.2229  -22.7495  -52.1643 H         1 UNK         0.0800 
    247 H247       -7.9277  -23.8523  -51.7940 H         1 UNK         0.0800 
@<TRIPOS>BOND
     1    1    2 1    
     2    1  127 1    
     3    1  128 1    
     4    1  129 1    
     5    2    3 2    
     6    2    4 am   BACKBONE|DICT|INTERRES
     7    4    5 1    
     8    4  130 1    
     9    5    6 1    
    10    5   65 1    
    11    5  131 1    
    12    6    7 1    
    13    6  132 1    
    14    6  133 1    
    15    7    8 1    
    16    8    9 1    
    17    8  134 1    
    18    8  135 1    
    19    9   10 ar   
    20    9   14 ar   
    21   10   11 ar   
    22   10  136 1    
    23   11   12 ar   
    24   11  126 1    
    25   12   13 ar   
    26   12  137 1    
    27   13   14 ar   
    28   13   15 1    
    29   14  138 1    
    30   15   16 1    
    31   15  139 1    
    32   15  140 1    
    33   16   17 1    
    34   17   18 1    
    35   17  141 1    
    36   17  142 1    
    37   18   19 1    
    38   18   67 1    
    39   18  143 1    
    40   19   20 am   BACKBONE|DICT|INTERRES
    41   19  144 1    
    42   20   21 2    
    43   20   22 1    
    44   22   23 1    
    45   22   24 1    
    46   22  145 1    
    47   23  146 1    
    48   23  147 1    
    49   23  148 1    
    50   24   25 am   BACKBONE|DICT|INTERRES
    51   24  149 1    
    52   25   26 2    
    53   25   27 1    
    54   27   28 1    
    55   27   29 1    
    56   27  150 1    
    57   28  151 1    
    58   28  152 1    
    59   28  153 1    
    60   29   30 am   BACKBONE|DICT|INTERRES
    61   29  154 1    
    62   30   31 2    
    63   30   32 1    
    64   32   33 1    
    65   32   34 1    
    66   32  155 1    
    67   33  156 1    
    68   33  157 1    
    69   33  158 1    
    70   34   35 am   BACKBONE|DICT|INTERRES
    71   34  159 1    
    72   35   36 2    
    73   35   37 1    
    74   37   38 1    
    75   37   39 1    
    76   37  160 1    
    77   38  161 1    
    78   38  162 1    
    79   38  163 1    
    80   39   40 am   BACKBONE|DICT|INTERRES
    81   39  164 1    
    82   40   41 2    
    83   40   42 1    
    84   42   43 1    
    85   42   44 1    
    86   42  165 1    
    87   43  166 1    
    88   43  167 1    
    89   43  168 1    
    90   44   45 am   BACKBONE|DICT|INTERRES
    91   44  169 1    
    92   45   46 2    
    93   45   47 1    
    94   47   48 1    
    95   47   49 1    
    96   47  170 1    
    97   48  171 1    
    98   48  172 1    
    99   48  173 1    
   100   49   50 am   BACKBONE|DICT|INTERRES
   101   49  174 1    
   102   50   51 2    
   103   50   52 1    
   104   52   53 1    
   105   52   54 1    
   106   52  175 1    
   107   53  176 1    
   108   53  177 1    
   109   53  178 1    
   110   54   55 am   BACKBONE|DICT|INTERRES
   111   54  179 1    
   112   55   56 2    
   113   55   57 1    
   114   57   58 1    
   115   57   59 1    
   116   57  180 1    
   117   58  181 1    
   118   58  182 1    
   119   58  183 1    
   120   59   60 am   BACKBONE|DICT|INTERRES
   121   59  184 1    
   122   60   61 2    
   123   60   62 1    
   124   62   63 1    
   125   62   64 1    
   126   62  185 1    
   127   63  186 1    
   128   63  187 1    
   129   63  188 1    
   130   64   65 am   BACKBONE|DICT|INTERRES
   131   64  189 1    
   132   65   66 2    
   133   67   68 2    
   134   67   69 am   BACKBONE|DICT|INTERRES
   135   69   70 1    
   136   69  190 1    
   137   70   71 1    
   138   70   72 1    
   139   70  191 1    
   140   71  192 1    
   141   71  193 1    
   142   71  194 1    
   143   72   73 2    
   144   72   74 am   BACKBONE|DICT|INTERRES
   145   74   75 1    
   146   74  195 1    
   147   75   76 1    
   148   75   77 1    
   149   75  196 1    
   150   76  197 1    
   151   76  198 1    
   152   76  199 1    
   153   77   78 2    
   154   77   79 am   BACKBONE|DICT|INTERRES
   155   79   80 1    
   156   79  200 1    
   157   80   81 1    
   158   80   82 1    
   159   80  201 1    
   160   81  202 1    
   161   81  203 1    
   162   81  204 1    
   163   82   83 2    
   164   82   84 am   BACKBONE|DICT|INTERRES
   165   84   85 1    
   166   84  205 1    
   167   85   86 1    
   168   85   87 1    
   169   85  206 1    
   170   86  207 1    
   171   86  208 1    
   172   86  209 1    
   173   87   88 2    
   174   87   89 am   BACKBONE|DICT|INTERRES
   175   89   90 1    
   176   89  210 1    
   177   90   91 1    
   178   90   92 1    
   179   90  211 1    
   180   91  212 1    
   181   91  213 1    
   182   91  214 1    
   183   92   93 2    
   184   92   94 am   BACKBONE|DICT|INTERRES
   185   94   95 1    
   186   94  215 1    
   187   95   96 1    
   188   95   97 1    
   189   95  216 1    
   190   96  217 1    
   191   96  218 1    
   192   96  219 1    
   193   97   98 2    
   194   97   99 am   BACKBONE|DICT|INTERRES
   195   99  100 1    
   196   99  220 1    
   197  100  101 1    
   198  100  102 1    
   199  100  221 1    
   200  101  222 1    
   201  101  223 1    
   202  101  224 1    
   203  102  103 2    
   204  102  104 am   BACKBONE|DICT|INTERRES
   205  104  105 1    
   206  104  225 1    
   207  105  106 1    
   208  105  107 1    
   209  105  226 1    
   210  106  227 1    
   211  106  228 1    
   212  106  229 1    
   213  107  108 2    
   214  107  109 am   BACKBONE|DICT|INTERRES
   215  109  110 1    
   216  109  230 1    
   217  110  111 1    
   218  110  112 1    
   219  110  231 1    
   220  111  232 1    
   221  111  233 1    
   222  111  234 1    
   223  112  113 2    
   224  112  114 am   BACKBONE|DICT|INTERRES
   225  114  115 1    
   226  114  235 1    
   227  115  116 1    
   228  115  117 1    
   229  115  236 1    
   230  116  237 1    
   231  116  238 1    
   232  116  239 1    
   233  117  118 2    
   234  117  119 am   BACKBONE|DICT|INTERRES
   235  119  120 1    
   236  119  240 1    
   237  120  121 1    
   238  120  124 1    
   239  120  241 1    
   240  121  122 am   BACKBONE|DICT|INTERRES
   241  121  123 2    
   242  122  242 1    
   243  122  243 1    
   244  124  125 1    
   245  124  244 1    
   246  124  245 1    
   247  125  126 1    
   248  126  246 1    
   249  126  247 1    
@<TRIPOS>SUBSTRUCTURE
     1 UNK         1 GROUP             0       ****    0 ROOT    
