@<TRIPOS>MOLECULE
3R540
247   249    1
SMALL
USER_CHARGES


@<TRIPOS>ATOM
      1 CA          5.3564  -14.0812  -47.2095 C.3       0 UNK        -0.1800 
      2 C           4.4848  -13.2678  -46.2652 C.2       0 UNK         0.5000 
      3 O           4.8996  -12.9804  -45.1427 O.2       0 UNK        -0.5000 
      4 N           3.2849  -12.8798  -46.7182 N.am      1 UNK        -0.5000 
      5 CA          2.2682  -12.1664  -45.9290 C.3       1 UNK         0.1400 
      6 C6          0.9173  -12.0606  -46.6713 C.3       23 UNK        -0.0398 
      7 S7          0.1904  -13.7020  -46.9929 S.3       23 UNK        -0.2404 
      8 C8          0.1320  -13.7229  -48.8081 C.3       23 UNK        -0.0205 
      9 C9         -0.6148  -14.9413  -49.3292 C.ar      23 UNK        -0.0193 
     10 C10        -2.0133  -14.9485  -49.3404 C.ar      23 UNK        -0.1150 
     11 C11        -2.7117  -16.0366  -49.8691 C.ar      23 UNK        -0.0193 
     12 C12        -1.9983  -17.1178  -50.3885 C.ar      23 UNK        -0.1150 
     13 C13        -0.6006  -17.1390  -50.3700 C.ar      23 UNK        -0.0193 
     14 C14         0.0850  -16.0429  -49.8347 C.ar      23 UNK        -0.1150 
     15 C15         0.1799  -18.3177  -50.9555 C.3       23 UNK        -0.0205 
     16 S16        -0.5848  -19.9538  -50.6613 S.3       23 UNK        -0.2404 
     17 C17        -0.7037  -19.9299  -48.8460 C.3       23 UNK        -0.0398 
     18 CA         -0.6763  -21.3275  -48.1868 C.3       11 UNK         0.1400 
     19 N          -0.2818  -21.2257  -46.7785 N.am      11 UNK        -0.5000 
     20 C          -0.0417  -22.2543  -45.9547 C.2       10 UNK         0.5000 
     21 O          -0.0754  -23.4327  -46.3045 O.2       10 UNK        -0.5000 
     22 CA          0.2339  -21.9073  -44.4787 C.3       10 UNK         0.1400 
     23 CB          1.6890  -21.4586  -44.2795 C.3       10 UNK        -0.1800 
     24 N          -0.6731  -20.8774  -43.9687 N.am      10 UNK        -0.5000 
     25 C          -2.0002  -21.0287  -43.8530 C.2       9 UNK         0.5000 
     26 O          -2.5910  -22.0793  -44.0975 O.2       9 UNK        -0.5000 
     27 CA         -2.8123  -19.7837  -43.4560 C.3       9 UNK         0.1400 
     28 CB         -2.8164  -19.5819  -41.9332 C.3       9 UNK        -0.1800 
     29 N          -2.3247  -18.5748  -44.1198 N.am      9 UNK        -0.5000 
     30 C          -2.4016  -18.3569  -45.4408 C.2       8 UNK         0.5000 
     31 O          -2.9228  -19.1410  -46.2320 O.2       8 UNK        -0.5000 
     32 CA         -1.7416  -17.0707  -45.9650 C.3       8 UNK         0.1400 
     33 CB         -2.6921  -15.8777  -45.7825 C.3       8 UNK        -0.1800 
     34 N          -0.4609  -16.8052  -45.3028 N.am      8 UNK        -0.5000 
     35 C           0.6316  -17.5706  -45.4596 C.2       7 UNK         0.5000 
     36 O           0.6692  -18.5520  -46.1983 O.2       7 UNK        -0.5000 
     37 CA          1.8745  -17.2389  -44.6101 C.3       7 UNK         0.1400 
     38 CB          2.7642  -16.2211  -45.3331 C.3       7 UNK        -0.1800 
     39 N           1.5480  -16.7378  -43.2763 N.am      7 UNK        -0.5000 
     40 C           0.8261  -17.4086  -42.3655 C.2       6 UNK         0.5000 
     41 O           0.4612  -18.5742  -42.5207 O.2       6 UNK        -0.5000 
     42 CA          0.3894  -16.6486  -41.0950 C.3       6 UNK         0.1400 
     43 CB          1.2554  -17.0674  -39.8979 C.3       6 UNK        -0.1800 
     44 N           0.4342  -15.1897  -41.2235 N.am      6 UNK        -0.5000 
     45 C          -0.2267  -14.4534  -42.1294 C.2       5 UNK         0.5000 
     46 O          -1.0448  -14.9223  -42.9210 O.2       5 UNK        -0.5000 
     47 CA          0.1342  -12.9554  -42.2085 C.3       5 UNK         0.1400 
     48 CB         -0.9572  -12.1041  -41.5435 C.3       5 UNK        -0.1800 
     49 N           1.4361  -12.6085  -41.6212 N.am      5 UNK        -0.5000 
     50 C           2.6234  -13.0768  -42.0303 C.2       4 UNK         0.5000 
     51 O           2.7574  -13.9181  -42.9199 O.2       4 UNK        -0.5000 
     52 CA          3.8604  -12.5643  -41.2876 C.3       4 UNK         0.1400 
     53 CB          4.4887  -13.6836  -40.4369 C.3       4 UNK        -0.1800 
     54 N           4.8241  -12.0580  -42.2589 N.am      4 UNK        -0.5000 
     55 C           5.7933  -11.1771  -41.9785 C.2       3 UNK         0.5000 
     56 O           5.9996  -10.7220  -40.8525 O.2       3 UNK        -0.5000 
     57 CA          6.6604  -10.6978  -43.1531 C.3       3 UNK         0.1400 
     58 CB          7.6805  -11.7718  -43.5646 C.3       3 UNK        -0.1800 
     59 N           5.8278  -10.3366  -44.2989 N.am      3 UNK        -0.5000 
     60 C           5.2957   -9.1208  -44.4933 C.2       2 UNK         0.5000 
     61 O           5.5101   -8.1572  -43.7566 O.2       2 UNK        -0.5000 
     62 CA          4.3689   -8.9377  -45.7130 C.3       2 UNK         0.1400 
     63 CB          5.1577   -8.3806  -46.9079 C.3       2 UNK        -0.1800 
     64 N           3.7031  -10.1748  -46.1198 N.am      2 UNK        -0.5000 
     65 C           2.7287  -10.7807  -45.4270 C.2       1 UNK         0.5000 
     66 O           2.2162  -10.3047  -44.4137 O.2       1 UNK        -0.5000 
     67 C          -2.0221  -22.0663  -48.3560 C.2       11 UNK         0.5000 
     68 O          -2.1338  -22.9478  -49.2097 O.2       11 UNK        -0.5000 
     69 N          -3.0023  -21.7256  -47.5060 N.am      12 UNK        -0.5000 
     70 CA         -4.3023  -22.3870  -47.4219 C.3       12 UNK         0.1400 
     71 CB         -5.2275  -21.6047  -46.4781 C.3       12 UNK        -0.1800 
     72 C          -4.1862  -23.8617  -46.9985 C.2       12 UNK         0.5000 
     73 O          -4.7680  -24.7245  -47.6579 O.2       12 UNK        -0.5000 
     74 N          -3.4049  -24.1254  -45.9400 N.am      13 UNK        -0.5000 
     75 CA         -3.1199  -25.4632  -45.4139 C.3       13 UNK         0.1400 
     76 CB         -2.3054  -25.3481  -44.1171 C.3       13 UNK        -0.1800 
     77 C          -2.4045  -26.3780  -46.4246 C.2       13 UNK         0.5000 
     78 O          -2.6992  -27.5729  -46.4731 O.2       13 UNK        -0.5000 
     79 N          -1.5309  -25.7999  -47.2597 N.am      14 UNK        -0.5000 
     80 CA         -0.8588  -26.4438  -48.3912 C.3       14 UNK         0.1400 
     81 CB          0.3969  -25.6282  -48.7488 C.3       14 UNK        -0.1800 
     82 C          -1.7969  -26.6473  -49.6044 C.2       14 UNK         0.5000 
     83 O          -1.4300  -26.3136  -50.7326 O.2       14 UNK        -0.5000 
     84 N          -2.9994  -27.1822  -49.3446 N.am      15 UNK        -0.5000 
     85 CA         -4.0706  -27.5156  -50.2892 C.3       15 UNK         0.1400 
     86 CB         -3.6691  -28.7521  -51.1206 C.3       15 UNK        -0.1800 
     87 C          -4.5084  -26.3300  -51.1742 C.2       15 UNK         0.5000 
     88 O          -4.7847  -26.5246  -52.3576 O.2       15 UNK        -0.5000 
     89 N          -4.5183  -25.1145  -50.6060 N.am      16 UNK        -0.5000 
     90 CA         -4.7700  -23.8375  -51.2865 C.3       16 UNK         0.1400 
     91 CB         -6.2545  -23.7268  -51.6928 C.3       16 UNK        -0.1800 
     92 C          -3.8093  -23.5869  -52.4692 C.2       16 UNK         0.5000 
     93 O          -4.2408  -23.1194  -53.5247 O.2       16 UNK        -0.5000 
     94 N          -2.5329  -23.9474  -52.2840 N.am      17 UNK        -0.5000 
     95 CA         -1.4514  -23.9422  -53.2764 C.3       17 UNK         0.1400 
     96 CB         -1.2057  -22.5243  -53.8344 C.3       17 UNK        -0.1800 
     97 C          -1.6213  -24.9985  -54.3936 C.2       17 UNK         0.5000 
     98 O          -0.9339  -24.9135  -55.4122 O.2       17 UNK        -0.5000 
     99 N          -2.5040  -25.9837  -54.1691 N.am      18 UNK        -0.5000 
    100 CA        -2.8354  -27.1283  -55.0208 C.3       18 UNK         0.1400 
    101 CB        -1.6582  -28.1259  -55.0305 C.3       18 UNK        -0.1800 
    102 C         -3.2986  -26.7335  -56.4451 C.2       18 UNK         0.5000 
    103 O         -2.5963  -27.0314  -57.4117 O.2       18 UNK        -0.5000 
    104 N         -4.4519  -26.0752  -56.6248 N.am      19 UNK        -0.5000 
    105 CA        -5.4241  -25.6084  -55.6401 C.3       19 UNK         0.1400 
    106 CB        -6.4042  -26.7382  -55.2694 C.3       19 UNK        -0.1800 
    107 C         -6.1527  -24.4226  -56.2873 C.2       19 UNK         0.5000 
    108 O         -6.9255  -24.6369  -57.2243 O.2       19 UNK        -0.5000 
    109 N         -5.8581  -23.1990  -55.8345 N.am      20 UNK        -0.5000 
    110 CA        -6.3789  -21.9609  -56.4262 C.3       20 UNK         0.1400 
    111 CB        -5.6169  -21.6492  -57.7305 C.3       20 UNK        -0.1800 
    112 C         -6.3383  -20.7417  -55.4850 C.2       20 UNK         0.5000 
    113 O         -6.9851  -19.7386  -55.7927 O.2       20 UNK        -0.5000 
    114 N         -5.5730  -20.8108  -54.3879 N.am      21 UNK        -0.5000 
    115 CA        -5.3695  -19.7115  -53.4445 C.3       21 UNK         0.1400 
    116 CB        -3.9857  -19.8834  -52.7919 C.3       21 UNK        -0.1800 
    117 C         -6.5006  -19.6050  -52.3973 C.2       21 UNK         0.5000 
    118 O         -7.5590  -20.2182  -52.5474 O.2       21 UNK        -0.5000 
    119 N         -6.2452  -18.8242  -51.3405 N.am      22 UNK        -0.5000 
    120 CA        -7.1456  -18.5530  -50.2041 C.3       22 UNK         0.1400 
    121 C         -7.4521  -19.7555  -49.2567 C.2       22 UNK         0.5000 
    122 N         -6.9372  -20.9525  -49.5024 N.am      22 UNK        -0.7600 
    123 O         -8.1964  -19.6058  -48.2916 O.2       22 UNK        -0.5000 
    124 C124       -6.6995  -17.2853  -49.4224 C.3       23 UNK        -0.0398 
    125 S125       -4.9566  -17.3267  -48.8642 S.3       23 UNK        -0.2404 
    126 C126       -4.2316  -16.0369  -49.9270 C.3       23 UNK        -0.0205 
    127 H127        4.8653  -14.2542  -48.1673 H         1 UNK         0.0600 
    128 H128        5.5842  -15.0496  -46.7641 H         1 UNK         0.0600 
    129 H129        6.2955  -13.5602  -47.3952 H         1 UNK         0.0600 
    130 H130        3.0015  -13.1476  -47.6491 H         1 UNK         0.3000 
    131 H131        2.0921  -12.7637  -45.0362 H         1 UNK         0.0600 
    132 H132        0.1934  -11.5033  -46.0736 H         1 UNK         0.0800 
    133 H133        1.0328  -11.5061  -47.6040 H         1 UNK         0.0800 
    134 H134       -0.3631  -12.8189  -49.1663 H         1 UNK         0.0800 
    135 H135        1.1478  -13.6979  -49.2048 H         1 UNK         0.0800 
    136 H136       -2.5547  -14.0987  -48.9489 H         1 UNK         0.1150 
    137 H137       -2.5400  -17.9535  -50.7981 H         1 UNK         0.1150 
    138 H138        1.1659  -16.0380  -49.8272 H         1 UNK         0.1150 
    139 H139        0.2773  -18.1679  -52.0312 H         1 UNK         0.0800 
    140 H140        1.1940  -18.3350  -50.5531 H         1 UNK         0.0800 
    141 H141       -1.5884  -19.3641  -48.5495 H         1 UNK         0.0800 
    142 H142        0.1513  -19.3531  -48.4968 H         1 UNK         0.0800 
    143 H143        0.0914  -21.9259  -48.6818 H         1 UNK         0.0600 
    144 H144       -0.1714  -20.2832  -46.4157 H         1 UNK         0.3000 
    145 H145        0.0755  -22.8118  -43.8881 H         1 UNK         0.0600 
    146 H146        1.8961  -21.2455  -43.2305 H         1 UNK         0.0600 
    147 H147        2.3828  -22.2375  -44.5980 H         1 UNK         0.0600 
    148 H148        1.9180  -20.5615  -44.8541 H         1 UNK         0.0600 
    149 H149       -0.2593  -19.9929  -43.6899 H         1 UNK         0.3000 
    150 H150       -3.8440  -19.9455  -43.7751 H         1 UNK         0.0600 
    151 H151       -3.2357  -20.4536  -41.4294 H         1 UNK         0.0600 
    152 H152       -3.4226  -18.7211  -41.6507 H         1 UNK         0.0600 
    153 H153       -1.8126  -19.4301  -41.5374 H         1 UNK         0.0600 
    154 H154       -1.8408  -17.8999  -43.5463 H         1 UNK         0.3000 
    155 H155       -1.5547  -17.1959  -47.0341 H         1 UNK         0.0600 
    156 H156       -3.6397  -16.0571  -46.2917 H         1 UNK         0.0600 
    157 H157       -2.2733  -14.9649  -46.2016 H         1 UNK         0.0600 
    158 H158       -2.9147  -15.6929  -44.7314 H         1 UNK         0.0600 
    159 H159       -0.4396  -16.0344  -44.6452 H         1 UNK         0.3000 
    160 H160        2.4454  -18.1607  -44.4848 H         1 UNK         0.0600 
    161 H161        2.2575  -15.2627  -45.4402 H         1 UNK         0.0600 
    162 H162        3.0307  -16.5675  -46.3323 H         1 UNK         0.0600 
    163 H163        3.6917  -16.0476  -44.7870 H         1 UNK         0.0600 
    164 H164        1.8351  -15.7861  -43.0723 H         1 UNK         0.3000 
    165 H165       -0.6451  -16.9309  -40.8895 H         1 UNK         0.0600 
    166 H166        0.9027  -16.6076  -38.9745 H         1 UNK         0.0600 
    167 H167        1.2255  -18.1482  -39.7526 H         1 UNK         0.0600 
    168 H168        2.2992  -16.7835  -40.0388 H         1 UNK         0.0600 
    169 H169        1.0878  -14.7099  -40.6233 H         1 UNK         0.3000 
    170 H170        0.1726  -12.6930  -43.2679 H         1 UNK         0.0600 
    171 H171       -0.7661  -11.0397  -41.6813 H         1 UNK         0.0600 
    172 H172       -1.9361  -12.3148  -41.9766 H         1 UNK         0.0600 
    173 H173       -1.0229  -12.2996  -40.4725 H         1 UNK         0.0600 
    174 H174        1.4145  -11.9309  -40.8726 H         1 UNK         0.3000 
    175 H175        3.5577  -11.7471  -40.6292 H         1 UNK         0.0600 
    176 H176        4.8428  -14.5073  -41.0583 H         1 UNK         0.0600 
    177 H177        5.3348  -13.3157  -39.8565 H         1 UNK         0.0600 
    178 H178        3.7650  -14.0918  -39.7305 H         1 UNK         0.0600 
    179 H179        4.7144  -12.4050  -43.2091 H         1 UNK         0.3000 
    180 H180        7.2229   -9.8221  -42.8219 H         1 UNK         0.0600 
    181 H181        7.1983  -12.6966  -43.8813 H         1 UNK         0.0600 
    182 H182        8.3404  -12.0177  -42.7318 H         1 UNK         0.0600 
    183 H183        8.3082  -11.4240  -44.3850 H         1 UNK         0.0600 
    184 H184        5.5487  -11.1016  -44.9030 H         1 UNK         0.3000 
    185 H185        3.6027   -8.2088  -45.4399 H         1 UNK         0.0600 
    186 H186        4.5019   -8.1812  -47.7556 H         1 UNK         0.0600 
    187 H187        5.6467   -7.4405  -46.6488 H         1 UNK         0.0600 
    188 H188        5.9329   -9.0738  -47.2372 H         1 UNK         0.0600 
    189 H189        4.0660  -10.6388  -46.9398 H         1 UNK         0.3000 
    190 H190       -2.8534  -20.9420  -46.8756 H         1 UNK         0.3000 
    191 H191       -4.7478  -22.3611  -48.4155 H         1 UNK         0.0600 
    192 H192       -6.2160  -22.0629  -46.4316 H         1 UNK         0.0600 
    193 H193       -4.8354  -21.5669  -45.4624 H         1 UNK         0.0600 
    194 H194       -5.3615  -20.5784  -46.8218 H         1 UNK         0.0600 
    195 H195       -2.9938  -23.3466  -45.4306 H         1 UNK         0.3000 
    196 H196       -4.0771  -25.9292  -45.1721 H         1 UNK         0.0600 
    197 H197       -2.1008  -26.3326  -43.6946 H         1 UNK         0.0600 
    198 H198       -2.8451  -24.7766  -43.3618 H         1 UNK         0.0600 
    199 H199       -1.3469  -24.8576  -44.2869 H         1 UNK         0.0600 
    200 H200       -1.3152  -24.8183  -47.1175 H         1 UNK         0.3000 
    201 H201       -0.5295  -27.4359  -48.0767 H         1 UNK         0.0600 
    202 H202        1.0635  -25.5351  -47.8914 H         1 UNK         0.0600 
    203 H203        0.1390  -24.6222  -49.0818 H         1 UNK         0.0600 
    204 H204        0.9638  -26.1062  -49.5485 H         1 UNK         0.0600 
    205 H205       -3.1888  -27.4069  -48.3729 H         1 UNK         0.3000 
    206 H206       -4.9404  -27.7837  -49.6882 H         1 UNK         0.0600 
    207 H207       -3.3864  -29.5853  -50.4772 H         1 UNK         0.0600 
    208 H208       -4.4961  -29.0929  -51.7447 H         1 UNK         0.0600 
    209 H209       -2.8275  -28.5374  -51.7803 H         1 UNK         0.0600 
    210 H210       -4.3048  -25.0519  -49.6152 H         1 UNK         0.3000 
    211 H211       -4.5620  -23.0494  -50.5650 H         1 UNK         0.0600 
    212 H212       -6.5249  -24.4646  -52.4487 H         1 UNK         0.0600 
    213 H213       -6.4786  -22.7443  -52.1075 H         1 UNK         0.0600 
    214 H214       -6.9095  -23.8727  -50.8340 H         1 UNK         0.0600 
    215 H215       -2.2838  -24.3548  -51.3892 H         1 UNK         0.3000 
    216 H216       -0.5558  -24.2348  -52.7267 H         1 UNK         0.0600 
    217 H217       -0.2718  -22.4833  -54.3957 H         1 UNK         0.0600 
    218 H218       -2.0013  -22.2073  -54.5088 H         1 UNK         0.0600 
    219 H219       -1.1326  -21.7910  -53.0320 H         1 UNK         0.0600 
    220 H220       -3.0419  -25.9387  -53.3113 H         1 UNK         0.3000 
    221 H221       -3.6691  -27.6404  -54.5436 H         1 UNK         0.0600 
    222 H222       -0.7629  -27.6960  -55.4808 H         1 UNK         0.0600 
    223 H223       -1.4035  -28.4421  -54.0188 H         1 UNK         0.0600 
    224 H224       -1.9117  -29.0232  -55.5962 H         1 UNK         0.0600 
    225 H225       -4.7026  -25.8240  -57.5712 H         1 UNK         0.3000 
    226 H226       -4.9275  -25.2637  -54.7374 H         1 UNK         0.0600 
    227 H227       -5.9041  -27.5676  -54.7725 H         1 UNK         0.0600 
    228 H228       -7.1689  -26.3725  -54.5832 H         1 UNK         0.0600 
    229 H229       -6.9134  -27.1375  -56.1473 H         1 UNK         0.0600 
    230 H230       -5.2128  -23.1098  -55.0531 H         1 UNK         0.3000 
    231 H231       -7.4325  -22.1131  -56.6699 H         1 UNK         0.0600 
    232 H232       -4.5473  -21.5378  -57.5486 H         1 UNK         0.0600 
    233 H233       -5.9715  -20.7227  -58.1840 H         1 UNK         0.0600 
    234 H234       -5.7500  -22.4370  -58.4716 H         1 UNK         0.0600 
    235 H235       -5.0858  -21.6720  -54.1600 H         1 UNK         0.3000 
    236 H236       -5.3569  -18.7732  -54.0030 H         1 UNK         0.0600 
    237 H237       -3.2242  -20.1359  -53.5300 H         1 UNK         0.0600 
    238 H238       -3.6673  -18.9557  -52.3236 H         1 UNK         0.0600 
    239 H239       -3.9822  -20.6614  -52.0283 H         1 UNK         0.0600 
    240 H240       -5.3368  -18.3918  -51.2688 H         1 UNK         0.3000 
    241 H241       -8.1158  -18.3147  -50.6437 H         1 UNK         0.0600 
    242 H242       -6.3886  -21.1002  -50.3308 H         1 UNK         0.3800 
    243 H243       -7.1834  -21.7211  -48.9014 H         1 UNK         0.3800 
    244 H244       -7.3359  -17.1159  -48.5522 H         1 UNK         0.0800 
    245 H245       -6.8507  -16.4085  -50.0531 H         1 UNK         0.0800 
    246 H246       -4.6298  -15.0660  -49.6282 H         1 UNK         0.0800 
    247 H247       -4.5413  -16.1938  -50.9611 H         1 UNK         0.0800 
@<TRIPOS>BOND
     1    1    2 1    
     2    1  127 1    
     3    1  128 1    
     4    1  129 1    
     5    2    3 2    
     6    2    4 am   BACKBONE|DICT|INTERRES
     7    4    5 1    
     8    4  130 1    
     9    5    6 1    
    10    5   65 1    
    11    5  131 1    
    12    6    7 1    
    13    6  132 1    
    14    6  133 1    
    15    7    8 1    
    16    8    9 1    
    17    8  134 1    
    18    8  135 1    
    19    9   10 ar   
    20    9   14 ar   
    21   10   11 ar   
    22   10  136 1    
    23   11   12 ar   
    24   11  126 1    
    25   12   13 ar   
    26   12  137 1    
    27   13   14 ar   
    28   13   15 1    
    29   14  138 1    
    30   15   16 1    
    31   15  139 1    
    32   15  140 1    
    33   16   17 1    
    34   17   18 1    
    35   17  141 1    
    36   17  142 1    
    37   18   19 1    
    38   18   67 1    
    39   18  143 1    
    40   19   20 am   BACKBONE|DICT|INTERRES
    41   19  144 1    
    42   20   21 2    
    43   20   22 1    
    44   22   23 1    
    45   22   24 1    
    46   22  145 1    
    47   23  146 1    
    48   23  147 1    
    49   23  148 1    
    50   24   25 am   BACKBONE|DICT|INTERRES
    51   24  149 1    
    52   25   26 2    
    53   25   27 1    
    54   27   28 1    
    55   27   29 1    
    56   27  150 1    
    57   28  151 1    
    58   28  152 1    
    59   28  153 1    
    60   29   30 am   BACKBONE|DICT|INTERRES
    61   29  154 1    
    62   30   31 2    
    63   30   32 1    
    64   32   33 1    
    65   32   34 1    
    66   32  155 1    
    67   33  156 1    
    68   33  157 1    
    69   33  158 1    
    70   34   35 am   BACKBONE|DICT|INTERRES
    71   34  159 1    
    72   35   36 2    
    73   35   37 1    
    74   37   38 1    
    75   37   39 1    
    76   37  160 1    
    77   38  161 1    
    78   38  162 1    
    79   38  163 1    
    80   39   40 am   BACKBONE|DICT|INTERRES
    81   39  164 1    
    82   40   41 2    
    83   40   42 1    
    84   42   43 1    
    85   42   44 1    
    86   42  165 1    
    87   43  166 1    
    88   43  167 1    
    89   43  168 1    
    90   44   45 am   BACKBONE|DICT|INTERRES
    91   44  169 1    
    92   45   46 2    
    93   45   47 1    
    94   47   48 1    
    95   47   49 1    
    96   47  170 1    
    97   48  171 1    
    98   48  172 1    
    99   48  173 1    
   100   49   50 am   BACKBONE|DICT|INTERRES
   101   49  174 1    
   102   50   51 2    
   103   50   52 1    
   104   52   53 1    
   105   52   54 1    
   106   52  175 1    
   107   53  176 1    
   108   53  177 1    
   109   53  178 1    
   110   54   55 am   BACKBONE|DICT|INTERRES
   111   54  179 1    
   112   55   56 2    
   113   55   57 1    
   114   57   58 1    
   115   57   59 1    
   116   57  180 1    
   117   58  181 1    
   118   58  182 1    
   119   58  183 1    
   120   59   60 am   BACKBONE|DICT|INTERRES
   121   59  184 1    
   122   60   61 2    
   123   60   62 1    
   124   62   63 1    
   125   62   64 1    
   126   62  185 1    
   127   63  186 1    
   128   63  187 1    
   129   63  188 1    
   130   64   65 am   BACKBONE|DICT|INTERRES
   131   64  189 1    
   132   65   66 2    
   133   67   68 2    
   134   67   69 am   BACKBONE|DICT|INTERRES
   135   69   70 1    
   136   69  190 1    
   137   70   71 1    
   138   70   72 1    
   139   70  191 1    
   140   71  192 1    
   141   71  193 1    
   142   71  194 1    
   143   72   73 2    
   144   72   74 am   BACKBONE|DICT|INTERRES
   145   74   75 1    
   146   74  195 1    
   147   75   76 1    
   148   75   77 1    
   149   75  196 1    
   150   76  197 1    
   151   76  198 1    
   152   76  199 1    
   153   77   78 2    
   154   77   79 am   BACKBONE|DICT|INTERRES
   155   79   80 1    
   156   79  200 1    
   157   80   81 1    
   158   80   82 1    
   159   80  201 1    
   160   81  202 1    
   161   81  203 1    
   162   81  204 1    
   163   82   83 2    
   164   82   84 am   BACKBONE|DICT|INTERRES
   165   84   85 1    
   166   84  205 1    
   167   85   86 1    
   168   85   87 1    
   169   85  206 1    
   170   86  207 1    
   171   86  208 1    
   172   86  209 1    
   173   87   88 2    
   174   87   89 am   BACKBONE|DICT|INTERRES
   175   89   90 1    
   176   89  210 1    
   177   90   91 1    
   178   90   92 1    
   179   90  211 1    
   180   91  212 1    
   181   91  213 1    
   182   91  214 1    
   183   92   93 2    
   184   92   94 am   BACKBONE|DICT|INTERRES
   185   94   95 1    
   186   94  215 1    
   187   95   96 1    
   188   95   97 1    
   189   95  216 1    
   190   96  217 1    
   191   96  218 1    
   192   96  219 1    
   193   97   98 2    
   194   97   99 am   BACKBONE|DICT|INTERRES
   195   99  100 1    
   196   99  220 1    
   197  100  101 1    
   198  100  102 1    
   199  100  221 1    
   200  101  222 1    
   201  101  223 1    
   202  101  224 1    
   203  102  103 2    
   204  102  104 am   BACKBONE|DICT|INTERRES
   205  104  105 1    
   206  104  225 1    
   207  105  106 1    
   208  105  107 1    
   209  105  226 1    
   210  106  227 1    
   211  106  228 1    
   212  106  229 1    
   213  107  108 2    
   214  107  109 am   BACKBONE|DICT|INTERRES
   215  109  110 1    
   216  109  230 1    
   217  110  111 1    
   218  110  112 1    
   219  110  231 1    
   220  111  232 1    
   221  111  233 1    
   222  111  234 1    
   223  112  113 2    
   224  112  114 am   BACKBONE|DICT|INTERRES
   225  114  115 1    
   226  114  235 1    
   227  115  116 1    
   228  115  117 1    
   229  115  236 1    
   230  116  237 1    
   231  116  238 1    
   232  116  239 1    
   233  117  118 2    
   234  117  119 am   BACKBONE|DICT|INTERRES
   235  119  120 1    
   236  119  240 1    
   237  120  121 1    
   238  120  124 1    
   239  120  241 1    
   240  121  122 am   BACKBONE|DICT|INTERRES
   241  121  123 2    
   242  122  242 1    
   243  122  243 1    
   244  124  125 1    
   245  124  244 1    
   246  124  245 1    
   247  125  126 1    
   248  126  246 1    
   249  126  247 1    
@<TRIPOS>SUBSTRUCTURE
     1 UNK         1 GROUP             0       ****    0 ROOT    
