@<TRIPOS>MOLECULE
3R540
247   249    1
SMALL
USER_CHARGES


@<TRIPOS>ATOM
      1 CA          1.0338  -15.7667  -52.0060 C.3       0 UNK        -0.1800 
      2 C           1.2585  -16.1730  -50.5571 C.2       0 UNK         0.5000 
      3 O           1.8270  -17.2329  -50.2975 O.2       0 UNK        -0.5000 
      4 N           0.8338  -15.3288  -49.6072 N.am      1 UNK        -0.5000 
      5 CA          0.8826  -15.5789  -48.1575 C.3       1 UNK         0.1400 
      6 C6          0.1098  -14.5118  -47.3481 C.3       23 UNK        -0.0398 
      7 S7         -1.6460  -14.4330  -47.8313 S.3       23 UNK        -0.2404 
      8 C8         -2.3936  -15.6485  -46.6995 C.3       23 UNK        -0.0205 
      9 C9         -3.2666  -16.6451  -47.4453 C.ar      23 UNK        -0.0193 
     10 C10        -4.4556  -16.2162  -48.0421 C.ar      23 UNK        -0.1150 
     11 C11        -5.2546  -17.1110  -48.7572 C.ar      23 UNK        -0.0193 
     12 C12        -4.8753  -18.4523  -48.8398 C.ar      23 UNK        -0.1150 
     13 C13        -3.6954  -18.8985  -48.2408 C.ar      23 UNK        -0.0193 
     14 C14        -2.8906  -17.9897  -47.5456 C.ar      23 UNK        -0.1150 
     15 C15        -3.2759  -20.3522  -48.3982 C.3       23 UNK        -0.0205 
     16 S16        -4.2950  -21.4888  -47.4098 S.3       23 UNK        -0.2404 
     17 C17        -3.6941  -21.1726  -45.7177 C.3       23 UNK        -0.0398 
     18 CA         -2.2582  -21.6506  -45.3749 C.3       11 UNK         0.1400 
     19 N          -1.9212  -21.3050  -43.9812 N.am      11 UNK        -0.5000 
     20 C          -0.7262  -21.4784  -43.3911 C.2       10 UNK         0.5000 
     21 O           0.2138  -22.0390  -43.9517 O.2       10 UNK        -0.5000 
     22 CA         -0.5235  -20.9365  -41.9609 C.3       10 UNK         0.1400 
     23 CB          0.8105  -20.1826  -41.8327 C.3       10 UNK        -0.1800 
     24 N          -1.5950  -20.0322  -41.5501 N.am      10 UNK        -0.5000 
     25 C          -2.5792  -20.3307  -40.6909 C.2       9 UNK         0.5000 
     26 O          -2.6946  -21.4225  -40.1339 O.2       9 UNK        -0.5000 
     27 CA         -3.6261  -19.2279  -40.4196 C.3       9 UNK         0.1400 
     28 CB         -3.3058  -18.4968  -39.1069 C.3       9 UNK        -0.1800 
     29 N          -3.7282  -18.2393  -41.4969 N.am      9 UNK        -0.5000 
     30 C          -4.0989  -18.5131  -42.7552 C.2       8 UNK         0.5000 
     31 O          -4.4739  -19.6276  -43.1157 O.2       8 UNK        -0.5000 
     32 CA         -3.9798  -17.3826  -43.7957 C.3       8 UNK         0.1400 
     33 CB         -5.3679  -16.8705  -44.2069 C.3       8 UNK        -0.1800 
     34 N          -3.1584  -16.2495  -43.3573 N.am      8 UNK        -0.5000 
     35 C          -1.8303  -16.2788  -43.1849 C.2       7 UNK         0.5000 
     36 O          -1.1350  -17.2878  -43.3339 O.2       7 UNK        -0.5000 
     37 CA         -1.1875  -14.9613  -42.7372 C.3       7 UNK         0.1400 
     38 CB         -1.3576  -14.7702  -41.2182 C.3       7 UNK        -0.1800 
     39 N           0.2313  -14.9641  -43.0820 N.am      7 UNK        -0.5000 
     40 C           0.9901  -13.8643  -43.2057 C.2       6 UNK         0.5000 
     41 O           0.5329  -12.7240  -43.1148 O.2       6 UNK        -0.5000 
     42 CA          2.5035  -14.0475  -43.4450 C.3       6 UNK         0.1400 
     43 CB          3.3386  -13.1007  -42.5577 C.3       6 UNK        -0.1800 
     44 N           2.9159  -15.4328  -43.2277 N.am      6 UNK        -0.5000 
     45 C           4.0340  -16.0003  -43.6931 C.2       5 UNK         0.5000 
     46 O           4.9068  -15.4057  -44.3255 O.2       5 UNK        -0.5000 
     47 CA          4.1522  -17.5094  -43.4604 C.3       5 UNK         0.1400 
     48 CB          3.7608  -17.9074  -42.0177 C.3       5 UNK        -0.1800 
     49 N           3.3008  -18.1415  -44.4625 N.am      5 UNK        -0.5000 
     50 C           3.1254  -19.4510  -44.6647 C.2       4 UNK         0.5000 
     51 O           3.6544  -20.3335  -43.9904 O.2       4 UNK        -0.5000 
     52 CA          2.2496  -19.8272  -45.8708 C.3       4 UNK         0.1400 
     53 CB          0.8412  -19.2049  -45.7994 C.3       4 UNK        -0.1800 
     54 N           2.8978  -19.3959  -47.1040 N.am      4 UNK        -0.5000 
     55 C           3.9116  -20.0339  -47.7044 C.2       3 UNK         0.5000 
     56 O           4.3613  -21.1169  -47.3317 O.2       3 UNK        -0.5000 
     57 CA          4.5250  -19.3427  -48.9363 C.3       3 UNK         0.1400 
     58 CB          3.8770  -19.8779  -50.2230 C.3       3 UNK        -0.1800 
     59 N           4.3791  -17.8852  -48.8840 N.am      3 UNK        -0.5000 
     60 C           5.1201  -17.0842  -48.1003 C.2       2 UNK         0.5000 
     61 O           6.0597  -17.4883  -47.4150 O.2       2 UNK        -0.5000 
     62 CA          4.7464  -15.5866  -48.0540 C.3       2 UNK         0.1400 
     63 CB          5.6118  -14.7859  -49.0386 C.3       2 UNK        -0.1800 
     64 N           3.3349  -15.3295  -48.3445 N.am      2 UNK        -0.5000 
     65 C           2.3088  -15.7514  -47.5932 C.2       1 UNK         0.5000 
     66 O           2.4527  -16.3105  -46.5073 O.2       1 UNK        -0.5000 
     67 C          -1.9917  -23.1329  -45.7451 C.2       11 UNK         0.5000 
     68 O          -1.6662  -23.4270  -46.8983 O.2       11 UNK        -0.5000 
     69 N          -2.0461  -24.0305  -44.7511 N.am      12 UNK        -0.5000 
     70 CA         -1.6642  -25.4384  -44.8727 C.3       12 UNK         0.1400 
     71 CB         -1.9855  -26.1604  -43.5562 C.3       12 UNK        -0.1800 
     72 C          -0.1847  -25.6537  -45.2580 C.2       12 UNK         0.5000 
     73 O           0.1152  -26.6232  -45.9543 O.2       12 UNK        -0.5000 
     74 N           0.7095  -24.7396  -44.8492 N.am      13 UNK        -0.5000 
     75 CA          2.1353  -24.7702  -45.1926 C.3       13 UNK         0.1400 
     76 CB          2.9210  -23.8753  -44.2237 C.3       13 UNK        -0.1800 
     77 C           2.4036  -24.3624  -46.6543 C.2       13 UNK         0.5000 
     78 O           3.4064  -24.7913  -47.2253 O.2       13 UNK        -0.5000 
     79 N           1.4792  -23.5948  -47.2499 N.am      14 UNK        -0.5000 
     80 CA          1.4579  -23.2736  -48.6786 C.3       14 UNK         0.1400 
     81 CB          0.7300  -21.9325  -48.8833 C.3       14 UNK        -0.1800 
     82 C           0.7724  -24.3757  -49.5120 C.2       14 UNK         0.5000 
     83 O           0.6352  -24.2069  -50.7233 O.2       14 UNK        -0.5000 
     84 N           0.2850  -25.4434  -48.8563 N.am      15 UNK        -0.5000 
     85 CA         -0.5235  -26.5381  -49.4089 C.3       15 UNK         0.1400 
     86 CB          0.3194  -27.4019  -50.3694 C.3       15 UNK        -0.1800 
     87 C          -1.8413  -26.0464  -50.0479 C.2       15 UNK         0.5000 
     88 O          -2.3532  -26.6803  -50.9718 O.2       15 UNK        -0.5000 
     89 N          -2.3394  -24.8988  -49.5608 N.am      16 UNK        -0.5000 
     90 CA         -3.4694  -24.1230  -50.0744 C.3       16 UNK         0.1400 
     91 CB         -4.7954  -24.8871  -49.8876 C.3       16 UNK        -0.1800 
     92 C          -3.2870  -23.5851  -51.5119 C.2       16 UNK         0.5000 
     93 O          -4.2710  -23.1679  -52.1219 O.2       16 UNK        -0.5000 
     94 N          -2.0495  -23.5576  -52.0336 N.am      17 UNK        -0.5000 
     95 CA         -1.7455  -23.1011  -53.3948 C.3       17 UNK         0.1400 
     96 CB         -0.2991  -23.4722  -53.7520 C.3       17 UNK        -0.1800 
     97 C          -1.9796  -21.5922  -53.5928 C.2       17 UNK         0.5000 
     98 O          -2.3997  -21.1749  -54.6725 O.2       17 UNK        -0.5000 
     99 N          -1.7397  -20.8058  -52.5337 N.am      18 UNK        -0.5000 
    100 CA        -1.9444  -19.3559  -52.5076 C.3       18 UNK         0.1400 
    101 CB        -1.2653  -18.7733  -51.2592 C.3       18 UNK        -0.1800 
    102 C         -3.4266  -18.9365  -52.5773 C.2       18 UNK         0.5000 
    103 O         -3.7105  -17.8105  -52.9848 O.2       18 UNK        -0.5000 
    104 N         -4.3487  -19.8499  -52.2311 N.am      19 UNK        -0.5000 
    105 CA        -5.7974  -19.6252  -52.2492 C.3       19 UNK         0.1400 
    106 CB        -6.5113  -20.8183  -51.5959 C.3       19 UNK        -0.1800 
    107 C         -6.3695  -19.3575  -53.6538 C.2       19 UNK         0.5000 
    108 O         -7.4340  -18.7505  -53.7619 O.2       19 UNK        -0.5000 
    109 N         -5.6451  -19.7752  -54.7018 N.am      20 UNK        -0.5000 
    110 CA        -5.9683  -19.5037  -56.1024 C.3       20 UNK         0.1400 
    111 CB        -5.0510  -20.3520  -56.9960 C.3       20 UNK        -0.1800 
    112 C         -5.8613  -18.0116  -56.4808 C.2       20 UNK         0.5000 
    113 O         -6.5273  -17.5847  -57.4248 O.2       20 UNK        -0.5000 
    114 N         -5.0372  -17.2465  -55.7495 N.am      21 UNK        -0.5000 
    115 CA        -4.8685  -15.8045  -55.9394 C.3       21 UNK         0.1400 
    116 CB        -3.4439  -15.4119  -55.5159 C.3       21 UNK        -0.1800 
    117 C         -5.9081  -14.9775  -55.1576 C.2       21 UNK         0.5000 
    118 O         -6.1136  -13.8073  -55.4839 O.2       21 UNK        -0.5000 
    119 N         -6.5230  -15.5795  -54.1331 N.am      22 UNK        -0.5000 
    120 CA        -7.5118  -14.9469  -53.2483 C.3       22 UNK         0.1400 
    121 C         -8.9027  -14.7816  -53.9210 C.2       22 UNK         0.5000 
    122 N         -9.6811  -13.7917  -53.5047 N.am      22 UNK        -0.7600 
    123 O         -9.3013  -15.5548  -54.7894 O.2       22 UNK        -0.5000 
    124 C124       -7.6333  -15.7016  -51.8991 C.3       23 UNK        -0.0398 
    125 S125       -6.0311  -15.8043  -51.0350 S.3       23 UNK        -0.2404 
    126 C126       -6.4985  -16.6199  -49.4793 C.3       23 UNK        -0.0205 
    127 H127        1.9911  -15.6311  -52.5091 H         1 UNK         0.0600 
    128 H128        0.4713  -14.8360  -52.0832 H         1 UNK         0.0600 
    129 H129        0.4790  -16.5434  -52.5321 H         1 UNK         0.0600 
    130 H130        0.3681  -14.4749  -49.8805 H         1 UNK         0.3000 
    131 H131        0.3845  -16.5373  -47.9937 H         1 UNK         0.0600 
    132 H132        0.5499  -13.5253  -47.5036 H         1 UNK         0.0800 
    133 H133        0.1737  -14.7026  -46.2751 H         1 UNK         0.0800 
    134 H134       -2.9986  -15.1165  -45.9649 H         1 UNK         0.0800 
    135 H135       -1.6196  -16.1773  -46.1425 H         1 UNK         0.0800 
    136 H136       -4.7407  -15.1752  -47.9808 H         1 UNK         0.1150 
    137 H137       -5.4898  -19.1517  -49.3850 H         1 UNK         0.1150 
    138 H138       -1.9696  -18.3257  -47.0912 H         1 UNK         0.1150 
    139 H139       -2.2220  -20.4845  -48.1539 H         1 UNK         0.0800 
    140 H140       -3.3785  -20.6343  -49.4464 H         1 UNK         0.0800 
    141 H141       -4.4077  -21.6314  -45.0316 H         1 UNK         0.0800 
    142 H142       -3.7684  -20.0986  -45.5518 H         1 UNK         0.0800 
    143 H143       -1.5711  -21.0725  -45.9926 H         1 UNK         0.0600 
    144 H144       -2.6535  -20.8485  -43.4513 H         1 UNK         0.3000 
    145 H145       -0.4818  -21.8044  -41.3002 H         1 UNK         0.0600 
    146 H146        0.9708  -19.8378  -40.8112 H         1 UNK         0.0600 
    147 H147        1.6552  -20.8226  -42.0907 H         1 UNK         0.0600 
    148 H148        0.8427  -19.3110  -42.4866 H         1 UNK         0.0600 
    149 H149       -1.5829  -19.1129  -41.9751 H         1 UNK         0.3000 
    150 H150       -4.5977  -19.7153  -40.3161 H         1 UNK         0.0600 
    151 H151       -2.3518  -17.9707  -39.1619 H         1 UNK         0.0600 
    152 H152       -3.2467  -19.1978  -38.2731 H         1 UNK         0.0600 
    153 H153       -4.0786  -17.7679  -38.8618 H         1 UNK         0.0600 
    154 H154       -3.4407  -17.2976  -41.2777 H         1 UNK         0.3000 
    155 H155       -3.5046  -17.8154  -44.6774 H         1 UNK         0.0600 
    156 H156       -5.8942  -16.4147  -43.3675 H         1 UNK         0.0600 
    157 H157       -5.9888  -17.6850  -44.5828 H         1 UNK         0.0600 
    158 H158       -5.2959  -16.1293  -45.0030 H         1 UNK         0.0600 
    159 H159       -3.6535  -15.3855  -43.1872 H         1 UNK         0.3000 
    160 H160       -1.6840  -14.1458  -43.2678 H         1 UNK         0.0600 
    161 H161       -0.8648  -15.5651  -40.6568 H         1 UNK         0.0600 
    162 H162       -2.4106  -14.7702  -40.9342 H         1 UNK         0.0600 
    163 H163       -0.9380  -13.8199  -40.8878 H         1 UNK         0.0600 
    164 H164        0.6052  -15.8834  -43.2731 H         1 UNK         0.3000 
    165 H165        2.6829  -13.7961  -44.4924 H         1 UNK         0.0600 
    166 H166        4.4038  -13.1854  -42.7716 H         1 UNK         0.0600 
    167 H167        3.1921  -13.3160  -41.4988 H         1 UNK         0.0600 
    168 H168        3.0651  -12.0580  -42.7232 H         1 UNK         0.0600 
    169 H169        2.2851  -15.9997  -42.6816 H         1 UNK         0.3000 
    170 H170        5.1873  -17.8029  -43.6449 H         1 UNK         0.0600 
    171 H171        4.2916  -17.2957  -41.2871 H         1 UNK         0.0600 
    172 H172        2.6930  -17.7920  -41.8321 H         1 UNK         0.0600 
    173 H173        4.0203  -18.9441  -41.8055 H         1 UNK         0.0600 
    174 H174        2.8885  -17.4915  -45.1305 H         1 UNK         0.3000 
    175 H175        2.1374  -20.9136  -45.8805 H         1 UNK         0.0600 
    176 H176        0.8490  -18.1227  -45.9028 H         1 UNK         0.0600 
    177 H177        0.1998  -19.6026  -46.5846 H         1 UNK         0.0600 
    178 H178        0.3631  -19.4153  -44.8466 H         1 UNK         0.0600 
    179 H179        2.6356  -18.4877  -47.4574 H         1 UNK         0.3000 
    180 H180        5.5889  -19.5876  -48.9647 H         1 UNK         0.0600 
    181 H181        2.7993  -19.7115  -50.2325 H         1 UNK         0.0600 
    182 H182        4.0400  -20.9518  -50.3224 H         1 UNK         0.0600 
    183 H183        4.2986  -19.4004  -51.1074 H         1 UNK         0.0600 
    184 H184        3.6097  -17.4918  -49.4179 H         1 UNK         0.3000 
    185 H185        4.9529  -15.2264  -47.0444 H         1 UNK         0.0600 
    186 H186        5.4118  -13.7171  -48.9610 H         1 UNK         0.0600 
    187 H187        6.6732  -14.9322  -48.8336 H         1 UNK         0.0600 
    188 H188        5.4317  -15.0888  -50.0708 H         1 UNK         0.0600 
    189 H189        3.1265  -14.8888  -49.2284 H         1 UNK         0.3000 
    190 H190       -2.3023  -23.7084  -43.8297 H         1 UNK         0.3000 
    191 H191       -2.2749  -25.8795  -45.6634 H         1 UNK         0.0600 
    192 H192       -1.7361  -27.2205  -43.6207 H         1 UNK         0.0600 
    193 H193       -3.0470  -26.0922  -43.3171 H         1 UNK         0.0600 
    194 H194       -1.4242  -25.7412  -42.7201 H         1 UNK         0.0600 
    195 H195        0.3928  -23.9196  -44.3393 H         1 UNK         0.3000 
    196 H196        2.4942  -25.7939  -45.0656 H         1 UNK         0.0600 
    197 H197        2.6553  -22.8255  -44.3399 H         1 UNK         0.0600 
    198 H198        2.7388  -24.1555  -43.1863 H         1 UNK         0.0600 
    199 H199        3.9939  -23.9577  -44.4014 H         1 UNK         0.0600 
    200 H200        0.6648  -23.3202  -46.7173 H         1 UNK         0.3000 
    201 H201        2.4819  -23.1653  -49.0419 H         1 UNK         0.0600 
    202 H202       -0.3292  -22.0032  -48.6390 H         1 UNK         0.0600 
    203 H203        0.8036  -21.6021  -49.9201 H         1 UNK         0.0600 
    204 H204        1.1612  -21.1476  -48.2678 H         1 UNK         0.0600 
    205 H205        0.4347  -25.4910  -47.8569 H         1 UNK         0.3000 
    206 H206       -0.8114  -27.1650  -48.5640 H         1 UNK         0.0600 
    207 H207        1.2437  -27.7309  -49.8944 H         1 UNK         0.0600 
    208 H208       -0.2250  -28.2974  -50.6712 H         1 UNK         0.0600 
    209 H209        0.5834  -26.8588  -51.2774 H         1 UNK         0.0600 
    210 H210       -1.8587  -24.4746  -48.7744 H         1 UNK         0.3000 
    211 H211       -3.5137  -23.2372  -49.4462 H         1 UNK         0.0600 
    212 H212       -5.6505  -24.2498  -50.1166 H         1 UNK         0.0600 
    213 H213       -4.9129  -25.2240  -48.8577 H         1 UNK         0.0600 
    214 H214       -4.8555  -25.7603  -50.5375 H         1 UNK         0.0600 
    215 H215       -1.2677  -23.9058  -51.4886 H         1 UNK         0.3000 
    216 H216       -2.4092  -23.6310  -54.0813 H         1 UNK         0.0600 
    217 H217        0.4190  -22.9487  -53.1196 H         1 UNK         0.0600 
    218 H218       -0.0742  -23.2122  -54.7871 H         1 UNK         0.0600 
    219 H219       -0.1263  -24.5428  -53.6396 H         1 UNK         0.0600 
    220 H220       -1.3896  -21.2354  -51.6909 H         1 UNK         0.3000 
    221 H221       -1.4527  -18.9306  -53.3852 H         1 UNK         0.0600 
    222 H222       -0.1883  -18.9396  -51.2853 H         1 UNK         0.0600 
    223 H223       -1.6459  -19.2179  -50.3425 H         1 UNK         0.0600 
    224 H224       -1.4280  -17.6969  -51.1889 H         1 UNK         0.0600 
    225 H225       -4.0428  -20.7802  -51.9824 H         1 UNK         0.3000 
    226 H226       -5.9971  -18.7373  -51.6490 H         1 UNK         0.0600 
    227 H227       -6.4560  -21.7095  -52.2214 H         1 UNK         0.0600 
    228 H228       -6.0830  -21.0652  -50.6244 H         1 UNK         0.0600 
    229 H229       -7.5680  -20.5978  -51.4400 H         1 UNK         0.0600 
    230 H230       -4.7774  -20.2632  -54.5241 H         1 UNK         0.3000 
    231 H231       -7.0005  -19.8144  -56.2771 H         1 UNK         0.0600 
    232 H232       -4.0007  -20.0947  -56.8520 H         1 UNK         0.0600 
    233 H233       -5.2847  -20.2027  -58.0509 H         1 UNK         0.0600 
    234 H234       -5.1669  -21.4153  -56.7850 H         1 UNK         0.0600 
    235 H235       -4.5397  -17.6574  -54.9678 H         1 UNK         0.3000 
    236 H236       -4.9814  -15.5622  -56.9983 H         1 UNK         0.0600 
    237 H237       -2.6958  -15.9757  -56.0734 H         1 UNK         0.0600 
    238 H238       -3.2595  -14.3534  -55.7033 H         1 UNK         0.0600 
    239 H239       -3.2756  -15.5891  -54.4531 H         1 UNK         0.0600 
    240 H240       -6.3308  -16.5544  -53.9566 H         1 UNK         0.3000 
    241 H241       -7.1450  -13.9423  -53.0270 H         1 UNK         0.0600 
    242 H242      -10.5919  -13.6772  -53.9225 H         1 UNK         0.3800 
    243 H243       -9.3812  -13.1433  -52.7926 H         1 UNK         0.3800 
    244 H244       -8.0167  -16.7112  -52.0551 H         1 UNK         0.0800 
    245 H245       -8.3430  -15.1979  -51.2405 H         1 UNK         0.0800 
    246 H246       -7.1720  -17.4530  -49.6865 H         1 UNK         0.0800 
    247 H247       -7.0483  -15.9203  -48.8481 H         1 UNK         0.0800 
@<TRIPOS>BOND
     1    1    2 1    
     2    1  127 1    
     3    1  128 1    
     4    1  129 1    
     5    2    3 2    
     6    2    4 am   BACKBONE|DICT|INTERRES
     7    4    5 1    
     8    4  130 1    
     9    5    6 1    
    10    5   65 1    
    11    5  131 1    
    12    6    7 1    
    13    6  132 1    
    14    6  133 1    
    15    7    8 1    
    16    8    9 1    
    17    8  134 1    
    18    8  135 1    
    19    9   10 ar   
    20    9   14 ar   
    21   10   11 ar   
    22   10  136 1    
    23   11   12 ar   
    24   11  126 1    
    25   12   13 ar   
    26   12  137 1    
    27   13   14 ar   
    28   13   15 1    
    29   14  138 1    
    30   15   16 1    
    31   15  139 1    
    32   15  140 1    
    33   16   17 1    
    34   17   18 1    
    35   17  141 1    
    36   17  142 1    
    37   18   19 1    
    38   18   67 1    
    39   18  143 1    
    40   19   20 am   BACKBONE|DICT|INTERRES
    41   19  144 1    
    42   20   21 2    
    43   20   22 1    
    44   22   23 1    
    45   22   24 1    
    46   22  145 1    
    47   23  146 1    
    48   23  147 1    
    49   23  148 1    
    50   24   25 am   BACKBONE|DICT|INTERRES
    51   24  149 1    
    52   25   26 2    
    53   25   27 1    
    54   27   28 1    
    55   27   29 1    
    56   27  150 1    
    57   28  151 1    
    58   28  152 1    
    59   28  153 1    
    60   29   30 am   BACKBONE|DICT|INTERRES
    61   29  154 1    
    62   30   31 2    
    63   30   32 1    
    64   32   33 1    
    65   32   34 1    
    66   32  155 1    
    67   33  156 1    
    68   33  157 1    
    69   33  158 1    
    70   34   35 am   BACKBONE|DICT|INTERRES
    71   34  159 1    
    72   35   36 2    
    73   35   37 1    
    74   37   38 1    
    75   37   39 1    
    76   37  160 1    
    77   38  161 1    
    78   38  162 1    
    79   38  163 1    
    80   39   40 am   BACKBONE|DICT|INTERRES
    81   39  164 1    
    82   40   41 2    
    83   40   42 1    
    84   42   43 1    
    85   42   44 1    
    86   42  165 1    
    87   43  166 1    
    88   43  167 1    
    89   43  168 1    
    90   44   45 am   BACKBONE|DICT|INTERRES
    91   44  169 1    
    92   45   46 2    
    93   45   47 1    
    94   47   48 1    
    95   47   49 1    
    96   47  170 1    
    97   48  171 1    
    98   48  172 1    
    99   48  173 1    
   100   49   50 am   BACKBONE|DICT|INTERRES
   101   49  174 1    
   102   50   51 2    
   103   50   52 1    
   104   52   53 1    
   105   52   54 1    
   106   52  175 1    
   107   53  176 1    
   108   53  177 1    
   109   53  178 1    
   110   54   55 am   BACKBONE|DICT|INTERRES
   111   54  179 1    
   112   55   56 2    
   113   55   57 1    
   114   57   58 1    
   115   57   59 1    
   116   57  180 1    
   117   58  181 1    
   118   58  182 1    
   119   58  183 1    
   120   59   60 am   BACKBONE|DICT|INTERRES
   121   59  184 1    
   122   60   61 2    
   123   60   62 1    
   124   62   63 1    
   125   62   64 1    
   126   62  185 1    
   127   63  186 1    
   128   63  187 1    
   129   63  188 1    
   130   64   65 am   BACKBONE|DICT|INTERRES
   131   64  189 1    
   132   65   66 2    
   133   67   68 2    
   134   67   69 am   BACKBONE|DICT|INTERRES
   135   69   70 1    
   136   69  190 1    
   137   70   71 1    
   138   70   72 1    
   139   70  191 1    
   140   71  192 1    
   141   71  193 1    
   142   71  194 1    
   143   72   73 2    
   144   72   74 am   BACKBONE|DICT|INTERRES
   145   74   75 1    
   146   74  195 1    
   147   75   76 1    
   148   75   77 1    
   149   75  196 1    
   150   76  197 1    
   151   76  198 1    
   152   76  199 1    
   153   77   78 2    
   154   77   79 am   BACKBONE|DICT|INTERRES
   155   79   80 1    
   156   79  200 1    
   157   80   81 1    
   158   80   82 1    
   159   80  201 1    
   160   81  202 1    
   161   81  203 1    
   162   81  204 1    
   163   82   83 2    
   164   82   84 am   BACKBONE|DICT|INTERRES
   165   84   85 1    
   166   84  205 1    
   167   85   86 1    
   168   85   87 1    
   169   85  206 1    
   170   86  207 1    
   171   86  208 1    
   172   86  209 1    
   173   87   88 2    
   174   87   89 am   BACKBONE|DICT|INTERRES
   175   89   90 1    
   176   89  210 1    
   177   90   91 1    
   178   90   92 1    
   179   90  211 1    
   180   91  212 1    
   181   91  213 1    
   182   91  214 1    
   183   92   93 2    
   184   92   94 am   BACKBONE|DICT|INTERRES
   185   94   95 1    
   186   94  215 1    
   187   95   96 1    
   188   95   97 1    
   189   95  216 1    
   190   96  217 1    
   191   96  218 1    
   192   96  219 1    
   193   97   98 2    
   194   97   99 am   BACKBONE|DICT|INTERRES
   195   99  100 1    
   196   99  220 1    
   197  100  101 1    
   198  100  102 1    
   199  100  221 1    
   200  101  222 1    
   201  101  223 1    
   202  101  224 1    
   203  102  103 2    
   204  102  104 am   BACKBONE|DICT|INTERRES
   205  104  105 1    
   206  104  225 1    
   207  105  106 1    
   208  105  107 1    
   209  105  226 1    
   210  106  227 1    
   211  106  228 1    
   212  106  229 1    
   213  107  108 2    
   214  107  109 am   BACKBONE|DICT|INTERRES
   215  109  110 1    
   216  109  230 1    
   217  110  111 1    
   218  110  112 1    
   219  110  231 1    
   220  111  232 1    
   221  111  233 1    
   222  111  234 1    
   223  112  113 2    
   224  112  114 am   BACKBONE|DICT|INTERRES
   225  114  115 1    
   226  114  235 1    
   227  115  116 1    
   228  115  117 1    
   229  115  236 1    
   230  116  237 1    
   231  116  238 1    
   232  116  239 1    
   233  117  118 2    
   234  117  119 am   BACKBONE|DICT|INTERRES
   235  119  120 1    
   236  119  240 1    
   237  120  121 1    
   238  120  124 1    
   239  120  241 1    
   240  121  122 am   BACKBONE|DICT|INTERRES
   241  121  123 2    
   242  122  242 1    
   243  122  243 1    
   244  124  125 1    
   245  124  244 1    
   246  124  245 1    
   247  125  126 1    
   248  126  246 1    
   249  126  247 1    
@<TRIPOS>SUBSTRUCTURE
     1 UNK         1 GROUP             0       ****    0 ROOT    
