@<TRIPOS>MOLECULE
3R540
247   249    1
SMALL
USER_CHARGES


@<TRIPOS>ATOM
      1 CA          7.3819  -12.6846  -49.4305 C.3       0 UNK        -0.1800 
      2 C           6.2588  -12.3369  -48.4636 C.2       0 UNK         0.5000 
      3 O           5.9471  -11.1585  -48.2916 O.2       0 UNK        -0.5000 
      4 N           5.6595  -13.3596  -47.8368 N.am      1 UNK        -0.5000 
      5 CA          4.5539  -13.2714  -46.8697 C.3       1 UNK         0.1400 
      6 C6          3.2212  -12.7406  -47.4703 C.3       23 UNK        -0.0398 
      7 S7          2.6916  -13.6723  -48.9454 S.3       23 UNK        -0.2404 
      8 C8          1.3485  -14.7044  -48.2841 C.3       23 UNK        -0.0205 
      9 C9          0.8812  -15.6836  -49.3481 C.ar      23 UNK        -0.0193 
     10 C10        -0.1138  -15.3181  -50.2606 C.ar      23 UNK        -0.1150 
     11 C11        -0.4844  -16.1878  -51.2916 C.ar      23 UNK        -0.0193 
     12 C12         0.1367  -17.4353  -51.3948 C.ar      23 UNK        -0.1150 
     13 C13         1.1222  -17.8161  -50.4799 C.ar      23 UNK        -0.0193 
     14 C14         1.4862  -16.9387  -49.4547 C.ar      23 UNK        -0.1150 
     15 C15         1.8141  -19.1636  -50.6191 C.3       23 UNK        -0.0205 
     16 S16         0.7223  -20.5374  -50.1457 S.3       23 UNK        -0.2404 
     17 C17         0.4052  -20.1474  -48.3915 C.3       23 UNK        -0.0398 
     18 CA          0.1322  -21.4083  -47.5419 C.3       11 UNK         0.1400 
     19 N           0.2195  -21.1313  -46.1090 N.am      11 UNK        -0.5000 
     20 C           0.1982  -22.0665  -45.1491 C.2       10 UNK         0.5000 
     21 O           0.1856  -23.2780  -45.3705 O.2       10 UNK        -0.5000 
     22 CA          0.1213  -21.5576  -43.6987 C.3       10 UNK         0.1400 
     23 CB          1.5125  -21.1584  -43.1852 C.3       10 UNK        -0.1800 
     24 N          -0.8050  -20.4323  -43.5507 N.am      10 UNK        -0.5000 
     25 C          -2.1240  -20.5064  -43.7830 C.2       9 UNK         0.5000 
     26 O          -2.7036  -21.5472  -44.0934 O.2       9 UNK        -0.5000 
     27 CA         -2.9266  -19.1962  -43.6938 C.3       9 UNK         0.1400 
     28 CB         -3.2436  -18.8550  -42.2307 C.3       9 UNK        -0.1800 
     29 N          -2.2524  -18.0659  -44.3364 N.am      9 UNK        -0.5000 
     30 C          -1.9791  -17.9858  -45.6473 C.2       8 UNK         0.5000 
     31 O          -2.2919  -18.8519  -46.4615 O.2       8 UNK        -0.5000 
     32 CA         -1.1709  -16.7648  -46.1257 C.3       8 UNK         0.1400 
     33 CB         -2.0658  -15.5251  -46.2645 C.3       8 UNK        -0.1800 
     34 N          -0.0434  -16.4658  -45.2440 N.am      8 UNK        -0.5000 
     35 C           0.9826  -17.3002  -45.0235 C.2       7 UNK         0.5000 
     36 O           1.1230  -18.3829  -45.5921 O.2       7 UNK        -0.5000 
     37 CA          1.9900  -16.8739  -43.9444 C.3       7 UNK         0.1400 
     38 CB          3.0115  -15.8760  -44.5127 C.3       7 UNK        -0.1800 
     39 N           1.3126  -16.3085  -42.7750 N.am      7 UNK        -0.5000 
     40 C           0.5757  -17.0339  -41.9193 C.2       6 UNK         0.5000 
     41 O           0.4532  -18.2560  -41.9943 O.2       6 UNK        -0.5000 
     42 CA         -0.1992  -16.2689  -40.8316 C.3       6 UNK         0.1400 
     43 CB          0.6433  -16.1044  -39.5602 C.3       6 UNK        -0.1800 
     44 N          -0.6644  -14.9618  -41.2965 N.am      6 UNK        -0.5000 
     45 C          -1.6733  -14.8071  -42.1666 C.2       5 UNK         0.5000 
     46 O          -2.3141  -15.7468  -42.6338 O.2       5 UNK        -0.5000 
     47 CA         -2.0014  -13.3769  -42.6315 C.3       5 UNK         0.1400 
     48 CB         -3.0559  -12.7420  -41.7133 C.3       5 UNK        -0.1800 
     49 N          -0.8336  -12.5001  -42.7019 N.am      5 UNK        -0.5000 
     50 C           0.2402  -12.7016  -43.4764 C.2       4 UNK         0.5000 
     51 O           0.3662  -13.6704  -44.2286 O.2       4 UNK        -0.5000 
     52 CA          1.3801  -11.6688  -43.3781 C.3       4 UNK         0.1400 
     53 CB          1.0142  -10.3923  -42.5877 C.3       4 UNK        -0.1800 
     54 N           2.6119  -12.2534  -42.8419 N.am      4 UNK        -0.5000 
     55 C           2.7780  -12.8949  -41.6739 C.2       3 UNK         0.5000 
     56 O           1.8523  -13.1372  -40.8979 O.2       3 UNK        -0.5000 
     57 CA          4.2085  -13.3495  -41.3057 C.3       3 UNK         0.1400 
     58 CB          4.2384  -14.8018  -40.7999 C.3       3 UNK        -0.1800 
     59 N           5.1467  -13.2160  -42.4239 N.am      3 UNK        -0.5000 
     60 C           5.9616  -12.1707  -42.6201 C.2       2 UNK         0.5000 
     61 O           6.0543  -11.2175  -41.8462 O.2       2 UNK        -0.5000 
     62 CA          6.7940  -12.1749  -43.9186 C.3       2 UNK         0.1400 
     63 CB          8.1701  -12.8116  -43.6719 C.3       2 UNK        -0.1800 
     64 N           6.1523  -12.8484  -45.0547 N.am      2 UNK        -0.5000 
     65 C           4.9775  -12.4990  -45.6004 C.2       1 UNK         0.5000 
     66 O           4.2586  -11.6092  -45.1444 O.2       1 UNK        -0.5000 
     67 C          -1.2129  -22.0691  -47.9043 C.2       11 UNK         0.5000 
     68 O          -1.2108  -23.1087  -48.5587 O.2       11 UNK        -0.5000 
     69 N          -2.3293  -21.4952  -47.4343 N.am      12 UNK        -0.5000 
     70 CA         -3.6849  -21.9984  -47.6620 C.3       12 UNK         0.1400 
     71 CB         -4.7080  -21.0120  -47.0798 C.3       12 UNK        -0.1800 
     72 C          -3.9220  -23.4190  -47.1178 C.2       12 UNK         0.5000 
     73 O          -4.6166  -24.2040  -47.7627 O.2       12 UNK        -0.5000 
     74 N          -3.3184  -23.7336  -45.9640 N.am      13 UNK        -0.5000 
     75 CA         -3.3303  -25.0662  -45.3617 C.3       13 UNK         0.1400 
     76 CB         -2.7714  -24.9823  -43.9332 C.3       13 UNK        -0.1800 
     77 C          -2.5542  -26.1086  -46.1912 C.2       13 UNK         0.5000 
     78 O          -2.9811  -27.2616  -46.2643 O.2       13 UNK        -0.5000 
     79 N          -1.4370  -25.6900  -46.8011 N.am      14 UNK        -0.5000 
     80 CA         -0.6014  -26.5283  -47.6609 C.3       14 UNK         0.1400 
     81 CB          0.8099  -25.9251  -47.7347 C.3       14 UNK        -0.1800 
     82 C          -1.1907  -26.7044  -49.0732 C.2       14 UNK         0.5000 
     83 O          -1.0889  -27.7916  -49.6440 O.2       14 UNK        -0.5000 
     84 N          -1.7912  -25.6375  -49.6157 N.am      15 UNK        -0.5000 
     85 CA         -2.3462  -25.5318  -50.9664 C.3       15 UNK         0.1400 
     86 CB         -2.4561  -24.0434  -51.3360 C.3       15 UNK        -0.1800 
     87 C          -3.6791  -26.2886  -51.1555 C.2       15 UNK         0.5000 
     88 O          -4.6738  -25.7080  -51.5993 O.2       15 UNK        -0.5000 
     89 N          -3.6584  -27.5965  -50.8686 N.am      16 UNK        -0.5000 
     90 CA         -4.7701  -28.5439  -51.0126 C.3       16 UNK         0.1400 
     91 CB         -4.3474  -29.8913  -50.4076 C.3       16 UNK        -0.1800 
     92 C          -5.2669  -28.7313  -52.4633 C.2       16 UNK         0.5000 
     93 O          -6.3720  -29.2342  -52.6663 O.2       16 UNK        -0.5000 
     94 N          -4.4646  -28.2891  -53.4419 N.am      17 UNK        -0.5000 
     95 CA         -4.7957  -28.2060  -54.8671 C.3       17 UNK         0.1400 
     96 CB         -3.4851  -28.0407  -55.6550 C.3       17 UNK        -0.1800 
     97 C          -5.7922  -27.0749  -55.2189 C.2       17 UNK         0.5000 
     98 O          -6.1165  -26.9131  -56.3955 O.2       17 UNK        -0.5000 
     99 N          -6.2418  -26.3100  -54.2112 N.am      18 UNK        -0.5000 
    100 CA        -7.1845  -25.1856  -54.2692 C.3       18 UNK         0.1400 
    101 CB        -8.5004  -25.5507  -54.9882 C.3       18 UNK        -0.1800 
    102 C         -6.5547  -23.8757  -54.7818 C.2       18 UNK         0.5000 
    103 O         -7.2779  -22.9306  -55.0999 O.2       18 UNK        -0.5000 
    104 N         -5.2154  -23.8047  -54.7749 N.am      19 UNK        -0.5000 
    105 CA        -4.4402  -22.5807  -55.0094 C.3       19 UNK         0.1400 
    106 CB        -2.9940  -22.9609  -55.3641 C.3       19 UNK        -0.1800 
    107 C         -4.4874  -21.6029  -53.8130 C.2       19 UNK         0.5000 
    108 O         -4.0713  -20.4522  -53.9509 O.2       19 UNK        -0.5000 
    109 N         -5.0288  -22.0698  -52.6767 N.am      20 UNK        -0.5000 
    110 CA        -5.2522  -21.3595  -51.4146 C.3       20 UNK         0.1400 
    111 CB        -6.0133  -22.3102  -50.4761 C.3       20 UNK        -0.1800 
    112 C         -6.0278  -20.0323  -51.5332 C.2       20 UNK         0.5000 
    113 O         -5.8787  -19.1659  -50.6720 O.2       20 UNK        -0.5000 
    114 N         -6.8401  -19.8987  -52.5898 N.am      21 UNK        -0.5000 
    115 CA        -7.5956  -18.6923  -52.9230 C.3       21 UNK         0.1400 
    116 CB        -8.6642  -19.0611  -53.9645 C.3       21 UNK        -0.1800 
    117 C         -6.7218  -17.5274  -53.4360 C.2       21 UNK         0.5000 
    118 O         -7.2103  -16.3974  -53.4727 O.2       21 UNK        -0.5000 
    119 N         -5.4730  -17.8121  -53.8396 N.am      22 UNK        -0.5000 
    120 CA        -4.5006  -16.8578  -54.4079 C.3       22 UNK         0.1400 
    121 C         -4.8867  -16.3001  -55.8151 C.2       22 UNK         0.5000 
    122 N         -5.8175  -16.9104  -56.5390 N.am      22 UNK        -0.7600 
    123 O         -4.3122  -15.3197  -56.2813 O.2       22 UNK        -0.5000 
    124 C124       -4.0833  -15.7368  -53.4094 C.3       23 UNK        -0.0398 
    125 S125       -3.1780  -16.3793  -51.9577 S.3       23 UNK        -0.2404 
    126 C126       -1.5079  -15.7604  -52.3319 C.3       23 UNK        -0.0205 
    127 H127        7.1391  -12.3266  -50.4311 H         1 UNK         0.0600 
    128 H128        7.5517  -13.7601  -49.4866 H         1 UNK         0.0600 
    129 H129        8.3105  -12.2100  -49.1133 H         1 UNK         0.0600 
    130 H130        5.9701  -14.2983  -48.0445 H         1 UNK         0.3000 
    131 H131        4.3703  -14.2947  -46.5429 H         1 UNK         0.0600 
    132 H132        2.4243  -12.7758  -46.7248 H         1 UNK         0.0800 
    133 H133        3.3204  -11.6919  -47.7549 H         1 UNK         0.0800 
    134 H134        1.6968  -15.2433  -47.4019 H         1 UNK         0.0800 
    135 H135        0.5222  -14.0704  -47.9597 H         1 UNK         0.0800 
    136 H136       -0.5742  -14.3426  -50.1884 H         1 UNK         0.1150 
    137 H137       -0.1405  -18.1087  -52.1941 H         1 UNK         0.1150 
    138 H138        2.2600  -17.2201  -48.7542 H         1 UNK         0.1150 
    139 H139        2.1276  -19.3020  -51.6547 H         1 UNK         0.0800 
    140 H140        2.7239  -19.1996  -50.0178 H         1 UNK         0.0800 
    141 H141       -0.4172  -19.4333  -48.3265 H         1 UNK         0.0800 
    142 H142        1.2826  -19.6333  -47.9971 H         1 UNK         0.0800 
    143 H143        0.9188  -22.1332  -47.7632 H         1 UNK         0.0600 
    144 H144        0.2777  -20.1542  -45.8383 H         1 UNK         0.3000 
    145 H145       -0.2476  -22.3776  -43.0791 H         1 UNK         0.0600 
    146 H146        1.4779  -20.8806  -42.1316 H         1 UNK         0.0600 
    147 H147        1.9203  -20.3133  -43.7403 H         1 UNK         0.0600 
    148 H148        2.2166  -21.9859  -43.2803 H         1 UNK         0.0600 
    149 H149       -0.4048  -19.5509  -43.2444 H         1 UNK         0.3000 
    150 H150       -3.8738  -19.3524  -44.2133 H         1 UNK         0.0600 
    151 H151       -3.7644  -19.6791  -41.7416 H         1 UNK         0.0600 
    152 H152       -3.8869  -17.9779  -42.1606 H         1 UNK         0.0600 
    153 H153       -2.3377  -18.6539  -41.6591 H         1 UNK         0.0600 
    154 H154       -2.0221  -17.2781  -43.7374 H         1 UNK         0.3000 
    155 H155       -0.7657  -17.0006  -47.1121 H         1 UNK         0.0600 
    156 H156       -2.8686  -15.7055  -46.9803 H         1 UNK         0.0600 
    157 H157       -1.4991  -14.6650  -46.6206 H         1 UNK         0.0600 
    158 H158       -2.5278  -15.2517  -45.3163 H         1 UNK         0.0600 
    159 H159       -0.0582  -15.5735  -44.7605 H         1 UNK         0.3000 
    160 H160        2.5341  -17.7664  -43.6278 H         1 UNK         0.0600 
    161 H161        2.5491  -14.9324  -44.7998 H         1 UNK         0.0600 
    162 H162        3.4944  -16.2871  -45.4001 H         1 UNK         0.0600 
    163 H163        3.7991  -15.6609  -43.7933 H         1 UNK         0.0600 
    164 H164        1.3005  -15.3021  -42.6910 H         1 UNK         0.3000 
    165 H165       -1.0732  -16.8682  -40.5686 H         1 UNK         0.0600 
    166 H166        0.0672  -15.6320  -38.7646 H         1 UNK         0.0600 
    167 H167        0.9811  -17.0723  -39.1876 H         1 UNK         0.0600 
    168 H168        1.5267  -15.4956  -39.7389 H         1 UNK         0.0600 
    169 H169       -0.1390  -14.1504  -40.9922 H         1 UNK         0.3000 
    170 H170       -2.4218  -13.4465  -43.6365 H         1 UNK         0.0600 
    171 H171       -2.6811  -12.6161  -40.6967 H         1 UNK         0.0600 
    172 H172       -3.3635  -11.7635  -42.0824 H         1 UNK         0.0600 
    173 H173       -3.9510  -13.3633  -41.6589 H         1 UNK         0.0600 
    174 H174       -0.8389  -11.6932  -42.0953 H         1 UNK         0.3000 
    175 H175        1.5996  -11.3682  -44.4033 H         1 UNK         0.0600 
    176 H176        0.8163  -10.5989  -41.5353 H         1 UNK         0.0600 
    177 H177        1.8274   -9.6675  -42.6301 H         1 UNK         0.0600 
    178 H178        0.1331   -9.9051  -43.0075 H         1 UNK         0.0600 
    179 H179        3.4250  -12.1123  -43.4320 H         1 UNK         0.3000 
    180 H180        4.5338  -12.7138  -40.4798 H         1 UNK         0.0600 
    181 H181        5.2611  -15.1465  -40.6464 H         1 UNK         0.0600 
    182 H182        3.7524  -15.4903  -41.4896 H         1 UNK         0.0600 
    183 H183        3.7310  -14.8846  -39.8391 H         1 UNK         0.0600 
    184 H184        5.1428  -13.9534  -43.1125 H         1 UNK         0.3000 
    185 H185        6.9489  -11.1325  -44.2050 H         1 UNK         0.0600 
    186 H186        8.8081  -12.7270  -44.5518 H         1 UNK         0.0600 
    187 H187        8.6882  -12.3174  -42.8488 H         1 UNK         0.0600 
    188 H188        8.0845  -13.8690  -43.4181 H         1 UNK         0.0600 
    189 H189        6.6883  -13.5786  -45.5011 H         1 UNK         0.3000 
    190 H190       -2.2558  -20.6145  -46.9285 H         1 UNK         0.3000 
    191 H191       -3.8268  -22.0388  -48.7415 H         1 UNK         0.0600 
    192 H192       -4.6375  -20.0390  -47.5668 H         1 UNK         0.0600 
    193 H193       -4.5584  -20.8644  -46.0107 H         1 UNK         0.0600 
    194 H194       -5.7278  -21.3722  -47.2180 H         1 UNK         0.0600 
    195 H195       -2.8262  -23.0040  -45.4571 H         1 UNK         0.3000 
    196 H196       -4.3688  -25.3981  -45.3003 H         1 UNK         0.0600 
    197 H197       -3.3610  -24.3014  -43.3190 H         1 UNK         0.0600 
    198 H198       -1.7394  -24.6302  -43.9245 H         1 UNK         0.0600 
    199 H199       -2.7903  -25.9587  -43.4477 H         1 UNK         0.0600 
    200 H200       -1.1495  -24.7259  -46.6859 H         1 UNK         0.3000 
    201 H201       -0.5186  -27.5190  -47.2091 H         1 UNK         0.0600 
    202 H202        1.2579  -25.8502  -46.7436 H         1 UNK         0.0600 
    203 H203        0.8009  -24.9260  -48.1717 H         1 UNK         0.0600 
    204 H204        1.4683  -26.5449  -48.3446 H         1 UNK         0.0600 
    205 H205       -1.7719  -24.7691  -49.0850 H         1 UNK         0.3000 
    206 H206       -1.6333  -25.9843  -51.6584 H         1 UNK         0.0600 
    207 H207       -3.1041  -23.5076  -50.6433 H         1 UNK         0.0600 
    208 H208       -1.4796  -23.5589  -51.3200 H         1 UNK         0.0600 
    209 H209       -2.8628  -23.9152  -52.3371 H         1 UNK         0.0600 
    210 H210       -2.7889  -27.9695  -50.4965 H         1 UNK         0.3000 
    211 H211       -5.6100  -28.1554  -50.4334 H         1 UNK         0.0600 
    212 H212       -3.4915  -30.3160  -50.9337 H         1 UNK         0.0600 
    213 H213       -5.1595  -30.6176  -50.4593 H         1 UNK         0.0600 
    214 H214       -4.0758  -29.7836  -49.3572 H         1 UNK         0.0600 
    215 H215       -3.5712  -27.9075  -53.1698 H         1 UNK         0.3000 
    216 H216       -5.2598  -29.1477  -55.1668 H         1 UNK         0.0600 
    217 H217       -3.6689  -28.0370  -56.7302 H         1 UNK         0.0600 
    218 H218       -2.7956  -28.8602  -55.4508 H         1 UNK         0.0600 
    219 H219       -2.9807  -27.1064  -55.4053 H         1 UNK         0.0600 
    220 H220       -5.8677  -26.4965  -53.2882 H         1 UNK         0.3000 
    221 H221       -7.4433  -24.9859  -53.2283 H         1 UNK         0.0600 
    222 H222       -8.3653  -25.6467  -56.0655 H         1 UNK         0.0600 
    223 H223       -8.9091  -26.4891  -54.6132 H         1 UNK         0.0600 
    224 H224       -9.2568  -24.7818  -54.8272 H         1 UNK         0.0600 
    225 H225       -4.6989  -24.6261  -54.4973 H         1 UNK         0.3000 
    226 H226       -4.8697  -22.0577  -55.8664 H         1 UNK         0.0600 
    227 H227       -2.9604  -23.5745  -56.2645 H         1 UNK         0.0600 
    228 H228       -2.3922  -22.0718  -55.5573 H         1 UNK         0.0600 
    229 H229       -2.5075  -23.5174  -54.5641 H         1 UNK         0.0600 
    230 H230       -5.3193  -23.0362  -52.6799 H         1 UNK         0.3000 
    231 H231       -4.2752  -21.1335  -50.9837 H         1 UNK         0.0600 
    232 H232       -6.2160  -21.8387  -49.5148 H         1 UNK         0.0600 
    233 H233       -5.4475  -23.2209  -50.2802 H         1 UNK         0.0600 
    234 H234       -6.9747  -22.6041  -50.8992 H         1 UNK         0.0600 
    235 H235       -6.9068  -20.6680  -53.2408 H         1 UNK         0.3000 
    236 H236       -8.1028  -18.3453  -52.0204 H         1 UNK         0.0600 
    237 H237       -8.2161  -19.4395  -54.8842 H         1 UNK         0.0600 
    238 H238       -9.3401  -19.8262  -53.5819 H         1 UNK         0.0600 
    239 H239       -9.2728  -18.1947  -54.2269 H         1 UNK         0.0600 
    240 H240       -5.1443  -18.7703  -53.7756 H         1 UNK         0.3000 
    241 H241       -3.6079  -17.4524  -54.6052 H         1 UNK         0.0600 
    242 H242       -6.2897  -17.7260  -56.1845 H         1 UNK         0.3800 
    243 H243       -6.0517  -16.5505  -57.4510 H         1 UNK         0.3800 
    244 H244       -4.9535  -15.1821  -53.0588 H         1 UNK         0.0800 
    245 H245       -3.4523  -14.9955  -53.9014 H         1 UNK         0.0800 
    246 H246       -1.2016  -16.1231  -53.3145 H         1 UNK         0.0800 
    247 H247       -1.5343  -14.6717  -52.4016 H         1 UNK         0.0800 
@<TRIPOS>BOND
     1    1    2 1    
     2    1  127 1    
     3    1  128 1    
     4    1  129 1    
     5    2    3 2    
     6    2    4 am   BACKBONE|DICT|INTERRES
     7    4    5 1    
     8    4  130 1    
     9    5    6 1    
    10    5   65 1    
    11    5  131 1    
    12    6    7 1    
    13    6  132 1    
    14    6  133 1    
    15    7    8 1    
    16    8    9 1    
    17    8  134 1    
    18    8  135 1    
    19    9   10 ar   
    20    9   14 ar   
    21   10   11 ar   
    22   10  136 1    
    23   11   12 ar   
    24   11  126 1    
    25   12   13 ar   
    26   12  137 1    
    27   13   14 ar   
    28   13   15 1    
    29   14  138 1    
    30   15   16 1    
    31   15  139 1    
    32   15  140 1    
    33   16   17 1    
    34   17   18 1    
    35   17  141 1    
    36   17  142 1    
    37   18   19 1    
    38   18   67 1    
    39   18  143 1    
    40   19   20 am   BACKBONE|DICT|INTERRES
    41   19  144 1    
    42   20   21 2    
    43   20   22 1    
    44   22   23 1    
    45   22   24 1    
    46   22  145 1    
    47   23  146 1    
    48   23  147 1    
    49   23  148 1    
    50   24   25 am   BACKBONE|DICT|INTERRES
    51   24  149 1    
    52   25   26 2    
    53   25   27 1    
    54   27   28 1    
    55   27   29 1    
    56   27  150 1    
    57   28  151 1    
    58   28  152 1    
    59   28  153 1    
    60   29   30 am   BACKBONE|DICT|INTERRES
    61   29  154 1    
    62   30   31 2    
    63   30   32 1    
    64   32   33 1    
    65   32   34 1    
    66   32  155 1    
    67   33  156 1    
    68   33  157 1    
    69   33  158 1    
    70   34   35 am   BACKBONE|DICT|INTERRES
    71   34  159 1    
    72   35   36 2    
    73   35   37 1    
    74   37   38 1    
    75   37   39 1    
    76   37  160 1    
    77   38  161 1    
    78   38  162 1    
    79   38  163 1    
    80   39   40 am   BACKBONE|DICT|INTERRES
    81   39  164 1    
    82   40   41 2    
    83   40   42 1    
    84   42   43 1    
    85   42   44 1    
    86   42  165 1    
    87   43  166 1    
    88   43  167 1    
    89   43  168 1    
    90   44   45 am   BACKBONE|DICT|INTERRES
    91   44  169 1    
    92   45   46 2    
    93   45   47 1    
    94   47   48 1    
    95   47   49 1    
    96   47  170 1    
    97   48  171 1    
    98   48  172 1    
    99   48  173 1    
   100   49   50 am   BACKBONE|DICT|INTERRES
   101   49  174 1    
   102   50   51 2    
   103   50   52 1    
   104   52   53 1    
   105   52   54 1    
   106   52  175 1    
   107   53  176 1    
   108   53  177 1    
   109   53  178 1    
   110   54   55 am   BACKBONE|DICT|INTERRES
   111   54  179 1    
   112   55   56 2    
   113   55   57 1    
   114   57   58 1    
   115   57   59 1    
   116   57  180 1    
   117   58  181 1    
   118   58  182 1    
   119   58  183 1    
   120   59   60 am   BACKBONE|DICT|INTERRES
   121   59  184 1    
   122   60   61 2    
   123   60   62 1    
   124   62   63 1    
   125   62   64 1    
   126   62  185 1    
   127   63  186 1    
   128   63  187 1    
   129   63  188 1    
   130   64   65 am   BACKBONE|DICT|INTERRES
   131   64  189 1    
   132   65   66 2    
   133   67   68 2    
   134   67   69 am   BACKBONE|DICT|INTERRES
   135   69   70 1    
   136   69  190 1    
   137   70   71 1    
   138   70   72 1    
   139   70  191 1    
   140   71  192 1    
   141   71  193 1    
   142   71  194 1    
   143   72   73 2    
   144   72   74 am   BACKBONE|DICT|INTERRES
   145   74   75 1    
   146   74  195 1    
   147   75   76 1    
   148   75   77 1    
   149   75  196 1    
   150   76  197 1    
   151   76  198 1    
   152   76  199 1    
   153   77   78 2    
   154   77   79 am   BACKBONE|DICT|INTERRES
   155   79   80 1    
   156   79  200 1    
   157   80   81 1    
   158   80   82 1    
   159   80  201 1    
   160   81  202 1    
   161   81  203 1    
   162   81  204 1    
   163   82   83 2    
   164   82   84 am   BACKBONE|DICT|INTERRES
   165   84   85 1    
   166   84  205 1    
   167   85   86 1    
   168   85   87 1    
   169   85  206 1    
   170   86  207 1    
   171   86  208 1    
   172   86  209 1    
   173   87   88 2    
   174   87   89 am   BACKBONE|DICT|INTERRES
   175   89   90 1    
   176   89  210 1    
   177   90   91 1    
   178   90   92 1    
   179   90  211 1    
   180   91  212 1    
   181   91  213 1    
   182   91  214 1    
   183   92   93 2    
   184   92   94 am   BACKBONE|DICT|INTERRES
   185   94   95 1    
   186   94  215 1    
   187   95   96 1    
   188   95   97 1    
   189   95  216 1    
   190   96  217 1    
   191   96  218 1    
   192   96  219 1    
   193   97   98 2    
   194   97   99 am   BACKBONE|DICT|INTERRES
   195   99  100 1    
   196   99  220 1    
   197  100  101 1    
   198  100  102 1    
   199  100  221 1    
   200  101  222 1    
   201  101  223 1    
   202  101  224 1    
   203  102  103 2    
   204  102  104 am   BACKBONE|DICT|INTERRES
   205  104  105 1    
   206  104  225 1    
   207  105  106 1    
   208  105  107 1    
   209  105  226 1    
   210  106  227 1    
   211  106  228 1    
   212  106  229 1    
   213  107  108 2    
   214  107  109 am   BACKBONE|DICT|INTERRES
   215  109  110 1    
   216  109  230 1    
   217  110  111 1    
   218  110  112 1    
   219  110  231 1    
   220  111  232 1    
   221  111  233 1    
   222  111  234 1    
   223  112  113 2    
   224  112  114 am   BACKBONE|DICT|INTERRES
   225  114  115 1    
   226  114  235 1    
   227  115  116 1    
   228  115  117 1    
   229  115  236 1    
   230  116  237 1    
   231  116  238 1    
   232  116  239 1    
   233  117  118 2    
   234  117  119 am   BACKBONE|DICT|INTERRES
   235  119  120 1    
   236  119  240 1    
   237  120  121 1    
   238  120  124 1    
   239  120  241 1    
   240  121  122 am   BACKBONE|DICT|INTERRES
   241  121  123 2    
   242  122  242 1    
   243  122  243 1    
   244  124  125 1    
   245  124  244 1    
   246  124  245 1    
   247  125  126 1    
   248  126  246 1    
   249  126  247 1    
@<TRIPOS>SUBSTRUCTURE
     1 UNK         1 GROUP             0       ****    0 ROOT    
