@<TRIPOS>MOLECULE
3R540
247   249    1
SMALL
USER_CHARGES


@<TRIPOS>ATOM
      1 CA          4.4183  -19.3130  -47.5364 C.3       0 UNK        -0.1800 
      2 C           4.0989  -18.1905  -48.5132 C.2       0 UNK         0.5000 
      3 O           5.0166  -17.6199  -49.1025 O.2       0 UNK        -0.5000 
      4 N           2.8055  -17.8819  -48.6844 N.am      1 UNK        -0.5000 
      5 CA          2.2689  -16.8648  -49.6031 C.3       1 UNK         0.1400 
      6 C6          2.5143  -17.1786  -51.1079 C.3       23 UNK        -0.0398 
      7 S7          2.0049  -18.8705  -51.5857 S.3       23 UNK        -0.2404 
      8 C8          0.4942  -18.5831  -52.5741 C.3       23 UNK        -0.0205 
      9 C9         -0.6966  -18.0060  -51.8081 C.ar      23 UNK        -0.0193 
     10 C10        -1.6740  -17.2928  -52.5086 C.ar      23 UNK        -0.1150 
     11 C11        -2.7895  -16.7689  -51.8476 C.ar      23 UNK        -0.0193 
     12 C12        -2.9117  -16.9328  -50.4659 C.ar      23 UNK        -0.1150 
     13 C13        -1.9531  -17.6536  -49.7511 C.ar      23 UNK        -0.0193 
     14 C14        -0.8654  -18.2074  -50.4341 C.ar      23 UNK        -0.1150 
     15 C15        -2.1383  -17.8929  -48.2591 C.3       23 UNK        -0.0205 
     16 S16        -0.6001  -17.6631  -47.3048 S.3       23 UNK        -0.2404 
     17 C17        -0.9688  -18.6588  -45.8287 C.3       23 UNK        -0.0398 
     18 CA         -0.3510  -20.0776  -45.8867 C.3       11 UNK         0.1400 
     19 N          -0.0313  -20.5802  -44.5448 N.am      11 UNK        -0.5000 
     20 C           0.5338  -21.7631  -44.2561 C.2       10 UNK         0.5000 
     21 O           0.7759  -22.6271  -45.0994 O.2       10 UNK        -0.5000 
     22 CA          0.8905  -22.0262  -42.7824 C.3       10 UNK         0.1400 
     23 CB          2.3964  -21.8154  -42.5618 C.3       10 UNK        -0.1800 
     24 N           0.1644  -21.1412  -41.8731 N.am      10 UNK        -0.5000 
     25 C          -1.0120  -21.4063  -41.2924 C.2       9 UNK         0.5000 
     26 O          -1.6300  -22.4586  -41.4601 O.2       9 UNK        -0.5000 
     27 CA         -1.5967  -20.2932  -40.3923 C.3       9 UNK         0.1400 
     28 CB         -2.5403  -20.8336  -39.2982 C.3       9 UNK        -0.1800 
     29 N          -0.5700  -19.4107  -39.8224 N.am      9 UNK        -0.5000 
     30 C           0.4070  -19.7330  -38.9601 C.2       8 UNK         0.5000 
     31 O           0.5239  -20.8429  -38.4396 O.2       8 UNK        -0.5000 
     32 CA          1.4608  -18.6486  -38.6488 C.3       8 UNK         0.1400 
     33 CB          2.8031  -19.0165  -39.3015 C.3       8 UNK        -0.1800 
     34 N           1.0770  -17.3065  -39.0937 N.am      8 UNK        -0.5000 
     35 C           0.1790  -16.5233  -38.4803 C.2       7 UNK         0.5000 
     36 O          -0.3892  -16.8270  -37.4309 O.2       7 UNK        -0.5000 
     37 CA         -0.1690  -15.1931  -39.1770 C.3       7 UNK         0.1400 
     38 CB          0.8341  -14.0967  -38.7882 C.3       7 UNK        -0.1800 
     39 N          -0.2217  -15.3088  -40.6366 N.am      7 UNK        -0.5000 
     40 C          -1.1012  -16.0612  -41.3136 C.2       6 UNK         0.5000 
     41 O          -1.9963  -16.7161  -40.7803 O.2       6 UNK        -0.5000 
     42 CA         -0.9052  -16.1569  -42.8363 C.3       6 UNK         0.1400 
     43 CB         -1.4787  -14.9299  -43.5588 C.3       6 UNK        -0.1800 
     44 N           0.5014  -16.3356  -43.1981 N.am      6 UNK        -0.5000 
     45 C           1.2235  -17.4267  -42.9085 C.2       5 UNK         0.5000 
     46 O           0.7538  -18.4345  -42.3820 O.2       5 UNK        -0.5000 
     47 CA          2.7183  -17.3894  -43.2556 C.3       5 UNK         0.1400 
     48 CB          2.9490  -17.8658  -44.6959 C.3       5 UNK        -0.1800 
     49 N           3.2886  -16.0560  -43.0700 N.am      5 UNK        -0.5000 
     50 C           3.4956  -15.4905  -41.8719 C.2       4 UNK         0.5000 
     51 O           3.2628  -16.0533  -40.8022 O.2       4 UNK        -0.5000 
     52 CA          3.9995  -14.0356  -41.8738 C.3       4 UNK         0.1400 
     53 CB          5.5230  -13.9891  -42.0621 C.3       4 UNK        -0.1800 
     54 N           3.3567  -13.2231  -42.9082 N.am      4 UNK        -0.5000 
     55 C           2.0529  -12.9117  -42.9232 C.2       3 UNK         0.5000 
     56 O           1.2649  -13.2375  -42.0360 O.2       3 UNK        -0.5000 
     57 CA          1.5318  -12.1533  -44.1592 C.3       3 UNK         0.1400 
     58 CB          1.6403  -10.6367  -43.9441 C.3       3 UNK        -0.1800 
     59 N           2.2127  -12.5169  -45.4067 N.am      3 UNK        -0.5000 
     60 C           2.2265  -13.7446  -45.9421 C.2       2 UNK         0.5000 
     61 O           1.6892  -14.7257  -45.4201 O.2       2 UNK        -0.5000 
     62 CA          3.0120  -13.9082  -47.2502 C.3       2 UNK         0.1400 
     63 CB          4.5273  -13.9220  -46.9785 C.3       2 UNK        -0.1800 
     64 N           2.6215  -15.1609  -47.8852 N.am      2 UNK        -0.5000 
     65 C           2.7059  -15.4410  -49.1914 C.2       1 UNK         0.5000 
     66 O           3.1150  -14.6410  -50.0353 O.2       1 UNK        -0.5000 
     67 C          -1.2375  -21.0324  -46.7128 C.2       11 UNK         0.5000 
     68 O          -1.0182  -21.1750  -47.9146 O.2       11 UNK        -0.5000 
     69 N          -2.1913  -21.7034  -46.0525 N.am      12 UNK        -0.5000 
     70 CA         -3.1103  -22.6624  -46.6698 C.3       12 UNK         0.1400 
     71 CB         -4.1625  -23.0880  -45.6354 C.3       12 UNK        -0.1800 
     72 C          -2.4171  -23.8995  -47.2754 C.2       12 UNK         0.5000 
     73 O          -2.9539  -24.4751  -48.2218 O.2       12 UNK        -0.5000 
     74 N          -1.2478  -24.2722  -46.7337 N.am      13 UNK        -0.5000 
     75 CA         -0.4188  -25.3717  -47.2282 C.3       13 UNK         0.1400 
     76 CB          0.3743  -25.9700  -46.0557 C.3       13 UNK        -0.1800 
     77 C           0.5333  -24.9284  -48.3551 C.2       13 UNK         0.5000 
     78 O           0.9371  -25.7668  -49.1619 O.2       13 UNK        -0.5000 
     79 N           0.8811  -23.6336  -48.3944 N.am      14 UNK        -0.5000 
     80 CA          1.6476  -23.0192  -49.4809 C.3       14 UNK         0.1400 
     81 CB          2.2684  -21.7030  -48.9889 C.3       14 UNK        -0.1800 
     82 C           0.7625  -22.7883  -50.7192 C.2       14 UNK         0.5000 
     83 O           1.1973  -23.0380  -51.8444 O.2       14 UNK        -0.5000 
     84 N          -0.4770  -22.3498  -50.4724 N.am      15 UNK        -0.5000 
     85 CA         -1.5602  -22.2499  -51.4427 C.3       15 UNK         0.1400 
     86 CB         -2.6550  -21.3633  -50.8283 C.3       15 UNK        -0.1800 
     87 C          -2.1492  -23.6289  -51.8053 C.2       15 UNK         0.5000 
     88 O          -1.7615  -24.6539  -51.2419 O.2       15 UNK        -0.5000 
     89 N          -3.1525  -23.6167  -52.6900 N.am      16 UNK        -0.5000 
     90 CA         -4.0168  -24.7571  -52.9962 C.3       16 UNK         0.1400 
     91 CB         -4.3356  -24.7307  -54.5033 C.3       16 UNK        -0.1800 
     92 C          -5.2874  -24.6936  -52.1203 C.2       16 UNK         0.5000 
     93 O          -6.3946  -24.8447  -52.6383 O.2       16 UNK        -0.5000 
     94 N          -5.1032  -24.4119  -50.8173 N.am      17 UNK        -0.5000 
     95 CA         -6.1280  -24.0037  -49.8465 C.3       17 UNK         0.1400 
     96 CB         -7.0956  -25.1637  -49.5338 C.3       17 UNK        -0.1800 
     97 C          -6.8381  -22.7141  -50.3140 C.2       17 UNK         0.5000 
     98 O          -8.0618  -22.6890  -50.4550 O.2       17 UNK        -0.5000 
     99 N          -6.0181  -21.6904  -50.6041 N.am      18 UNK        -0.5000 
    100 CA        -6.3345  -20.4857  -51.3785 C.3       18 UNK         0.1400 
    101 CB        -7.4105  -19.6192  -50.6847 C.3       18 UNK        -0.1800 
    102 C         -6.6501  -20.8883  -52.8336 C.2       18 UNK         0.5000 
    103 O         -5.7837  -21.4865  -53.4787 O.2       18 UNK        -0.5000 
    104 N         -7.8718  -20.5921  -53.3005 N.am      19 UNK        -0.5000 
    105 CA        -8.4861  -21.0577  -54.5469 C.3       19 UNK         0.1400 
    106 CB        -8.9105  -22.5350  -54.3887 C.3       19 UNK        -0.1800 
    107 C         -7.6091  -20.7921  -55.7876 C.2       19 UNK         0.5000 
    108 O         -7.4084  -19.6306  -56.1479 O.2       19 UNK        -0.5000 
    109 N         -7.0853  -21.8603  -56.4041 N.am      20 UNK        -0.5000 
    110 CA        -6.2519  -21.8400  -57.6081 C.3       20 UNK         0.1400 
    111 CB        -5.9770  -23.2879  -58.0429 C.3       20 UNK        -0.1800 
    112 C         -4.9292  -21.0610  -57.4643 C.2       20 UNK         0.5000 
    113 O         -4.3787  -20.6295  -58.4781 O.2       20 UNK        -0.5000 
    114 N         -4.4484  -20.8760  -56.2264 N.am      21 UNK        -0.5000 
    115 CA        -3.2752  -20.0541  -55.9277 C.3       21 UNK         0.1400 
    116 CB        -2.7146  -20.4568  -54.5572 C.3       21 UNK        -0.1800 
    117 C         -3.5750  -18.5427  -55.9549 C.2       21 UNK         0.5000 
    118 O         -2.6376  -17.7549  -56.0896 O.2       21 UNK        -0.5000 
    119 N         -4.8517  -18.1649  -55.8079 N.am      22 UNK        -0.5000 
    120 CA        -5.3071  -16.7699  -55.6973 C.3       22 UNK         0.1400 
    121 C         -6.1551  -16.3158  -56.9150 C.2       22 UNK         0.5000 
    122 N         -6.9119  -17.1979  -57.5560 N.am      22 UNK        -0.7600 
    123 O         -6.1192  -15.1472  -57.2902 O.2       22 UNK        -0.5000 
    124 C124       -6.0807  -16.5046  -54.3765 C.3       23 UNK        -0.0398 
    125 S125       -5.2821  -17.2047  -52.8917 S.3       23 UNK        -0.2404 
    126 C126       -3.8865  -16.0680  -52.6308 C.3       23 UNK        -0.0205 
    127 H127        3.5263  -19.6716  -47.0230 H         1 UNK         0.0600 
    128 H128        5.1302  -18.9688  -46.7865 H         1 UNK         0.0600 
    129 H129        4.8659  -20.1527  -48.0677 H         1 UNK         0.0600 
    130 H130        2.1063  -18.3935  -48.1674 H         1 UNK         0.3000 
    131 H131        1.1925  -16.8631  -49.4521 H         1 UNK         0.0600 
    132 H132        1.9859  -16.4585  -51.7347 H         1 UNK         0.0800 
    133 H133        3.5722  -17.0693  -51.3510 H         1 UNK         0.0800 
    134 H134        0.7484  -17.9339  -53.4134 H         1 UNK         0.0800 
    135 H135        0.1899  -19.5379  -53.0032 H         1 UNK         0.0800 
    136 H136       -1.5796  -17.1655  -53.5782 H         1 UNK         0.1150 
    137 H137       -3.7771  -16.5322  -49.9568 H         1 UNK         0.1150 
    138 H138       -0.1548  -18.8087  -49.8860 H         1 UNK         0.1150 
    139 H139       -2.8987  -17.2251  -47.8516 H         1 UNK         0.0800 
    140 H140       -2.5175  -18.9062  -48.1331 H         1 UNK         0.0800 
    141 H141       -2.0425  -18.6808  -45.6317 H         1 UNK         0.0800 
    142 H142       -0.5337  -18.1064  -45.0023 H         1 UNK         0.0800 
    143 H143        0.6082  -20.0140  -46.4051 H         1 UNK         0.0600 
    144 H144       -0.1670  -19.9361  -43.7771 H         1 UNK         0.3000 
    145 H145        0.6495  -23.0674  -42.5586 H         1 UNK         0.0600 
    146 H146        2.6767  -22.0338  -41.5310 H         1 UNK         0.0600 
    147 H147        2.9826  -22.4734  -43.2047 H         1 UNK         0.0600 
    148 H148        2.6962  -20.7893  -42.7792 H         1 UNK         0.0600 
    149 H149        0.5569  -20.2137  -41.7380 H         1 UNK         0.3000 
    150 H150       -2.1929  -19.6620  -41.0526 H         1 UNK         0.0600 
    151 H151       -3.3956  -21.3469  -39.7389 H         1 UNK         0.0600 
    152 H152       -2.9317  -20.0245  -38.6816 H         1 UNK         0.0600 
    153 H153       -2.0380  -21.5444  -38.6417 H         1 UNK         0.0600 
    154 H154       -0.5641  -18.4700  -40.1948 H         1 UNK         0.3000 
    155 H155        1.6016  -18.6291  -37.5662 H         1 UNK         0.0600 
    156 H156        2.7214  -19.0625  -40.3876 H         1 UNK         0.0600 
    157 H157        3.1536  -19.9906  -38.9582 H         1 UNK         0.0600 
    158 H158        3.5758  -18.2885  -39.0536 H         1 UNK         0.0600 
    159 H159        1.5531  -16.9483  -39.9140 H         1 UNK         0.3000 
    160 H160       -1.1585  -14.8872  -38.8312 H         1 UNK         0.0600 
    161 H161        1.8412  -14.3311  -39.1341 H         1 UNK         0.0600 
    162 H162        0.8781  -13.9725  -37.7055 H         1 UNK         0.0600 
    163 H163        0.5505  -13.1345  -39.2150 H         1 UNK         0.0600 
    164 H164        0.4513  -14.7555  -41.1601 H         1 UNK         0.3000 
    165 H165       -1.4587  -17.0329  -43.1785 H         1 UNK         0.0600 
    166 H166       -1.3383  -15.0067  -44.6375 H         1 UNK         0.0600 
    167 H167       -2.5494  -14.8368  -43.3742 H         1 UNK         0.0600 
    168 H168       -1.0092  -14.0059  -43.2240 H         1 UNK         0.0600 
    169 H169        0.9476  -15.5806  -43.7074 H         1 UNK         0.3000 
    170 H170        3.2358  -18.0790  -42.5858 H         1 UNK         0.0600 
    171 H171        2.6123  -18.8958  -44.8196 H         1 UNK         0.0600 
    172 H172        2.4098  -17.2576  -45.4216 H         1 UNK         0.0600 
    173 H173        4.0078  -17.8348  -44.9508 H         1 UNK         0.0600 
    174 H174        3.4417  -15.5065  -43.9025 H         1 UNK         0.3000 
    175 H175        3.7609  -13.5993  -40.9014 H         1 UNK         0.0600 
    176 H176        5.8233  -14.3880  -43.0319 H         1 UNK         0.0600 
    177 H177        5.8982  -12.9682  -41.9881 H         1 UNK         0.0600 
    178 H178        6.0287  -14.5764  -41.2944 H         1 UNK         0.0600 
    179 H179        3.9354  -12.9118  -43.6740 H         1 UNK         0.3000 
    180 H180        0.4760  -12.4043  -44.2764 H         1 UNK         0.0600 
    181 H181        2.6787  -10.3154  -43.8539 H         1 UNK         0.0600 
    182 H182        1.1225  -10.3336  -43.0329 H         1 UNK         0.0600 
    183 H183        1.1885  -10.0873  -44.7702 H         1 UNK         0.0600 
    184 H184        2.6870  -11.7679  -45.8906 H         1 UNK         0.3000 
    185 H185        2.7599  -13.0728  -47.9067 H         1 UNK         0.0600 
    186 H186        4.8093  -14.7472  -46.3230 H         1 UNK         0.0600 
    187 H187        5.0935  -14.0260  -47.9043 H         1 UNK         0.0600 
    188 H188        4.8544  -12.9962  -46.5041 H         1 UNK         0.0600 
    189 H189        2.2152  -15.8372  -47.2514 H         1 UNK         0.3000 
    190 H190       -2.2891  -21.5553  -45.0588 H         1 UNK         0.3000 
    191 H191       -3.6246  -22.1485  -47.4846 H         1 UNK         0.0600 
    192 H192       -4.7277  -22.2301  -45.2708 H         1 UNK         0.0600 
    193 H193       -4.8792  -23.7861  -46.0705 H         1 UNK         0.0600 
    194 H194       -3.7049  -23.5798  -44.7760 H         1 UNK         0.0600 
    195 H195       -0.8542  -23.7193  -45.9816 H         1 UNK         0.3000 
    196 H196       -1.0650  -26.1549  -47.6308 H         1 UNK         0.0600 
    197 H197        0.9614  -26.8294  -46.3817 H         1 UNK         0.0600 
    198 H198       -0.2909  -26.3128  -45.2631 H         1 UNK         0.0600 
    199 H199        1.0666  -25.2466  -45.6241 H         1 UNK         0.0600 
    200 H200        0.5020  -23.0107  -47.6953 H         1 UNK         0.3000 
    201 H201        2.4603  -23.6920  -49.7627 H         1 UNK         0.0600 
    202 H202        2.8749  -21.8664  -48.0983 H         1 UNK         0.0600 
    203 H203        1.5108  -20.9569  -48.7488 H         1 UNK         0.0600 
    204 H204        2.9175  -21.2725  -49.7523 H         1 UNK         0.0600 
    205 H205       -0.7197  -22.1246  -49.5120 H         1 UNK         0.3000 
    206 H206       -1.1750  -21.7782  -52.3484 H         1 UNK         0.0600 
    207 H207       -2.2466  -20.4296  -50.4538 H         1 UNK         0.0600 
    208 H208       -3.4111  -21.1046  -51.5666 H         1 UNK         0.0600 
    209 H209       -3.1464  -21.8577  -49.9898 H         1 UNK         0.0600 
    210 H210       -3.4605  -22.7345  -53.0741 H         1 UNK         0.3000 
    211 H211       -3.5079  -25.6971  -52.7738 H         1 UNK         0.0600 
    212 H212       -4.8861  -23.8309  -54.7810 H         1 UNK         0.0600 
    213 H213       -4.9413  -25.5903  -54.7922 H         1 UNK         0.0600 
    214 H214       -3.4239  -24.7619  -55.0999 H         1 UNK         0.0600 
    215 H215       -4.1506  -24.3798  -50.4757 H         1 UNK         0.3000 
    216 H216       -5.6045  -23.7554  -48.9221 H         1 UNK         0.0600 
    217 H217       -7.7899  -24.8854  -48.7403 H         1 UNK         0.0600 
    218 H218       -6.5532  -26.0468  -49.1961 H         1 UNK         0.0600 
    219 H219       -7.6910  -25.4474  -50.4019 H         1 UNK         0.0600 
    220 H220       -5.0323  -21.8462  -50.4636 H         1 UNK         0.3000 
    221 H221       -5.4215  -19.8908  -51.4186 H         1 UNK         0.0600 
    222 H222       -8.3774  -20.1178  -50.6181 H         1 UNK         0.0600 
    223 H223       -7.1034  -19.3618  -49.6711 H         1 UNK         0.0600 
    224 H224       -7.5587  -18.6803  -51.2196 H         1 UNK         0.0600 
    225 H225       -8.4842  -20.0697  -52.6909 H         1 UNK         0.3000 
    226 H226       -9.3925  -20.4672  -54.6870 H         1 UNK         0.0600 
    227 H227       -9.6078  -22.6500  -53.5586 H         1 UNK         0.0600 
    228 H228       -9.4160  -22.9022  -55.2828 H         1 UNK         0.0600 
    229 H229       -8.0602  -23.1884  -54.1884 H         1 UNK         0.0600 
    230 H230       -7.2773  -22.7699  -56.0106 H         1 UNK         0.3000 
    231 H231       -6.8283  -21.3502  -58.3955 H         1 UNK         0.0600 
    232 H232       -5.4221  -23.8379  -57.2821 H         1 UNK         0.0600 
    233 H233       -5.3892  -23.3161  -58.9614 H         1 UNK         0.0600 
    234 H234       -6.9051  -23.8257  -58.2374 H         1 UNK         0.0600 
    235 H235       -4.9685  -21.2384  -55.4344 H         1 UNK         0.3000 
    236 H236       -2.5056  -20.2529  -56.6766 H         1 UNK         0.0600 
    237 H237       -2.4759  -21.5191  -54.5286 H         1 UNK         0.0600 
    238 H238       -1.7969  -19.9107  -54.3391 H         1 UNK         0.0600 
    239 H239       -3.4210  -20.2355  -53.7573 H         1 UNK         0.0600 
    240 H240       -5.5752  -18.8713  -55.7501 H         1 UNK         0.3000 
    241 H241       -4.4383  -16.1103  -55.6900 H         1 UNK         0.0600 
    242 H242       -7.0247  -18.1407  -57.1930 H         1 UNK         0.3800 
    243 H243       -7.4551  -16.9010  -58.3509 H         1 UNK         0.3800 
    244 H244       -7.0788  -16.9435  -54.4321 H         1 UNK         0.0800 
    245 H245       -6.2274  -15.4335  -54.2268 H         1 UNK         0.0800 
    246 H246       -4.2297  -15.1825  -52.0941 H         1 UNK         0.0800 
    247 H247       -3.4958  -15.7217  -53.5880 H         1 UNK         0.0800 
@<TRIPOS>BOND
     1    1    2 1    
     2    1  127 1    
     3    1  128 1    
     4    1  129 1    
     5    2    3 2    
     6    2    4 am   BACKBONE|DICT|INTERRES
     7    4    5 1    
     8    4  130 1    
     9    5    6 1    
    10    5   65 1    
    11    5  131 1    
    12    6    7 1    
    13    6  132 1    
    14    6  133 1    
    15    7    8 1    
    16    8    9 1    
    17    8  134 1    
    18    8  135 1    
    19    9   10 ar   
    20    9   14 ar   
    21   10   11 ar   
    22   10  136 1    
    23   11   12 ar   
    24   11  126 1    
    25   12   13 ar   
    26   12  137 1    
    27   13   14 ar   
    28   13   15 1    
    29   14  138 1    
    30   15   16 1    
    31   15  139 1    
    32   15  140 1    
    33   16   17 1    
    34   17   18 1    
    35   17  141 1    
    36   17  142 1    
    37   18   19 1    
    38   18   67 1    
    39   18  143 1    
    40   19   20 am   BACKBONE|DICT|INTERRES
    41   19  144 1    
    42   20   21 2    
    43   20   22 1    
    44   22   23 1    
    45   22   24 1    
    46   22  145 1    
    47   23  146 1    
    48   23  147 1    
    49   23  148 1    
    50   24   25 am   BACKBONE|DICT|INTERRES
    51   24  149 1    
    52   25   26 2    
    53   25   27 1    
    54   27   28 1    
    55   27   29 1    
    56   27  150 1    
    57   28  151 1    
    58   28  152 1    
    59   28  153 1    
    60   29   30 am   BACKBONE|DICT|INTERRES
    61   29  154 1    
    62   30   31 2    
    63   30   32 1    
    64   32   33 1    
    65   32   34 1    
    66   32  155 1    
    67   33  156 1    
    68   33  157 1    
    69   33  158 1    
    70   34   35 am   BACKBONE|DICT|INTERRES
    71   34  159 1    
    72   35   36 2    
    73   35   37 1    
    74   37   38 1    
    75   37   39 1    
    76   37  160 1    
    77   38  161 1    
    78   38  162 1    
    79   38  163 1    
    80   39   40 am   BACKBONE|DICT|INTERRES
    81   39  164 1    
    82   40   41 2    
    83   40   42 1    
    84   42   43 1    
    85   42   44 1    
    86   42  165 1    
    87   43  166 1    
    88   43  167 1    
    89   43  168 1    
    90   44   45 am   BACKBONE|DICT|INTERRES
    91   44  169 1    
    92   45   46 2    
    93   45   47 1    
    94   47   48 1    
    95   47   49 1    
    96   47  170 1    
    97   48  171 1    
    98   48  172 1    
    99   48  173 1    
   100   49   50 am   BACKBONE|DICT|INTERRES
   101   49  174 1    
   102   50   51 2    
   103   50   52 1    
   104   52   53 1    
   105   52   54 1    
   106   52  175 1    
   107   53  176 1    
   108   53  177 1    
   109   53  178 1    
   110   54   55 am   BACKBONE|DICT|INTERRES
   111   54  179 1    
   112   55   56 2    
   113   55   57 1    
   114   57   58 1    
   115   57   59 1    
   116   57  180 1    
   117   58  181 1    
   118   58  182 1    
   119   58  183 1    
   120   59   60 am   BACKBONE|DICT|INTERRES
   121   59  184 1    
   122   60   61 2    
   123   60   62 1    
   124   62   63 1    
   125   62   64 1    
   126   62  185 1    
   127   63  186 1    
   128   63  187 1    
   129   63  188 1    
   130   64   65 am   BACKBONE|DICT|INTERRES
   131   64  189 1    
   132   65   66 2    
   133   67   68 2    
   134   67   69 am   BACKBONE|DICT|INTERRES
   135   69   70 1    
   136   69  190 1    
   137   70   71 1    
   138   70   72 1    
   139   70  191 1    
   140   71  192 1    
   141   71  193 1    
   142   71  194 1    
   143   72   73 2    
   144   72   74 am   BACKBONE|DICT|INTERRES
   145   74   75 1    
   146   74  195 1    
   147   75   76 1    
   148   75   77 1    
   149   75  196 1    
   150   76  197 1    
   151   76  198 1    
   152   76  199 1    
   153   77   78 2    
   154   77   79 am   BACKBONE|DICT|INTERRES
   155   79   80 1    
   156   79  200 1    
   157   80   81 1    
   158   80   82 1    
   159   80  201 1    
   160   81  202 1    
   161   81  203 1    
   162   81  204 1    
   163   82   83 2    
   164   82   84 am   BACKBONE|DICT|INTERRES
   165   84   85 1    
   166   84  205 1    
   167   85   86 1    
   168   85   87 1    
   169   85  206 1    
   170   86  207 1    
   171   86  208 1    
   172   86  209 1    
   173   87   88 2    
   174   87   89 am   BACKBONE|DICT|INTERRES
   175   89   90 1    
   176   89  210 1    
   177   90   91 1    
   178   90   92 1    
   179   90  211 1    
   180   91  212 1    
   181   91  213 1    
   182   91  214 1    
   183   92   93 2    
   184   92   94 am   BACKBONE|DICT|INTERRES
   185   94   95 1    
   186   94  215 1    
   187   95   96 1    
   188   95   97 1    
   189   95  216 1    
   190   96  217 1    
   191   96  218 1    
   192   96  219 1    
   193   97   98 2    
   194   97   99 am   BACKBONE|DICT|INTERRES
   195   99  100 1    
   196   99  220 1    
   197  100  101 1    
   198  100  102 1    
   199  100  221 1    
   200  101  222 1    
   201  101  223 1    
   202  101  224 1    
   203  102  103 2    
   204  102  104 am   BACKBONE|DICT|INTERRES
   205  104  105 1    
   206  104  225 1    
   207  105  106 1    
   208  105  107 1    
   209  105  226 1    
   210  106  227 1    
   211  106  228 1    
   212  106  229 1    
   213  107  108 2    
   214  107  109 am   BACKBONE|DICT|INTERRES
   215  109  110 1    
   216  109  230 1    
   217  110  111 1    
   218  110  112 1    
   219  110  231 1    
   220  111  232 1    
   221  111  233 1    
   222  111  234 1    
   223  112  113 2    
   224  112  114 am   BACKBONE|DICT|INTERRES
   225  114  115 1    
   226  114  235 1    
   227  115  116 1    
   228  115  117 1    
   229  115  236 1    
   230  116  237 1    
   231  116  238 1    
   232  116  239 1    
   233  117  118 2    
   234  117  119 am   BACKBONE|DICT|INTERRES
   235  119  120 1    
   236  119  240 1    
   237  120  121 1    
   238  120  124 1    
   239  120  241 1    
   240  121  122 am   BACKBONE|DICT|INTERRES
   241  121  123 2    
   242  122  242 1    
   243  122  243 1    
   244  124  125 1    
   245  124  244 1    
   246  124  245 1    
   247  125  126 1    
   248  126  246 1    
   249  126  247 1    
@<TRIPOS>SUBSTRUCTURE
     1 UNK         1 GROUP             0       ****    0 ROOT    
