@<TRIPOS>MOLECULE
3R540
247   249    1
SMALL
USER_CHARGES


@<TRIPOS>ATOM
      1 CA          4.5588  -11.6537  -49.7595 C.3       0 UNK        -0.1800 
      2 C           3.4810  -12.2518  -48.8670 C.2       0 UNK         0.5000 
      3 O           2.3945  -11.6854  -48.7716 O.2       0 UNK        -0.5000 
      4 N           3.8017  -13.3706  -48.2010 N.am      1 UNK        -0.5000 
      5 CA          2.9933  -14.2432  -47.3266 C.3       1 UNK         0.1400 
      6 C6          1.9873  -15.1490  -48.0863 C.3       23 UNK        -0.0398 
      7 S7          0.4856  -14.3213  -48.7188 S.3       23 UNK        -0.2404 
      8 C8          0.6356  -14.6109  -50.5076 C.3       23 UNK        -0.0205 
      9 C9         -0.0451  -15.9079  -50.9197 C.ar      23 UNK        -0.0193 
     10 C10        -1.3220  -15.8724  -51.4858 C.ar      23 UNK        -0.1150 
     11 C11        -1.9552  -17.0484  -51.8953 C.ar      23 UNK        -0.0193 
     12 C12        -1.3055  -18.2731  -51.7090 C.ar      23 UNK        -0.1150 
     13 C13        -0.0241  -18.3258  -51.1497 C.ar      23 UNK        -0.0193 
     14 C14         0.6004  -17.1378  -50.7594 C.ar      23 UNK        -0.1150 
     15 C15         0.7206  -19.6502  -51.0302 C.3       23 UNK        -0.0205 
     16 S16        -0.2903  -20.9869  -50.3206 S.3       23 UNK        -0.2404 
     17 C17        -0.3280  -20.5508  -48.5516 C.3       23 UNK        -0.0398 
     18 CA         -0.5474  -21.8015  -47.6651 C.3       11 UNK         0.1400 
     19 N          -0.0066  -21.6171  -46.3141 N.am      11 UNK        -0.5000 
     20 C           0.1502  -22.6016  -45.4176 C.2       10 UNK         0.5000 
     21 O          -0.1180  -23.7792  -45.6482 O.2       10 UNK        -0.5000 
     22 CA          0.6358  -22.2029  -44.0118 C.3       10 UNK         0.1400 
     23 CB          2.1617  -22.0354  -43.9860 C.3       10 UNK        -0.1800 
     24 N          -0.0137  -20.9880  -43.5164 N.am      10 UNK        -0.5000 
     25 C          -1.3293  -20.8832  -43.2793 C.2       9 UNK         0.5000 
     26 O          -2.1170  -21.8198  -43.3985 O.2       9 UNK        -0.5000 
     27 CA         -1.8711  -19.4945  -42.8999 C.3       9 UNK         0.1400 
     28 CB         -1.6978  -19.2325  -41.3968 C.3       9 UNK        -0.1800 
     29 N          -1.2502  -18.4162  -43.6688 N.am      9 UNK        -0.5000 
     30 C          -1.3396  -18.2769  -45.0001 C.2       8 UNK         0.5000 
     31 O          -1.9967  -19.0247  -45.7251 O.2       8 UNK        -0.5000 
     32 CA         -0.4969  -17.1533  -45.6312 C.3       8 UNK         0.1400 
     33 CB         -1.1439  -15.7783  -45.4047 C.3       8 UNK        -0.1800 
     34 N           0.8733  -17.1483  -45.1153 N.am      8 UNK        -0.5000 
     35 C           1.7552  -18.1405  -45.3048 C.2       7 UNK         0.5000 
     36 O           1.5281  -19.1261  -46.0055 O.2       7 UNK        -0.5000 
     37 CA          3.0897  -18.0491  -44.5421 C.3       7 UNK         0.1400 
     38 CB          4.1707  -17.3139  -45.3436 C.3       7 UNK        -0.1800 
     39 N           2.9400  -17.4153  -43.2342 N.am      7 UNK        -0.5000 
     40 C           2.3366  -17.9984  -42.1922 C.2       6 UNK         0.5000 
     41 O           1.8678  -19.1361  -42.2208 O.2       6 UNK        -0.5000 
     42 CA          2.2020  -17.1483  -40.9227 C.3       6 UNK         0.1400 
     43 CB          3.5294  -17.0930  -40.1520 C.3       6 UNK        -0.1800 
     44 N           1.7471  -15.7877  -41.2049 N.am      6 UNK        -0.5000 
     45 C           0.5038  -15.4696  -41.5950 C.2       5 UNK         0.5000 
     46 O          -0.3265  -16.3156  -41.9258 O.2       5 UNK        -0.5000 
     47 CA          0.1076  -13.9735  -41.6210 C.3       5 UNK         0.1400 
     48 CB         -1.3363  -13.7478  -41.1318 C.3       5 UNK        -0.1800 
     49 N           1.0358  -13.0884  -40.9076 N.am      5 UNK        -0.5000 
     50 C           1.4328  -13.1441  -39.6256 C.2       4 UNK         0.5000 
     51 O           0.9080  -13.8673  -38.7779 O.2       4 UNK        -0.5000 
     52 CA          2.6655  -12.2862  -39.2466 C.3       4 UNK         0.1400 
     53 CB          3.5764  -13.0009  -38.2270 C.3       4 UNK        -0.1800 
     54 N           3.4547  -11.8337  -40.4044 N.am      4 UNK        -0.5000 
     55 C           4.0426  -12.5906  -41.3454 C.2       3 UNK         0.5000 
     56 O           4.0614  -13.8236  -41.3287 O.2       3 UNK        -0.5000 
     57 CA          4.6042  -11.8309  -42.5648 C.3       3 UNK         0.1400 
     58 CB          5.9339  -12.4394  -43.0401 C.3       3 UNK        -0.1800 
     59 N           3.6653  -11.8167  -43.6929 N.am      3 UNK        -0.5000 
     60 C           2.3958  -11.3816  -43.6821 C.2       2 UNK         0.5000 
     61 O           1.8512  -10.8956  -42.6911 O.2       2 UNK        -0.5000 
     62 CA          1.5767  -11.4978  -44.9827 C.3       2 UNK         0.1400 
     63 CB          1.2557  -10.1032  -45.5425 C.3       2 UNK        -0.1800 
     64 N           2.2074  -12.2842  -46.0414 N.am      2 UNK        -0.5000 
     65 C           2.3803  -13.6091  -46.0520 C.2       1 UNK         0.5000 
     66 O           2.0975  -14.3329  -45.0945 O.2       1 UNK        -0.5000 
     67 C          -2.0286  -22.2469  -47.6512 C.2       11 UNK         0.5000 
     68 O          -2.4313  -23.0606  -48.4867 O.2       11 UNK        -0.5000 
     69 N          -2.8069  -21.7331  -46.6883 N.am      12 UNK        -0.5000 
     70 CA         -4.1848  -22.1485  -46.4295 C.3       12 UNK         0.1400 
     71 CB         -4.8770  -21.1214  -45.5223 C.3       12 UNK        -0.1800 
     72 C          -4.2666  -23.5669  -45.8382 C.2       12 UNK         0.5000 
     73 O          -5.0924  -24.3574  -46.2924 O.2       12 UNK        -0.5000 
     74 N          -3.3891  -23.8848  -44.8755 N.am      13 UNK        -0.5000 
     75 CA         -3.2727  -25.2057  -44.2481 C.3       13 UNK         0.1400 
     76 CB         -2.3143  -25.1254  -43.0507 C.3       13 UNK        -0.1800 
     77 C          -2.8243  -26.3034  -45.2319 C.2       13 UNK         0.5000 
     78 O          -3.3246  -27.4263  -45.1618 O.2       13 UNK        -0.5000 
     79 N          -1.9263  -25.9455  -46.1599 N.am      14 UNK        -0.5000 
     80 CA         -1.4901  -26.7780  -47.2840 C.3       14 UNK         0.1400 
     81 CB         -0.2076  -26.1714  -47.8760 C.3       14 UNK        -0.1800 
     82 C          -2.5600  -26.9339  -48.3857 C.2       14 UNK         0.5000 
     83 O          -2.3843  -27.7632  -49.2784 O.2       14 UNK        -0.5000 
     84 N          -3.6255  -26.1218  -48.3173 N.am      15 UNK        -0.5000 
     85 CA         -4.7640  -26.0233  -49.2346 C.3       15 UNK         0.1400 
     86 CB         -5.5257  -27.3600  -49.3381 C.3       15 UNK        -0.1800 
     87 C          -4.4171  -25.4381  -50.6170 C.2       15 UNK         0.5000 
     88 O          -5.2799  -25.4226  -51.4929 O.2       15 UNK        -0.5000 
     89 N          -3.1972  -24.9157  -50.7917 N.am      16 UNK        -0.5000 
     90 CA         -2.7410  -24.2769  -52.0253 C.3       16 UNK         0.1400 
     91 CB         -1.2119  -24.1537  -51.9998 C.3       16 UNK        -0.1800 
     92 C          -3.4208  -22.9167  -52.2577 C.2       16 UNK         0.5000 
     93 O          -3.7949  -22.6109  -53.3911 O.2       16 UNK        -0.5000 
     94 N          -3.6303  -22.1523  -51.1758 N.am      17 UNK        -0.5000 
     95 CA         -4.4003  -20.9068  -51.2069 C.3       17 UNK         0.1400 
     96 CB         -4.1205  -20.0834  -49.9417 C.3       17 UNK        -0.1800 
     97 C          -5.9109  -21.1623  -51.3682 C.2       17 UNK         0.5000 
     98 O          -6.5926  -20.3632  -52.0083 O.2       17 UNK        -0.5000 
     99 N          -6.4007  -22.2831  -50.8158 N.am      18 UNK        -0.5000 
    100 CA        -7.7948  -22.7243  -50.9195 C.3       18 UNK         0.1400 
    101 CB        -8.0701  -23.8190  -49.8769 C.3       18 UNK        -0.1800 
    102 C         -8.1467  -23.2101  -52.3382 C.2       18 UNK         0.5000 
    103 O         -9.2163  -22.8779  -52.8494 O.2       18 UNK        -0.5000 
    104 N         -7.2182  -23.9471  -52.9644 N.am      19 UNK        -0.5000 
    105 CA        -7.2748  -24.3718  -54.3659 C.3       19 UNK         0.1400 
    106 CB        -6.2439  -25.4906  -54.5844 C.3       19 UNK        -0.1800 
    107 C         -7.0275  -23.2204  -55.3626 C.2       19 UNK         0.5000 
    108 O         -7.2894  -23.3903  -56.5539 O.2       19 UNK        -0.5000 
    109 N         -6.5267  -22.0843  -54.8569 N.am      20 UNK        -0.5000 
    110 CA        -6.1784  -20.8565  -55.5694 C.3       20 UNK         0.1400 
    111 CB        -7.4277  -20.1986  -56.1910 C.3       20 UNK        -0.1800 
    112 C         -5.0297  -21.0643  -56.5739 C.2       20 UNK         0.5000 
    113 O         -5.0825  -20.5512  -57.6934 O.2       20 UNK        -0.5000 
    114 N         -3.9776  -21.7752  -56.1386 N.am      21 UNK        -0.5000 
    115 CA        -2.7251  -21.9633  -56.8848 C.3       21 UNK         0.1400 
    116 CB        -1.8265  -22.9430  -56.1145 C.3       21 UNK        -0.1800 
    117 C         -1.9809  -20.6358  -57.1496 C.2       21 UNK         0.5000 
    118 O         -1.2555  -20.5157  -58.1371 O.2       21 UNK        -0.5000 
    119 N         -2.2230  -19.6584  -56.2714 N.am      22 UNK        -0.5000 
    120 CA        -1.8854  -18.2354  -56.3940 C.3       22 UNK         0.1400 
    121 C         -2.6684  -17.4533  -57.4926 C.2       22 UNK         0.5000 
    122 N         -3.6962  -18.0075  -58.1256 N.am      22 UNK        -0.7600 
    123 O         -2.3224  -16.3132  -57.7901 O.2       22 UNK        -0.5000 
    124 C124       -1.9845  -17.5332  -55.0116 C.3       23 UNK        -0.0398 
    125 S125       -3.4966  -17.9731  -54.0673 S.3       23 UNK        -0.2404 
    126 C126       -3.3318  -16.9727  -52.5491 C.3       23 UNK        -0.0205 
    127 H127        5.4755  -12.2438  -49.7432 H         1 UNK         0.0600 
    128 H128        4.7993  -10.6425  -49.4312 H         1 UNK         0.0600 
    129 H129        4.2056  -11.6036  -50.7895 H         1 UNK         0.0600 
    130 H130        4.7451  -13.7096  -48.3291 H         1 UNK         0.3000 
    131 H131        3.7516  -14.9204  -46.9408 H         1 UNK         0.0600 
    132 H132        2.5116  -15.6414  -48.9042 H         1 UNK         0.0800 
    133 H133        1.6585  -15.9602  -47.4386 H         1 UNK         0.0800 
    134 H134        1.6832  -14.6148  -50.8115 H         1 UNK         0.0800 
    135 H135        0.1800  -13.7679  -51.0292 H         1 UNK         0.0800 
    136 H136       -1.8190  -14.9216  -51.6190 H         1 UNK         0.1150 
    137 H137       -1.7856  -19.1864  -52.0303 H         1 UNK         0.1150 
    138 H138        1.5965  -17.1707  -50.3436 H         1 UNK         0.1150 
    139 H139        1.6329  -19.5384  -50.4425 H         1 UNK         0.0800 
    140 H140        1.0359  -19.9525  -52.0295 H         1 UNK         0.0800 
    141 H141       -1.0824  -19.7831  -48.3698 H         1 UNK         0.0800 
    142 H142        0.6309  -20.0917  -48.3098 H         1 UNK         0.0800 
    143 H143        0.0224  -22.6250  -48.1015 H         1 UNK         0.0600 
    144 H144        0.2828  -20.6766  -46.0633 H         1 UNK         0.3000 
    145 H145        0.3779  -23.0146  -43.3289 H         1 UNK         0.0600 
    146 H146        2.6579  -22.9604  -44.2821 H         1 UNK         0.0600 
    147 H147        2.5154  -21.7821  -42.9864 H         1 UNK         0.0600 
    148 H148        2.4944  -21.2549  -44.6688 H         1 UNK         0.0600 
    149 H149        0.5848  -20.1912  -43.3237 H         1 UNK         0.3000 
    150 H150       -2.9398  -19.4853  -43.1229 H         1 UNK         0.0600 
    151 H151       -0.6460  -19.1846  -41.1138 H         1 UNK         0.0600 
    152 H152       -2.1624  -20.0227  -40.8058 H         1 UNK         0.0600 
    153 H153       -2.1647  -18.2915  -41.1054 H         1 UNK         0.0600 
    154 H154       -0.7257  -17.7285  -43.1341 H         1 UNK         0.3000 
    155 H155       -0.4516  -17.3333  -46.7076 H         1 UNK         0.0600 
    156 H156       -0.5722  -14.9879  -45.8902 H         1 UNK         0.0600 
    157 H157       -1.2192  -15.5316  -44.3459 H         1 UNK         0.0600 
    158 H158       -2.1517  -15.7509  -45.8203 H         1 UNK         0.0600 
    159 H159        1.1518  -16.3497  -44.5606 H         1 UNK         0.3000 
    160 H160        3.4372  -19.0729  -44.3909 H         1 UNK         0.0600 
    161 H161        4.0736  -16.2358  -45.2394 H         1 UNK         0.0600 
    162 H162        4.1287  -17.5629  -46.4050 H         1 UNK         0.0600 
    163 H163        5.1646  -17.5833  -44.9859 H         1 UNK         0.0600 
    164 H164        3.2717  -16.4661  -43.1358 H         1 UNK         0.3000 
    165 H165        1.4590  -17.6267  -40.2808 H         1 UNK         0.0600 
    166 H166        3.8832  -18.0960  -39.9102 H         1 UNK         0.0600 
    167 H167        4.3117  -16.5973  -40.7283 H         1 UNK         0.0600 
    168 H168        3.4151  -16.5525  -39.2121 H         1 UNK         0.0600 
    169 H169        2.4100  -15.0413  -41.0250 H         1 UNK         0.3000 
    170 H170        0.1530  -13.6745  -42.6691 H         1 UNK         0.0600 
    171 H171       -1.6076  -12.6932  -41.1783 H         1 UNK         0.0600 
    172 H172       -1.4715  -14.0850  -40.1038 H         1 UNK         0.0600 
    173 H173       -2.0506  -14.2922  -41.7507 H         1 UNK         0.0600 
    174 H174        1.5003  -12.4001  -41.4922 H         1 UNK         0.3000 
    175 H175        2.2732  -11.3863  -38.7712 H         1 UNK         0.0600 
    176 H176        3.9489  -13.9505  -38.6126 H         1 UNK         0.0600 
    177 H177        3.0402  -13.2127  -37.3012 H         1 UNK         0.0600 
    178 H178        4.4366  -12.3843  -37.9667 H         1 UNK         0.0600 
    179 H179        3.4372  -10.8347  -40.5601 H         1 UNK         0.3000 
    180 H180        4.7930  -10.7961  -42.2725 H         1 UNK         0.0600 
    181 H181        5.8031  -13.4572  -43.4106 H         1 UNK         0.0600 
    182 H182        6.6588  -12.4773  -42.2260 H         1 UNK         0.0600 
    183 H183        6.3761  -11.8459  -43.8405 H         1 UNK         0.0600 
    184 H184        4.0046  -12.2141  -44.5556 H         1 UNK         0.3000 
    185 H185        0.6347  -11.9850  -44.7229 H         1 UNK         0.0600 
    186 H186        0.7373   -9.4905  -44.8036 H         1 UNK         0.0600 
    187 H187        2.1616   -9.5708  -45.8350 H         1 UNK         0.0600 
    188 H188        0.6090  -10.1695  -46.4178 H         1 UNK         0.0600 
    189 H189        2.3956  -11.7996  -46.9148 H         1 UNK         0.3000 
    190 H190       -2.4216  -21.0173  -46.0813 H         1 UNK         0.3000 
    191 H191       -4.7203  -22.1662  -47.3802 H         1 UNK         0.0600 
    192 H192       -4.8603  -20.1276  -45.9703 H         1 UNK         0.0600 
    193 H193       -5.9218  -21.3883  -45.3586 H         1 UNK         0.0600 
    194 H194       -4.3993  -21.0545  -44.5453 H         1 UNK         0.0600 
    195 H195       -2.7807  -23.1559  -44.5097 H         1 UNK         0.3000 
    196 H196       -4.2603  -25.4821  -43.8733 H         1 UNK         0.0600 
    197 H197       -2.2380  -26.0891  -42.5459 H         1 UNK         0.0600 
    198 H198       -2.6616  -24.3995  -42.3154 H         1 UNK         0.0600 
    199 H199       -1.3097  -24.8355  -43.3586 H         1 UNK         0.0600 
    200 H200       -1.4942  -25.0279  -46.0855 H         1 UNK         0.3000 
    201 H201       -1.2583  -27.7757  -46.9064 H         1 UNK         0.0600 
    202 H202        0.1744  -26.7800  -48.6965 H         1 UNK         0.0600 
    203 H203        0.5811  -26.1079  -47.1260 H         1 UNK         0.0600 
    204 H204       -0.3815  -25.1673  -48.2645 H         1 UNK         0.0600 
    205 H205       -3.6648  -25.4785  -47.5368 H         1 UNK         0.3000 
    206 H206       -5.4424  -25.3027  -48.7777 H         1 UNK         0.0600 
    207 H207       -5.7741  -27.7491  -48.3507 H         1 UNK         0.0600 
    208 H208       -6.4632  -27.2343  -49.8810 H         1 UNK         0.0600 
    209 H209       -4.9470  -28.1192  -49.8644 H         1 UNK         0.0600 
    210 H210       -2.5728  -24.8831  -49.9976 H         1 UNK         0.3000 
    211 H211       -3.0102  -24.9193  -52.8666 H         1 UNK         0.0600 
    212 H212       -0.7420  -25.1352  -52.0629 H         1 UNK         0.0600 
    213 H213       -0.8460  -23.5621  -52.8400 H         1 UNK         0.0600 
    214 H214       -0.8632  -23.6823  -51.0821 H         1 UNK         0.0600 
    215 H215       -3.2693  -22.4622  -50.2795 H         1 UNK         0.3000 
    216 H216       -4.0701  -20.3205  -52.0670 H         1 UNK         0.0600 
    217 H217       -4.4359  -20.6055  -49.0403 H         1 UNK         0.0600 
    218 H218       -4.6534  -19.1323  -49.9715 H         1 UNK         0.0600 
    219 H219       -3.0608  -19.8538  -49.8446 H         1 UNK         0.0600 
    220 H220       -5.7630  -22.8949  -50.3312 H         1 UNK         0.3000 
    221 H221       -8.4368  -21.8712  -50.6893 H         1 UNK         0.0600 
    222 H222       -7.5015  -24.7262  -50.0790 H         1 UNK         0.0600 
    223 H223       -7.8207  -23.4813  -48.8708 H         1 UNK         0.0600 
    224 H224       -9.1258  -24.0930  -49.8751 H         1 UNK         0.0600 
    225 H225       -6.4049  -24.2601  -52.4401 H         1 UNK         0.3000 
    226 H226       -8.2697  -24.7745  -54.5660 H         1 UNK         0.0600 
    227 H227       -6.4367  -26.3386  -53.9271 H         1 UNK         0.0600 
    228 H228       -6.2759  -25.8609  -55.6098 H         1 UNK         0.0600 
    229 H229       -5.2283  -25.1415  -54.3919 H         1 UNK         0.0600 
    230 H230       -6.3272  -22.0767  -53.8667 H         1 UNK         0.3000 
    231 H231       -5.7944  -20.1703  -54.8131 H         1 UNK         0.0600 
    232 H232       -7.8420  -20.7958  -57.0036 H         1 UNK         0.0600 
    233 H233       -7.1874  -19.2158  -56.5983 H         1 UNK         0.0600 
    234 H234       -8.2095  -20.0573  -55.4447 H         1 UNK         0.0600 
    235 H235       -3.9991  -22.1486  -55.1914 H         1 UNK         0.3000 
    236 H236       -2.9726  -22.4054  -57.8518 H         1 UNK         0.0600 
    237 H237       -1.5418  -22.5437  -55.1402 H         1 UNK         0.0600 
    238 H238       -2.3297  -23.8962  -55.9512 H         1 UNK         0.0600 
    239 H239       -0.9088  -23.1483  -56.6667 H         1 UNK         0.0600 
    240 H240       -2.8288  -19.8749  -55.4933 H         1 UNK         0.3000 
    241 H241       -0.8406  -18.1884  -56.7064 H         1 UNK         0.0600 
    242 H242       -4.0177  -18.9459  -57.9115 H         1 UNK         0.3800 
    243 H243       -4.1745  -17.4761  -58.8353 H         1 UNK         0.3800 
    244 H244       -1.1179  -17.8308  -54.4215 H         1 UNK         0.0800 
    245 H245       -1.9151  -16.4476  -55.1015 H         1 UNK         0.0800 
    246 H246       -3.5790  -15.9396  -52.7984 H         1 UNK         0.0800 
    247 H247       -4.0809  -17.3031  -51.8287 H         1 UNK         0.0800 
@<TRIPOS>BOND
     1    1    2 1    
     2    1  127 1    
     3    1  128 1    
     4    1  129 1    
     5    2    3 2    
     6    2    4 am   BACKBONE|DICT|INTERRES
     7    4    5 1    
     8    4  130 1    
     9    5    6 1    
    10    5   65 1    
    11    5  131 1    
    12    6    7 1    
    13    6  132 1    
    14    6  133 1    
    15    7    8 1    
    16    8    9 1    
    17    8  134 1    
    18    8  135 1    
    19    9   10 ar   
    20    9   14 ar   
    21   10   11 ar   
    22   10  136 1    
    23   11   12 ar   
    24   11  126 1    
    25   12   13 ar   
    26   12  137 1    
    27   13   14 ar   
    28   13   15 1    
    29   14  138 1    
    30   15   16 1    
    31   15  139 1    
    32   15  140 1    
    33   16   17 1    
    34   17   18 1    
    35   17  141 1    
    36   17  142 1    
    37   18   19 1    
    38   18   67 1    
    39   18  143 1    
    40   19   20 am   BACKBONE|DICT|INTERRES
    41   19  144 1    
    42   20   21 2    
    43   20   22 1    
    44   22   23 1    
    45   22   24 1    
    46   22  145 1    
    47   23  146 1    
    48   23  147 1    
    49   23  148 1    
    50   24   25 am   BACKBONE|DICT|INTERRES
    51   24  149 1    
    52   25   26 2    
    53   25   27 1    
    54   27   28 1    
    55   27   29 1    
    56   27  150 1    
    57   28  151 1    
    58   28  152 1    
    59   28  153 1    
    60   29   30 am   BACKBONE|DICT|INTERRES
    61   29  154 1    
    62   30   31 2    
    63   30   32 1    
    64   32   33 1    
    65   32   34 1    
    66   32  155 1    
    67   33  156 1    
    68   33  157 1    
    69   33  158 1    
    70   34   35 am   BACKBONE|DICT|INTERRES
    71   34  159 1    
    72   35   36 2    
    73   35   37 1    
    74   37   38 1    
    75   37   39 1    
    76   37  160 1    
    77   38  161 1    
    78   38  162 1    
    79   38  163 1    
    80   39   40 am   BACKBONE|DICT|INTERRES
    81   39  164 1    
    82   40   41 2    
    83   40   42 1    
    84   42   43 1    
    85   42   44 1    
    86   42  165 1    
    87   43  166 1    
    88   43  167 1    
    89   43  168 1    
    90   44   45 am   BACKBONE|DICT|INTERRES
    91   44  169 1    
    92   45   46 2    
    93   45   47 1    
    94   47   48 1    
    95   47   49 1    
    96   47  170 1    
    97   48  171 1    
    98   48  172 1    
    99   48  173 1    
   100   49   50 am   BACKBONE|DICT|INTERRES
   101   49  174 1    
   102   50   51 2    
   103   50   52 1    
   104   52   53 1    
   105   52   54 1    
   106   52  175 1    
   107   53  176 1    
   108   53  177 1    
   109   53  178 1    
   110   54   55 am   BACKBONE|DICT|INTERRES
   111   54  179 1    
   112   55   56 2    
   113   55   57 1    
   114   57   58 1    
   115   57   59 1    
   116   57  180 1    
   117   58  181 1    
   118   58  182 1    
   119   58  183 1    
   120   59   60 am   BACKBONE|DICT|INTERRES
   121   59  184 1    
   122   60   61 2    
   123   60   62 1    
   124   62   63 1    
   125   62   64 1    
   126   62  185 1    
   127   63  186 1    
   128   63  187 1    
   129   63  188 1    
   130   64   65 am   BACKBONE|DICT|INTERRES
   131   64  189 1    
   132   65   66 2    
   133   67   68 2    
   134   67   69 am   BACKBONE|DICT|INTERRES
   135   69   70 1    
   136   69  190 1    
   137   70   71 1    
   138   70   72 1    
   139   70  191 1    
   140   71  192 1    
   141   71  193 1    
   142   71  194 1    
   143   72   73 2    
   144   72   74 am   BACKBONE|DICT|INTERRES
   145   74   75 1    
   146   74  195 1    
   147   75   76 1    
   148   75   77 1    
   149   75  196 1    
   150   76  197 1    
   151   76  198 1    
   152   76  199 1    
   153   77   78 2    
   154   77   79 am   BACKBONE|DICT|INTERRES
   155   79   80 1    
   156   79  200 1    
   157   80   81 1    
   158   80   82 1    
   159   80  201 1    
   160   81  202 1    
   161   81  203 1    
   162   81  204 1    
   163   82   83 2    
   164   82   84 am   BACKBONE|DICT|INTERRES
   165   84   85 1    
   166   84  205 1    
   167   85   86 1    
   168   85   87 1    
   169   85  206 1    
   170   86  207 1    
   171   86  208 1    
   172   86  209 1    
   173   87   88 2    
   174   87   89 am   BACKBONE|DICT|INTERRES
   175   89   90 1    
   176   89  210 1    
   177   90   91 1    
   178   90   92 1    
   179   90  211 1    
   180   91  212 1    
   181   91  213 1    
   182   91  214 1    
   183   92   93 2    
   184   92   94 am   BACKBONE|DICT|INTERRES
   185   94   95 1    
   186   94  215 1    
   187   95   96 1    
   188   95   97 1    
   189   95  216 1    
   190   96  217 1    
   191   96  218 1    
   192   96  219 1    
   193   97   98 2    
   194   97   99 am   BACKBONE|DICT|INTERRES
   195   99  100 1    
   196   99  220 1    
   197  100  101 1    
   198  100  102 1    
   199  100  221 1    
   200  101  222 1    
   201  101  223 1    
   202  101  224 1    
   203  102  103 2    
   204  102  104 am   BACKBONE|DICT|INTERRES
   205  104  105 1    
   206  104  225 1    
   207  105  106 1    
   208  105  107 1    
   209  105  226 1    
   210  106  227 1    
   211  106  228 1    
   212  106  229 1    
   213  107  108 2    
   214  107  109 am   BACKBONE|DICT|INTERRES
   215  109  110 1    
   216  109  230 1    
   217  110  111 1    
   218  110  112 1    
   219  110  231 1    
   220  111  232 1    
   221  111  233 1    
   222  111  234 1    
   223  112  113 2    
   224  112  114 am   BACKBONE|DICT|INTERRES
   225  114  115 1    
   226  114  235 1    
   227  115  116 1    
   228  115  117 1    
   229  115  236 1    
   230  116  237 1    
   231  116  238 1    
   232  116  239 1    
   233  117  118 2    
   234  117  119 am   BACKBONE|DICT|INTERRES
   235  119  120 1    
   236  119  240 1    
   237  120  121 1    
   238  120  124 1    
   239  120  241 1    
   240  121  122 am   BACKBONE|DICT|INTERRES
   241  121  123 2    
   242  122  242 1    
   243  122  243 1    
   244  124  125 1    
   245  124  244 1    
   246  124  245 1    
   247  125  126 1    
   248  126  246 1    
   249  126  247 1    
@<TRIPOS>SUBSTRUCTURE
     1 UNK         1 GROUP             0       ****    0 ROOT    
