@<TRIPOS>MOLECULE
3R540
247   249    1
SMALL
USER_CHARGES


@<TRIPOS>ATOM
      1 CA         -4.4206  -15.0882  -48.6807 C.3       0 UNK        -0.1800 
      2 C          -2.9790  -14.6609  -48.9179 C.2       0 UNK         0.5000 
      3 O          -2.7212  -13.4888  -49.1927 O.2       0 UNK        -0.5000 
      4 N          -2.0350  -15.6020  -48.7987 N.am      1 UNK        -0.5000 
      5 CA         -0.5943  -15.4263  -49.0331 C.3       1 UNK         0.1400 
      6 C6          0.0883  -16.7675  -49.4111 C.3       23 UNK        -0.0398 
      7 S7         -0.6316  -17.4928  -50.9259 S.3       23 UNK        -0.2404 
      8 C8          0.8373  -17.7658  -51.9691 C.3       23 UNK        -0.0205 
      9 C9          1.5758  -19.0322  -51.5642 C.ar      23 UNK        -0.0193 
     10 C10         1.1302  -20.2751  -52.0177 C.ar      23 UNK        -0.1150 
     11 C11         1.7509  -21.4570  -51.6029 C.ar      23 UNK        -0.0193 
     12 C12         2.8504  -21.3817  -50.7425 C.ar      23 UNK        -0.1150 
     13 C13         3.3084  -20.1433  -50.2829 C.ar      23 UNK        -0.0193 
     14 C14         2.6785  -18.9708  -50.7115 C.ar      23 UNK        -0.1150 
     15 C15         4.4401  -20.0666  -49.2685 C.3       23 UNK        -0.0205 
     16 S16         3.9692  -20.7291  -47.6318 S.3       23 UNK        -0.2404 
     17 C17         2.3258  -19.9875  -47.3288 C.3       23 UNK        -0.0398 
     18 CA          1.2453  -21.0796  -47.1133 C.3       11 UNK         0.1400 
     19 N           1.1272  -21.4376  -45.6964 N.am      11 UNK        -0.5000 
     20 C           0.3554  -22.4128  -45.1989 C.2       10 UNK         0.5000 
     21 O          -0.2936  -23.1948  -45.8929 O.2       10 UNK        -0.5000 
     22 CA          0.2437  -22.4880  -43.6644 C.3       10 UNK         0.1400 
     23 CB          1.4519  -23.2174  -43.0588 C.3       10 UNK        -0.1800 
     24 N           0.0974  -21.1665  -43.0479 N.am      10 UNK        -0.5000 
     25 C          -0.9506  -20.3534  -43.2469 C.2       9 UNK         0.5000 
     26 O          -1.9316  -20.6634  -43.9200 O.2       9 UNK        -0.5000 
     27 CA         -0.8748  -18.9383  -42.6457 C.3       9 UNK         0.1400 
     28 CB         -1.2736  -18.9387  -41.1635 C.3       9 UNK        -0.1800 
     29 N           0.4451  -18.3304  -42.8007 N.am      9 UNK        -0.5000 
     30 C           1.0135  -18.0300  -43.9766 C.2       8 UNK         0.5000 
     31 O           0.4516  -18.1715  -45.0615 O.2       8 UNK        -0.5000 
     32 CA          2.4719  -17.5417  -43.9314 C.3       8 UNK         0.1400 
     33 CB          2.5490  -16.0405  -43.6280 C.3       8 UNK        -0.1800 
     34 N           3.2657  -18.2832  -42.9524 N.am      8 UNK        -0.5000 
     35 C           3.6012  -19.5748  -43.0775 C.2       7 UNK         0.5000 
     36 O           3.2936  -20.2700  -44.0449 O.2       7 UNK        -0.5000 
     37 CA          4.3696  -20.2021  -41.9007 C.3       7 UNK         0.1400 
     38 CB          5.8664  -19.8694  -41.9897 C.3       7 UNK        -0.1800 
     39 N           3.8496  -19.7686  -40.6026 N.am      7 UNK        -0.5000 
     40 C           2.6381  -20.0942  -40.1303 C.2       6 UNK         0.5000 
     41 O           1.8454  -20.8215  -40.7274 O.2       6 UNK        -0.5000 
     42 CA          2.2244  -19.4603  -38.7889 C.3       6 UNK         0.1400 
     43 CB          2.7557  -20.2914  -37.6117 C.3       6 UNK        -0.1800 
     44 N           2.6593  -18.0675  -38.6391 N.am      6 UNK        -0.5000 
     45 C           2.2835  -17.0650  -39.4432 C.2       5 UNK         0.5000 
     46 O           1.5705  -17.2162  -40.4391 O.2       5 UNK        -0.5000 
     47 CA          2.8328  -15.6667  -39.1117 C.3       5 UNK         0.1400 
     48 CB          4.2252  -15.4836  -39.7353 C.3       5 UNK        -0.1800 
     49 N           1.9425  -14.6350  -39.6400 N.am      5 UNK        -0.5000 
     50 C           0.7586  -14.3045  -39.1057 C.2       4 UNK         0.5000 
     51 O           0.3564  -14.7038  -38.0125 O.2       4 UNK        -0.5000 
     52 CA         -0.1483  -13.4395  -39.9875 C.3       4 UNK         0.1400 
     53 CB          0.4477  -12.0309  -40.1897 C.3       4 UNK        -0.1800 
     54 N          -0.3297  -14.1418  -41.2563 N.am      4 UNK        -0.5000 
     55 C          -1.1650  -13.8019  -42.2420 C.2       3 UNK         0.5000 
     56 O          -1.9196  -12.8271  -42.2113 O.2       3 UNK        -0.5000 
     57 CA         -1.1672  -14.7303  -43.4716 C.3       3 UNK         0.1400 
     58 CB         -2.4772  -15.5285  -43.5455 C.3       3 UNK        -0.1800 
     59 N          -0.9717  -14.0108  -44.7311 N.am      3 UNK        -0.5000 
     60 C           0.0818  -13.2381  -45.0350 C.2       2 UNK         0.5000 
     61 O           1.0203  -13.0252  -44.2652 O.2       2 UNK        -0.5000 
     62 CA          0.0845  -12.6152  -46.4479 C.3       2 UNK         0.1400 
     63 CB          1.4567  -12.0301  -46.8436 C.3       2 UNK        -0.1800 
     64 N          -0.4011  -13.5272  -47.4914 N.am      2 UNK        -0.5000 
     65 C           0.0993  -14.7220  -47.8418 C.2       1 UNK         0.5000 
     66 O           1.0509  -15.2595  -47.2737 O.2       1 UNK        -0.5000 
     67 C          -0.1169  -20.6709  -47.7143 C.2       11 UNK         0.5000 
     68 O          -0.5085  -21.2065  -48.7508 O.2       11 UNK        -0.5000 
     69 N          -0.8414  -19.7761  -47.0277 N.am      12 UNK        -0.5000 
     70 CA         -2.1846  -19.3359  -47.4052 C.3       12 UNK         0.1400 
     71 CB         -2.6266  -18.1921  -46.4824 C.3       12 UNK        -0.1800 
     72 C          -3.2227  -20.4726  -47.4012 C.2       12 UNK         0.5000 
     73 O          -4.0596  -20.5231  -48.3025 O.2       12 UNK        -0.5000 
     74 N          -3.1373  -21.3754  -46.4149 N.am      13 UNK        -0.5000 
     75 CA         -3.9703  -22.5731  -46.3108 C.3       13 UNK         0.1400 
     76 CB         -3.7732  -23.2323  -44.9378 C.3       13 UNK        -0.1800 
     77 C          -3.7040  -23.5755  -47.4474 C.2       13 UNK         0.5000 
     78 O          -4.6594  -24.0945  -48.0241 O.2       13 UNK        -0.5000 
     79 N          -2.4240  -23.7910  -47.7865 N.am      14 UNK        -0.5000 
     80 CA         -1.9867  -24.6237  -48.9120 C.3       14 UNK         0.1400 
     81 CB         -0.4586  -24.7818  -48.8738 C.3       14 UNK        -0.1800 
     82 C          -2.4416  -24.0715  -50.2766 C.2       14 UNK         0.5000 
     83 O          -2.7975  -24.8478  -51.1631 O.2       14 UNK        -0.5000 
     84 N          -2.4564  -22.7389  -50.4027 N.am      15 UNK        -0.5000 
     85 CA         -2.9716  -22.0077  -51.5596 C.3       15 UNK         0.1400 
     86 CB         -2.4498  -20.5662  -51.4819 C.3       15 UNK        -0.1800 
     87 C          -4.5097  -21.9833  -51.6342 C.2       15 UNK         0.5000 
     88 O          -5.0493  -21.5927  -52.6695 O.2       15 UNK        -0.5000 
     89 N          -5.1854  -22.3232  -50.5260 N.am      16 UNK        -0.5000 
     90 CA         -6.6236  -22.1788  -50.2796 C.3       16 UNK         0.1400 
     91 CB         -7.4291  -23.1538  -51.1628 C.3       16 UNK        -0.1800 
     92 C          -7.0793  -20.7112  -50.4243 C.2       16 UNK         0.5000 
     93 O          -8.0741  -20.4328  -51.0921 O.2       16 UNK        -0.5000 
     94 N          -6.2895  -19.7882  -49.8538 N.am      17 UNK        -0.5000 
     95 CA         -6.3942  -18.3300  -49.9979 C.3       17 UNK         0.1400 
     96 CB         -7.6590  -17.7934  -49.2978 C.3       17 UNK        -0.1800 
     97 C          -6.2666  -17.8699  -51.4686 C.2       17 UNK         0.5000 
     98 O          -6.9562  -16.9443  -51.8973 O.2       17 UNK        -0.5000 
     99 N          -5.3870  -18.5616  -52.2065 N.am      18 UNK        -0.5000 
    100 CA        -5.0765  -18.4399  -53.6342 C.3       18 UNK         0.1400 
    101 CB        -4.6492  -17.0067  -54.0103 C.3       18 UNK        -0.1800 
    102 C         -6.1564  -19.0090  -54.5785 C.2       18 UNK         0.5000 
    103 O         -5.9955  -18.9038  -55.7957 O.2       18 UNK        -0.5000 
    104 N         -7.2084  -19.6476  -54.0409 N.am      19 UNK        -0.5000 
    105 CA        -8.2517  -20.3123  -54.8296 C.3       19 UNK         0.1400 
    106 CB        -9.4681  -20.6137  -53.9427 C.3       19 UNK        -0.1800 
    107 C         -7.7597  -21.5994  -55.5208 C.2       19 UNK         0.5000 
    108 O         -8.3176  -21.9769  -56.5516 O.2       19 UNK        -0.5000 
    109 N         -6.7143  -22.2303  -54.9682 N.am      20 UNK        -0.5000 
    110 CA        -6.0286  -23.3913  -55.5383 C.3       20 UNK         0.1400 
    111 CB        -5.8083  -24.4402  -54.4330 C.3       20 UNK        -0.1800 
    112 C         -4.7064  -22.9809  -56.2204 C.2       20 UNK         0.5000 
    113 O         -3.8193  -23.8214  -56.3773 O.2       20 UNK        -0.5000 
    114 N         -4.5972  -21.7018  -56.6145 N.am      21 UNK        -0.5000 
    115 CA        -3.4328  -21.0499  -57.2156 C.3       21 UNK         0.1400 
    116 CB        -3.1222  -21.6362  -58.6119 C.3       21 UNK        -0.1800 
    117 C         -2.2415  -21.0420  -56.2379 C.2       21 UNK         0.5000 
    118 O         -2.3688  -20.4655  -55.1567 O.2       21 UNK        -0.5000 
    119 N         -1.1110  -21.6479  -56.6257 N.am      22 UNK        -0.5000 
    120 CA         0.1441  -21.7740  -55.8600 C.3       22 UNK         0.1400 
    121 C          0.9232  -20.4375  -55.6640 C.2       22 UNK         0.5000 
    122 N          0.2557  -19.3168  -55.4274 N.am      22 UNK        -0.7600 
    123 O          2.1454  -20.4099  -55.7772 O.2       22 UNK        -0.5000 
    124 C124       -0.0701  -22.5500  -54.5311 C.3       23 UNK        -0.0398 
    125 S125        1.4623  -23.1971  -53.7749 S.3       23 UNK        -0.2404 
    126 C126        1.1938  -22.8147  -52.0133 C.3       23 UNK        -0.0205 
    127 H127       -4.9746  -15.0771  -49.6195 H         1 UNK         0.0600 
    128 H128       -4.9073  -14.4014  -47.9882 H         1 UNK         0.0600 
    129 H129       -4.4816  -16.0903  -48.2582 H         1 UNK         0.0600 
    130 H130       -2.3142  -16.5434  -48.5725 H         1 UNK         0.3000 
    131 H131       -0.4725  -14.7568  -49.8877 H         1 UNK         0.0600 
    132 H132        1.1574  -16.6149  -49.5638 H         1 UNK         0.0800 
    133 H133       -0.0001  -17.4909  -48.5998 H         1 UNK         0.0800 
    134 H134        0.5131  -17.8522  -53.0062 H         1 UNK         0.0800 
    135 H135        1.4964  -16.8974  -51.9296 H         1 UNK         0.0800 
    136 H136        0.2741  -20.3121  -52.6717 H         1 UNK         0.1150 
    137 H137        3.3263  -22.2871  -50.3929 H         1 UNK         0.1150 
    138 H138        3.0208  -18.0124  -50.3480 H         1 UNK         0.1150 
    139 H139        5.2995  -20.6239  -49.6437 H         1 UNK         0.0800 
    140 H140        4.7757  -19.0359  -49.1443 H         1 UNK         0.0800 
    141 H141        2.0636  -19.3109  -48.1401 H         1 UNK         0.0800 
    142 H142        2.4036  -19.3418  -46.4568 H         1 UNK         0.0800 
    143 H143        1.5440  -21.9836  -47.6488 H         1 UNK         0.0600 
    144 H144        1.6806  -20.8850  -45.0491 H         1 UNK         0.3000 
    145 H145       -0.6513  -23.0661  -43.4260 H         1 UNK         0.0600 
    146 H146        1.3378  -23.3402  -41.9817 H         1 UNK         0.0600 
    147 H147        1.5625  -24.2130  -43.4901 H         1 UNK         0.0600 
    148 H148        2.3819  -22.6776  -43.2363 H         1 UNK         0.0600 
    149 H149        0.8414  -20.8680  -42.4247 H         1 UNK         0.3000 
    150 H150       -1.5904  -18.3169  -43.1860 H         1 UNK         0.0600 
    151 H151       -2.2757  -19.3477  -41.0297 H         1 UNK         0.0600 
    152 H152       -1.2764  -17.9275  -40.7559 H         1 UNK         0.0600 
    153 H153       -0.5907  -19.5392  -40.5628 H         1 UNK         0.0600 
    154 H154        0.9601  -18.1355  -41.9456 H         1 UNK         0.3000 
    155 H155        2.9135  -17.7014  -44.9164 H         1 UNK         0.0600 
    156 H156        2.0903  -15.7887  -42.6723 H         1 UNK         0.0600 
    157 H157        3.5818  -15.6926  -43.6075 H         1 UNK         0.0600 
    158 H158        2.0351  -15.4739  -44.4041 H         1 UNK         0.0600 
    159 H159        3.5099  -17.7993  -42.1021 H         1 UNK         0.3000 
    160 H160        4.2564  -21.2862  -41.9690 H         1 UNK         0.0600 
    161 H161        6.0493  -18.7979  -41.8997 H         1 UNK         0.0600 
    162 H162        6.2813  -20.1944  -42.9448 H         1 UNK         0.0600 
    163 H163        6.4292  -20.3735  -41.2039 H         1 UNK         0.0600 
    164 H164        4.4391  -19.1659  -40.0478 H         1 UNK         0.3000 
    165 H165        1.1334  -19.4709  -38.7454 H         1 UNK         0.0600 
    166 H166        2.3874  -19.9080  -36.6600 H         1 UNK         0.0600 
    167 H167        2.4309  -21.3300  -37.6892 H         1 UNK         0.0600 
    168 H168        3.8459  -20.2901  -37.5758 H         1 UNK         0.0600 
    169 H169        3.2573  -17.8661  -37.8506 H         1 UNK         0.3000 
    170 H170        2.9074  -15.5578  -38.0277 H         1 UNK         0.0600 
    171 H171        4.2004  -15.5906  -40.8206 H         1 UNK         0.0600 
    172 H172        4.6316  -14.4983  -39.5061 H         1 UNK         0.0600 
    173 H173        4.9297  -16.2209  -39.3483 H         1 UNK         0.0600 
    174 H174        2.1872  -14.2554  -40.5424 H         1 UNK         0.3000 
    175 H175       -1.1185  -13.3497  -39.4948 H         1 UNK         0.0600 
    176 H176       -0.2554  -11.3683  -40.6938 H         1 UNK         0.0600 
    177 H177        1.3614  -12.0579  -40.7845 H         1 UNK         0.0600 
    178 H178        0.6904  -11.5687  -39.2320 H         1 UNK         0.0600 
    179 H179        0.2082  -14.9942  -41.3428 H         1 UNK         0.3000 
    180 H180       -0.3460  -15.4410  -43.3756 H         1 UNK         0.0600 
    181 H181       -3.3383  -14.8760  -43.6950 H         1 UNK         0.0600 
    182 H182       -2.6461  -16.0888  -42.6250 H         1 UNK         0.0600 
    183 H183       -2.4546  -16.2466  -44.3635 H         1 UNK         0.0600 
    184 H184       -1.6986  -14.1126  -45.4227 H         1 UNK         0.3000 
    185 H185       -0.6255  -11.7878  -46.4121 H         1 UNK         0.0600 
    186 H186        1.7689  -11.2545  -46.1433 H         1 UNK         0.0600 
    187 H187        2.2344  -12.7945  -46.8531 H         1 UNK         0.0600 
    188 H188        1.4210  -11.5753  -47.8335 H         1 UNK         0.0600 
    189 H189       -1.2082  -13.2058  -48.0198 H         1 UNK         0.3000 
    190 H190       -0.4371  -19.3479  -46.1977 H         1 UNK         0.3000 
    191 H191       -2.1287  -18.9511  -48.4254 H         1 UNK         0.0600 
    192 H192       -1.9198  -17.3629  -46.5129 H         1 UNK         0.0600 
    193 H193       -3.6048  -17.8079  -46.7724 H         1 UNK         0.0600 
    194 H194       -2.7023  -18.5230  -45.4466 H         1 UNK         0.0600 
    195 H195       -2.4697  -21.2186  -45.6646 H         1 UNK         0.3000 
    196 H196       -5.0135  -22.2586  -46.3850 H         1 UNK         0.0600 
    197 H197       -4.4076  -24.1133  -44.8332 H         1 UNK         0.0600 
    198 H198       -4.0333  -22.5467  -44.1312 H         1 UNK         0.0600 
    199 H199       -2.7421  -23.5506  -44.7860 H         1 UNK         0.0600 
    200 H200       -1.6909  -23.3582  -47.2308 H         1 UNK         0.3000 
    201 H201       -2.4347  -25.6117  -48.7887 H         1 UNK         0.0600 
    202 H202       -0.1333  -25.2393  -47.9394 H         1 UNK         0.0600 
    203 H203        0.0499  -23.8222  -48.9696 H         1 UNK         0.0600 
    204 H204       -0.1111  -25.4194  -49.6876 H         1 UNK         0.0600 
    205 H205       -2.0674  -22.1798  -49.6493 H         1 UNK         0.3000 
    206 H206       -2.5908  -22.4761  -52.4690 H         1 UNK         0.0600 
    207 H207       -1.4011  -20.5415  -51.1989 H         1 UNK         0.0600 
    208 H208       -2.5407  -20.0613  -52.4429 H         1 UNK         0.0600 
    209 H209       -2.9887  -19.9737  -50.7423 H         1 UNK         0.0600 
    210 H210       -4.6440  -22.6245  -49.7259 H         1 UNK         0.3000 
    211 H211       -6.7896  -22.4552  -49.2376 H         1 UNK         0.0600 
    212 H212       -7.3612  -22.8963  -52.2193 H         1 UNK         0.0600 
    213 H213       -8.4855  -23.1416  -50.8928 H         1 UNK         0.0600 
    214 H214       -7.0740  -24.1774  -51.0442 H         1 UNK         0.0600 
    215 H215       -5.4867  -20.1168  -49.3168 H         1 UNK         0.3000 
    216 H216       -5.5303  -17.9164  -49.4772 H         1 UNK         0.0600 
    217 H217       -7.6649  -16.7029  -49.2854 H         1 UNK         0.0600 
    218 H218       -7.7075  -18.1290  -48.2619 H         1 UNK         0.0600 
    219 H219       -8.5704  -18.1194  -49.7997 H         1 UNK         0.0600 
    220 H220       -4.9358  -19.3435  -51.7548 H         1 UNK         0.3000 
    221 H221       -4.2066  -19.0771  -53.7898 H         1 UNK         0.0600 
    222 H222       -5.4862  -16.3093  -53.9786 H         1 UNK         0.0600 
    223 H223       -3.8741  -16.6372  -53.3387 H         1 UNK         0.0600 
    224 H224       -4.2412  -16.9761  -55.0212 H         1 UNK         0.0600 
    225 H225       -7.2792  -19.7297  -53.0338 H         1 UNK         0.3000 
    226 H226       -8.5724  -19.6199  -55.6108 H         1 UNK         0.0600 
    227 H227       -9.8002  -19.7251  -53.4056 H         1 UNK         0.0600 
    228 H228      -10.3076  -20.9646  -54.5439 H         1 UNK         0.0600 
    229 H229       -9.2495  -21.3906  -53.2098 H         1 UNK         0.0600 
    230 H230       -6.2855  -21.8407  -54.1314 H         1 UNK         0.3000 
    231 H231       -6.6488  -23.8526  -56.3090 H         1 UNK         0.0600 
    232 H232       -5.1088  -24.0903  -53.6743 H         1 UNK         0.0600 
    233 H233       -5.4037  -25.3649  -54.8460 H         1 UNK         0.0600 
    234 H234       -6.7448  -24.6931  -53.9360 H         1 UNK         0.0600 
    235 H235       -5.3650  -21.0804  -56.3971 H         1 UNK         0.3000 
    236 H236       -3.7110  -20.0044  -57.3562 H         1 UNK         0.0600 
    237 H237       -2.8256  -22.6845  -58.5692 H         1 UNK         0.0600 
    238 H238       -3.9949  -21.5694  -59.2617 H         1 UNK         0.0600 
    239 H239       -2.3197  -21.0822  -59.1005 H         1 UNK         0.0600 
    240 H240       -1.0994  -22.0729  -57.5415 H         1 UNK         0.3000 
    241 H241        0.7812  -22.3964  -56.4902 H         1 UNK         0.0600 
    242 H242       -0.7500  -19.3607  -55.3061 H         1 UNK         0.3800 
    243 H243        0.7495  -18.4443  -55.3375 H         1 UNK         0.3800 
    244 H244       -0.6181  -21.9375  -53.8175 H         1 UNK         0.0800 
    245 H245       -0.7112  -23.4129  -54.7173 H         1 UNK         0.0800 
    246 H246        1.6616  -23.6033  -51.4222 H         1 UNK         0.0800 
    247 H247        0.1311  -22.8607  -51.7729 H         1 UNK         0.0800 
@<TRIPOS>BOND
     1    1    2 1    
     2    1  127 1    
     3    1  128 1    
     4    1  129 1    
     5    2    3 2    
     6    2    4 am   BACKBONE|DICT|INTERRES
     7    4    5 1    
     8    4  130 1    
     9    5    6 1    
    10    5   65 1    
    11    5  131 1    
    12    6    7 1    
    13    6  132 1    
    14    6  133 1    
    15    7    8 1    
    16    8    9 1    
    17    8  134 1    
    18    8  135 1    
    19    9   10 ar   
    20    9   14 ar   
    21   10   11 ar   
    22   10  136 1    
    23   11   12 ar   
    24   11  126 1    
    25   12   13 ar   
    26   12  137 1    
    27   13   14 ar   
    28   13   15 1    
    29   14  138 1    
    30   15   16 1    
    31   15  139 1    
    32   15  140 1    
    33   16   17 1    
    34   17   18 1    
    35   17  141 1    
    36   17  142 1    
    37   18   19 1    
    38   18   67 1    
    39   18  143 1    
    40   19   20 am   BACKBONE|DICT|INTERRES
    41   19  144 1    
    42   20   21 2    
    43   20   22 1    
    44   22   23 1    
    45   22   24 1    
    46   22  145 1    
    47   23  146 1    
    48   23  147 1    
    49   23  148 1    
    50   24   25 am   BACKBONE|DICT|INTERRES
    51   24  149 1    
    52   25   26 2    
    53   25   27 1    
    54   27   28 1    
    55   27   29 1    
    56   27  150 1    
    57   28  151 1    
    58   28  152 1    
    59   28  153 1    
    60   29   30 am   BACKBONE|DICT|INTERRES
    61   29  154 1    
    62   30   31 2    
    63   30   32 1    
    64   32   33 1    
    65   32   34 1    
    66   32  155 1    
    67   33  156 1    
    68   33  157 1    
    69   33  158 1    
    70   34   35 am   BACKBONE|DICT|INTERRES
    71   34  159 1    
    72   35   36 2    
    73   35   37 1    
    74   37   38 1    
    75   37   39 1    
    76   37  160 1    
    77   38  161 1    
    78   38  162 1    
    79   38  163 1    
    80   39   40 am   BACKBONE|DICT|INTERRES
    81   39  164 1    
    82   40   41 2    
    83   40   42 1    
    84   42   43 1    
    85   42   44 1    
    86   42  165 1    
    87   43  166 1    
    88   43  167 1    
    89   43  168 1    
    90   44   45 am   BACKBONE|DICT|INTERRES
    91   44  169 1    
    92   45   46 2    
    93   45   47 1    
    94   47   48 1    
    95   47   49 1    
    96   47  170 1    
    97   48  171 1    
    98   48  172 1    
    99   48  173 1    
   100   49   50 am   BACKBONE|DICT|INTERRES
   101   49  174 1    
   102   50   51 2    
   103   50   52 1    
   104   52   53 1    
   105   52   54 1    
   106   52  175 1    
   107   53  176 1    
   108   53  177 1    
   109   53  178 1    
   110   54   55 am   BACKBONE|DICT|INTERRES
   111   54  179 1    
   112   55   56 2    
   113   55   57 1    
   114   57   58 1    
   115   57   59 1    
   116   57  180 1    
   117   58  181 1    
   118   58  182 1    
   119   58  183 1    
   120   59   60 am   BACKBONE|DICT|INTERRES
   121   59  184 1    
   122   60   61 2    
   123   60   62 1    
   124   62   63 1    
   125   62   64 1    
   126   62  185 1    
   127   63  186 1    
   128   63  187 1    
   129   63  188 1    
   130   64   65 am   BACKBONE|DICT|INTERRES
   131   64  189 1    
   132   65   66 2    
   133   67   68 2    
   134   67   69 am   BACKBONE|DICT|INTERRES
   135   69   70 1    
   136   69  190 1    
   137   70   71 1    
   138   70   72 1    
   139   70  191 1    
   140   71  192 1    
   141   71  193 1    
   142   71  194 1    
   143   72   73 2    
   144   72   74 am   BACKBONE|DICT|INTERRES
   145   74   75 1    
   146   74  195 1    
   147   75   76 1    
   148   75   77 1    
   149   75  196 1    
   150   76  197 1    
   151   76  198 1    
   152   76  199 1    
   153   77   78 2    
   154   77   79 am   BACKBONE|DICT|INTERRES
   155   79   80 1    
   156   79  200 1    
   157   80   81 1    
   158   80   82 1    
   159   80  201 1    
   160   81  202 1    
   161   81  203 1    
   162   81  204 1    
   163   82   83 2    
   164   82   84 am   BACKBONE|DICT|INTERRES
   165   84   85 1    
   166   84  205 1    
   167   85   86 1    
   168   85   87 1    
   169   85  206 1    
   170   86  207 1    
   171   86  208 1    
   172   86  209 1    
   173   87   88 2    
   174   87   89 am   BACKBONE|DICT|INTERRES
   175   89   90 1    
   176   89  210 1    
   177   90   91 1    
   178   90   92 1    
   179   90  211 1    
   180   91  212 1    
   181   91  213 1    
   182   91  214 1    
   183   92   93 2    
   184   92   94 am   BACKBONE|DICT|INTERRES
   185   94   95 1    
   186   94  215 1    
   187   95   96 1    
   188   95   97 1    
   189   95  216 1    
   190   96  217 1    
   191   96  218 1    
   192   96  219 1    
   193   97   98 2    
   194   97   99 am   BACKBONE|DICT|INTERRES
   195   99  100 1    
   196   99  220 1    
   197  100  101 1    
   198  100  102 1    
   199  100  221 1    
   200  101  222 1    
   201  101  223 1    
   202  101  224 1    
   203  102  103 2    
   204  102  104 am   BACKBONE|DICT|INTERRES
   205  104  105 1    
   206  104  225 1    
   207  105  106 1    
   208  105  107 1    
   209  105  226 1    
   210  106  227 1    
   211  106  228 1    
   212  106  229 1    
   213  107  108 2    
   214  107  109 am   BACKBONE|DICT|INTERRES
   215  109  110 1    
   216  109  230 1    
   217  110  111 1    
   218  110  112 1    
   219  110  231 1    
   220  111  232 1    
   221  111  233 1    
   222  111  234 1    
   223  112  113 2    
   224  112  114 am   BACKBONE|DICT|INTERRES
   225  114  115 1    
   226  114  235 1    
   227  115  116 1    
   228  115  117 1    
   229  115  236 1    
   230  116  237 1    
   231  116  238 1    
   232  116  239 1    
   233  117  118 2    
   234  117  119 am   BACKBONE|DICT|INTERRES
   235  119  120 1    
   236  119  240 1    
   237  120  121 1    
   238  120  124 1    
   239  120  241 1    
   240  121  122 am   BACKBONE|DICT|INTERRES
   241  121  123 2    
   242  122  242 1    
   243  122  243 1    
   244  124  125 1    
   245  124  244 1    
   246  124  245 1    
   247  125  126 1    
   248  126  246 1    
   249  126  247 1    
@<TRIPOS>SUBSTRUCTURE
     1 UNK         1 GROUP             0       ****    0 ROOT    
